MODEL 1
REMARK VINA RESULT:     -10.1      0.000      0.000
REMARK  Name = 
REMARK  9 active torsions:
REMARK  status: ('A' for Active; 'I' for Inactive)
REMARK    1  A    between atoms: C_1  and  C_2
REMARK    2  A    between atoms: C_2  and  C_3
REMARK    3  A    between atoms: C_10  and  C_11
REMARK    4  A    between atoms: C_14  and  C_15
REMARK    5  A    between atoms: C_15  and  C_16
REMARK    6  A    between atoms: C_15  and  C_24
REMARK    7  A    between atoms: C_15  and  C_26
REMARK    8  A    between atoms: C_24  and  C_25
REMARK    9  A    between atoms: C_26  and  C_27
REMARK                            x       y       z     vdW  Elec       q    Type
REMARK                         _______ _______ _______ _____ _____    ______ ____
ROOT
ATOM      1  C   UNL     1       1.574   7.983  20.171  0.00  0.00    +0.000 A 
ATOM      2  C   UNL     1       2.039   8.193  18.933  0.00  0.00    +0.000 A 
ATOM      3  C   UNL     1       2.802   7.164  18.272  0.00  0.00    +0.000 A 
ATOM      4  C   UNL     1       3.097   5.984  18.859  0.00  0.00    +0.000 A 
ATOM      5  C   UNL     1       2.527   5.757  20.245  0.00  0.00    +0.000 A 
ATOM      6  O   UNL     1       2.718   4.733  20.891  0.00  0.00    +0.000 OA
ATOM      7  N   UNL     1       1.798   6.783  20.786  0.00  0.00    +0.000 N 
ATOM      8  H   UNL     1       1.430   6.622  21.716  0.00  0.00    +0.000 HD
ENDROOT
BRANCH   1  16
ATOM      9  C   UNL     1      -1.290  12.017  20.078  0.00  0.00    +0.000 A 
ATOM     10  C   UNL     1      -2.062  12.959  20.780  0.00  0.00    +0.000 A 
ATOM     11  C   UNL     1      -2.171  12.899  22.167  0.00  0.00    +0.000 A 
ATOM     12  C   UNL     1      -1.521  11.888  22.871  0.00  0.00    +0.000 A 
ATOM     13  C   UNL     1      -0.747  10.929  22.204  0.00  0.00    +0.000 A 
ATOM     14  C   UNL     1      -0.116   9.902  22.925  0.00  0.00    +0.000 A 
ATOM     15  C   UNL     1       0.650   8.933  22.275  0.00  0.00    +0.000 A 
ATOM     16  C   UNL     1       0.801   8.989  20.891  0.00  0.00    +0.000 A 
ATOM     17  C   UNL     1       0.179  10.011  20.166  0.00  0.00    +0.000 A 
ATOM     18  C   UNL     1      -0.616  10.992  20.792  0.00  0.00    +0.000 A 
BRANCH   9  20
ATOM     19  C   UNL     1      -2.493  11.407  17.961  0.00  0.00    +0.000 C 
ATOM     20  C   UNL     1      -1.281  12.104  18.564  0.00  0.00    +0.000 C 
ENDBRANCH   9  20
ENDBRANCH   1  16
BRANCH   4  21
ATOM     21  C   UNL     1       4.055   4.910  18.286  0.00  0.00    +0.000 C 
BRANCH  21  22
ATOM     22  C   UNL     1       5.418   4.980  19.004  0.00  0.00    +0.000 C 
ATOM     23  C   UNL     1       6.411   5.855  18.764  0.00  0.00    +0.000 C 
ATOM     24  O   UNL     1       6.376   6.829  17.778  0.00  0.00    +0.000 OA
ATOM     25  C   UNL     1       7.617   7.413  17.884  0.00  0.00    +0.000 C 
ATOM     26  O   UNL     1       8.007   8.300  17.138  0.00  0.00    +0.000 OA
ATOM     27  N   UNL     1       8.352   6.880  18.882  0.00  0.00    +0.000 N 
ATOM     28  C   UNL     1       7.695   5.868  19.480  0.00  0.00    +0.000 C 
ATOM     29  O   UNL     1       8.081   5.128  20.358  0.00  0.00    +0.000 OA
ATOM     30  H   UNL     1       9.298   7.152  19.086  0.00  0.00    +0.000 HD
ENDBRANCH  21  22
BRANCH  21  31
ATOM     31  C   UNL     1       3.435   3.483  18.476  0.00  0.00    +0.000 C 
ATOM     32  C   UNL     1       2.124   3.241  17.729  0.00  0.00    +0.000 C 
ENDBRANCH  21  31
BRANCH  21  33
ATOM     33  C   UNL     1       4.341   5.149  16.759  0.00  0.00    +0.000 C 
ATOM     34  C   UNL     1       5.117   4.059  16.023  0.00  0.00    +0.000 C 
ENDBRANCH  21  33
ENDBRANCH   4  21
TORSDOF 6
ENDMDL
MODEL 2
REMARK VINA RESULT:      -9.5      1.128      1.839
REMARK  Name = 
REMARK  9 active torsions:
REMARK  status: ('A' for Active; 'I' for Inactive)
REMARK    1  A    between atoms: C_1  and  C_2
REMARK    2  A    between atoms: C_2  and  C_3
REMARK    3  A    between atoms: C_10  and  C_11
REMARK    4  A    between atoms: C_14  and  C_15
REMARK    5  A    between atoms: C_15  and  C_16
REMARK    6  A    between atoms: C_15  and  C_24
REMARK    7  A    between atoms: C_15  and  C_26
REMARK    8  A    between atoms: C_24  and  C_25
REMARK    9  A    between atoms: C_26  and  C_27
REMARK                            x       y       z     vdW  Elec       q    Type
REMARK                         _______ _______ _______ _____ _____    ______ ____
ROOT
ATOM      1  C   UNL     1       1.591   7.687  20.203  0.00  0.00    +0.000 A 
ATOM      2  C   UNL     1       2.110   7.823  18.976  0.00  0.00    +0.000 A 
ATOM      3  C   UNL     1       2.768   6.704  18.350  0.00  0.00    +0.000 A 
ATOM      4  C   UNL     1       2.910   5.508  18.961  0.00  0.00    +0.000 A 
ATOM      5  C   UNL     1       2.281   5.369  20.332  0.00  0.00    +0.000 A 
ATOM      6  O   UNL     1       2.336   4.340  20.997  0.00  0.00    +0.000 OA
ATOM      7  N   UNL     1       1.659   6.479  20.840  0.00  0.00    +0.000 N 
ATOM      8  H   UNL     1       1.251   6.376  21.761  0.00  0.00    +0.000 HD
ENDROOT
BRANCH   1  16
ATOM      9  C   UNL     1      -1.299  11.699  19.991  0.00  0.00    +0.000 A 
ATOM     10  C   UNL     1      -1.972  12.731  20.667  0.00  0.00    +0.000 A 
ATOM     11  C   UNL     1      -1.881  12.855  22.051  0.00  0.00    +0.000 A 
ATOM     12  C   UNL     1      -1.128  11.940  22.782  0.00  0.00    +0.000 A 
ATOM     13  C   UNL     1      -0.446  10.895  22.142  0.00  0.00    +0.000 A 
ATOM     14  C   UNL     1       0.291   9.966  22.894  0.00  0.00    +0.000 A 
ATOM     15  C   UNL     1       0.966   8.914  22.274  0.00  0.00    +0.000 A 
ATOM     16  C   UNL     1       0.918   8.786  20.888  0.00  0.00    +0.000 A 
ATOM     17  C   UNL     1       0.188   9.709  20.131  0.00  0.00    +0.000 A 
ATOM     18  C   UNL     1      -0.519  10.771  20.730  0.00  0.00    +0.000 A 
BRANCH   9  20
ATOM     19  C   UNL     1      -2.987  11.611  18.135  0.00  0.00    +0.000 C 
ATOM     20  C   UNL     1      -1.506  11.586  18.494  0.00  0.00    +0.000 C 
ENDBRANCH   9  20
ENDBRANCH   1  16
BRANCH   4  21
ATOM     21  C   UNL     1       3.755   4.323  18.429  0.00  0.00    +0.000 C 
BRANCH  21  22
ATOM     22  C   UNL     1       4.593   4.774  17.215  0.00  0.00    +0.000 C 
ATOM     23  C   UNL     1       5.750   5.459  17.245  0.00  0.00    +0.000 C 
ATOM     24  O   UNL     1       6.363   5.912  18.404  0.00  0.00    +0.000 OA
ATOM     25  C   UNL     1       7.457   6.593  17.922  0.00  0.00    +0.000 C 
ATOM     26  O   UNL     1       8.240   7.198  18.640  0.00  0.00    +0.000 OA
ATOM     27  N   UNL     1       7.547   6.534  16.577  0.00  0.00    +0.000 N 
ATOM     28  C   UNL     1       6.502   5.868  16.050  0.00  0.00    +0.000 C 
ATOM     29  O   UNL     1       6.228   5.687  14.884  0.00  0.00    +0.000 OA
ATOM     30  H   UNL     1       8.258   7.003  16.043  0.00  0.00    +0.000 HD
ENDBRANCH  21  22
BRANCH  21  31
ATOM     31  C   UNL     1       4.707   3.795  19.556  0.00  0.00    +0.000 C 
ATOM     32  C   UNL     1       4.541   2.317  19.906  0.00  0.00    +0.000 C 
ENDBRANCH  21  31
BRANCH  21  33
ATOM     33  C   UNL     1       2.842   3.144  17.930  0.00  0.00    +0.000 C 
ATOM     34  C   UNL     1       1.354   3.445  17.766  0.00  0.00    +0.000 C 
ENDBRANCH  21  33
ENDBRANCH   4  21
TORSDOF 6
ENDMDL
MODEL 3
REMARK VINA RESULT:      -9.2      1.185      2.088
REMARK  Name = 
REMARK  9 active torsions:
REMARK  status: ('A' for Active; 'I' for Inactive)
REMARK    1  A    between atoms: C_1  and  C_2
REMARK    2  A    between atoms: C_2  and  C_3
REMARK    3  A    between atoms: C_10  and  C_11
REMARK    4  A    between atoms: C_14  and  C_15
REMARK    5  A    between atoms: C_15  and  C_16
REMARK    6  A    between atoms: C_15  and  C_24
REMARK    7  A    between atoms: C_15  and  C_26
REMARK    8  A    between atoms: C_24  and  C_25
REMARK    9  A    between atoms: C_26  and  C_27
REMARK                            x       y       z     vdW  Elec       q    Type
REMARK                         _______ _______ _______ _____ _____    ______ ____
ROOT
ATOM      1  C   UNL     1       1.383   7.828  20.573  0.00  0.00    +0.000 A 
ATOM      2  C   UNL     1       1.504   6.615  21.129  0.00  0.00    +0.000 A 
ATOM      3  C   UNL     1       2.268   5.594  20.458  0.00  0.00    +0.000 A 
ATOM      4  C   UNL     1       2.860   5.795  19.261  0.00  0.00    +0.000 A 
ATOM      5  C   UNL     1       2.740   7.186  18.672  0.00  0.00    +0.000 A 
ATOM      6  O   UNL     1       3.228   7.504  17.593  0.00  0.00    +0.000 OA
ATOM      7  N   UNL     1       2.011   8.098  19.389  0.00  0.00    +0.000 N 
ATOM      8  H   UNL     1       1.931   9.021  18.980  0.00  0.00    +0.000 HD
ENDROOT
BRANCH   1  16
ATOM      9  C   UNL     1      -1.256  11.992  20.143  0.00  0.00    +0.000 A 
ATOM     10  C   UNL     1      -2.021  12.998  20.757  0.00  0.00    +0.000 A 
ATOM     11  C   UNL     1      -2.220  13.000  22.136  0.00  0.00    +0.000 A 
ATOM     12  C   UNL     1      -1.670  11.987  22.918  0.00  0.00    +0.000 A 
ATOM     13  C   UNL     1      -0.906  10.965  22.339  0.00  0.00    +0.000 A 
ATOM     14  C   UNL     1      -0.377   9.938  23.137  0.00  0.00    +0.000 A 
ATOM     15  C   UNL     1       0.377   8.907  22.575  0.00  0.00    +0.000 A 
ATOM     16  C   UNL     1       0.619   8.899  21.203  0.00  0.00    +0.000 A 
ATOM     17  C   UNL     1       0.098   9.920  20.402  0.00  0.00    +0.000 A 
ATOM     18  C   UNL     1      -0.683  10.964  20.937  0.00  0.00    +0.000 A 
BRANCH   9  20
ATOM     19  C   UNL     1      -0.416  13.262  18.148  0.00  0.00    +0.000 C 
ATOM     20  C   UNL     1      -1.146  12.016  18.631  0.00  0.00    +0.000 C 
ENDBRANCH   9  20
ENDBRANCH   1  16
BRANCH   4  21
ATOM     21  C   UNL     1       3.541   4.701  18.401  0.00  0.00    +0.000 C 
BRANCH  21  22
ATOM     22  C   UNL     1       4.824   5.261  17.754  0.00  0.00    +0.000 C 
ATOM     23  C   UNL     1       6.027   5.403  18.340  0.00  0.00    +0.000 C 
ATOM     24  O   UNL     1       6.293   5.097  19.666  0.00  0.00    +0.000 OA
ATOM     25  C   UNL     1       7.612   5.463  19.803  0.00  0.00    +0.000 C 
ATOM     26  O   UNL     1       8.219   5.398  20.862  0.00  0.00    +0.000 OA
ATOM     27  N   UNL     1       8.141   5.919  18.649  0.00  0.00    +0.000 N 
ATOM     28  C   UNL     1       7.215   5.951  17.671  0.00  0.00    +0.000 C 
ATOM     29  O   UNL     1       7.324   6.366  16.539  0.00  0.00    +0.000 OA
ATOM     30  H   UNL     1       9.080   6.268  18.564  0.00  0.00    +0.000 HD
ENDBRANCH  21  22
BRANCH  21  31
ATOM     31  C   UNL     1       3.900   3.464  19.293  0.00  0.00    +0.000 C 
ATOM     32  C   UNL     1       3.731   2.105  18.616  0.00  0.00    +0.000 C 
ENDBRANCH  21  31
BRANCH  21  33
ATOM     33  C   UNL     1       2.612   4.235  17.222  0.00  0.00    +0.000 C 
ATOM     34  C   UNL     1       1.115   4.153  17.514  0.00  0.00    +0.000 C 
ENDBRANCH  21  33
ENDBRANCH   4  21
TORSDOF 6
ENDMDL
MODEL 4
REMARK VINA RESULT:      -9.2      1.565      2.186
REMARK  Name = 
REMARK  9 active torsions:
REMARK  status: ('A' for Active; 'I' for Inactive)
REMARK    1  A    between atoms: C_1  and  C_2
REMARK    2  A    between atoms: C_2  and  C_3
REMARK    3  A    between atoms: C_10  and  C_11
REMARK    4  A    between atoms: C_14  and  C_15
REMARK    5  A    between atoms: C_15  and  C_16
REMARK    6  A    between atoms: C_15  and  C_24
REMARK    7  A    between atoms: C_15  and  C_26
REMARK    8  A    between atoms: C_24  and  C_25
REMARK    9  A    between atoms: C_26  and  C_27
REMARK                            x       y       z     vdW  Elec       q    Type
REMARK                         _______ _______ _______ _____ _____    ______ ____
ROOT
ATOM      1  C   UNL     1       1.404   8.071  20.392  0.00  0.00    +0.000 A 
ATOM      2  C   UNL     1       1.973   8.310  19.203  0.00  0.00    +0.000 A 
ATOM      3  C   UNL     1       2.740   7.276  18.557  0.00  0.00    +0.000 A 
ATOM      4  C   UNL     1       2.938   6.060  19.112  0.00  0.00    +0.000 A 
ATOM      5  C   UNL     1       2.252   5.803  20.439  0.00  0.00    +0.000 A 
ATOM      6  O   UNL     1       2.349   4.745  21.052  0.00  0.00    +0.000 OA
ATOM      7  N   UNL     1       1.528   6.838  20.969  0.00  0.00    +0.000 N 
ATOM      8  H   UNL     1       1.083   6.656  21.860  0.00  0.00    +0.000 HD
ENDROOT
BRANCH   1  16
ATOM      9  C   UNL     1      -1.442  12.116  20.237  0.00  0.00    +0.000 A 
ATOM     10  C   UNL     1      -2.224  13.062  20.923  0.00  0.00    +0.000 A 
ATOM     11  C   UNL     1      -2.360  13.004  22.308  0.00  0.00    +0.000 A 
ATOM     12  C   UNL     1      -1.729  11.992  23.026  0.00  0.00    +0.000 A 
ATOM     13  C   UNL     1      -0.945  11.029  22.375  0.00  0.00    +0.000 A 
ATOM     14  C   UNL     1      -0.333  10.000  23.110  0.00  0.00    +0.000 A 
ATOM     15  C   UNL     1       0.442   9.028  22.476  0.00  0.00    +0.000 A 
ATOM     16  C   UNL     1       0.621   9.081  21.096  0.00  0.00    +0.000 A 
ATOM     17  C   UNL     1       0.017  10.105  20.357  0.00  0.00    +0.000 A 
ATOM     18  C   UNL     1      -0.786  11.090  20.966  0.00  0.00    +0.000 A 
BRANCH   9  20
ATOM     19  C   UNL     1      -0.402  13.249  18.253  0.00  0.00    +0.000 C 
ATOM     20  C   UNL     1      -1.402  12.201  18.724  0.00  0.00    +0.000 C 
ENDBRANCH   9  20
ENDBRANCH   1  16
BRANCH   4  21
ATOM     21  C   UNL     1       3.891   4.967  18.566  0.00  0.00    +0.000 C 
BRANCH  21  22
ATOM     22  C   UNL     1       5.157   5.619  17.974  0.00  0.00    +0.000 C 
ATOM     23  C   UNL     1       5.756   5.305  16.810  0.00  0.00    +0.000 C 
ATOM     24  O   UNL     1       5.336   4.291  15.962  0.00  0.00    +0.000 OA
ATOM     25  C   UNL     1       6.282   4.321  14.963  0.00  0.00    +0.000 C 
ATOM     26  O   UNL     1       6.297   3.530  14.031  0.00  0.00    +0.000 OA
ATOM     27  N   UNL     1       7.192   5.300  15.147  0.00  0.00    +0.000 N 
ATOM     28  C   UNL     1       6.968   5.959  16.300  0.00  0.00    +0.000 C 
ATOM     29  O   UNL     1       7.625   6.840  16.808  0.00  0.00    +0.000 OA
ATOM     30  H   UNL     1       7.980   5.451  14.542  0.00  0.00    +0.000 HD
ENDBRANCH  21  22
BRANCH  21  31
ATOM     31  C   UNL     1       4.296   3.985  19.718  0.00  0.00    +0.000 C 
ATOM     32  C   UNL     1       4.372   2.513  19.319  0.00  0.00    +0.000 C 
ENDBRANCH  21  31
BRANCH  21  33
ATOM     33  C   UNL     1       3.221   4.149  17.402  0.00  0.00    +0.000 C 
ATOM     34  C   UNL     1       1.711   3.942  17.484  0.00  0.00    +0.000 C 
ENDBRANCH  21  33
ENDBRANCH   4  21
TORSDOF 6
ENDMDL
MODEL 5
REMARK VINA RESULT:      -9.2      1.480      1.917
REMARK  Name = 
REMARK  9 active torsions:
REMARK  status: ('A' for Active; 'I' for Inactive)
REMARK    1  A    between atoms: C_1  and  C_2
REMARK    2  A    between atoms: C_2  and  C_3
REMARK    3  A    between atoms: C_10  and  C_11
REMARK    4  A    between atoms: C_14  and  C_15
REMARK    5  A    between atoms: C_15  and  C_16
REMARK    6  A    between atoms: C_15  and  C_24
REMARK    7  A    between atoms: C_15  and  C_26
REMARK    8  A    between atoms: C_24  and  C_25
REMARK    9  A    between atoms: C_26  and  C_27
REMARK                            x       y       z     vdW  Elec       q    Type
REMARK                         _______ _______ _______ _____ _____    ______ ____
ROOT
ATOM      1  C   UNL     1       1.614   7.457  20.361  0.00  0.00    +0.000 A 
ATOM      2  C   UNL     1       2.212   7.474  19.162  0.00  0.00    +0.000 A 
ATOM      3  C   UNL     1       2.873   6.290  18.675  0.00  0.00    +0.000 A 
ATOM      4  C   UNL     1       2.941   5.147  19.392  0.00  0.00    +0.000 A 
ATOM      5  C   UNL     1       2.225   5.142  20.727  0.00  0.00    +0.000 A 
ATOM      6  O   UNL     1       2.209   4.172  21.478  0.00  0.00    +0.000 OA
ATOM      7  N   UNL     1       1.607   6.306  21.099  0.00  0.00    +0.000 N 
ATOM      8  H   UNL     1       1.140   6.292  21.998  0.00  0.00    +0.000 HD
ENDROOT
BRANCH   1  16
ATOM      9  C   UNL     1      -1.172  11.482  19.637  0.00  0.00    +0.000 A 
ATOM     10  C   UNL     1      -1.854  12.584  20.180  0.00  0.00    +0.000 A 
ATOM     11  C   UNL     1      -1.826  12.835  21.550  0.00  0.00    +0.000 A 
ATOM     12  C   UNL     1      -1.129  11.979  22.398  0.00  0.00    +0.000 A 
ATOM     13  C   UNL     1      -0.441  10.867  21.892  0.00  0.00    +0.000 A 
ATOM     14  C   UNL     1       0.239   9.999  22.763  0.00  0.00    +0.000 A 
ATOM     15  C   UNL     1       0.919   8.882  22.276  0.00  0.00    +0.000 A 
ATOM     16  C   UNL     1       0.934   8.626  20.907  0.00  0.00    +0.000 A 
ATOM     17  C   UNL     1       0.262   9.488  20.033  0.00  0.00    +0.000 A 
ATOM     18  C   UNL     1      -0.449  10.613  20.496  0.00  0.00    +0.000 A 
BRANCH   9  20
ATOM     19  C   UNL     1      -2.606  10.501  17.825  0.00  0.00    +0.000 C 
ATOM     20  C   UNL     1      -1.310  11.233  18.147  0.00  0.00    +0.000 C 
ENDBRANCH   9  20
ENDBRANCH   1  16
BRANCH   4  21
ATOM     21  C   UNL     1       3.780   3.900  19.016  0.00  0.00    +0.000 C 
BRANCH  21  22
ATOM     22  C   UNL     1       5.276   4.271  18.949  0.00  0.00    +0.000 C 
ATOM     23  C   UNL     1       6.024   4.406  17.839  0.00  0.00    +0.000 C 
ATOM     24  O   UNL     1       5.560   4.187  16.550  0.00  0.00    +0.000 OA
ATOM     25  C   UNL     1       6.686   4.387  15.785  0.00  0.00    +0.000 C 
ATOM     26  O   UNL     1       6.708   4.233  14.572  0.00  0.00    +0.000 OA
ATOM     27  N   UNL     1       7.755   4.744  16.526  0.00  0.00    +0.000 N 
ATOM     28  C   UNL     1       7.452   4.755  17.839  0.00  0.00    +0.000 C 
ATOM     29  O   UNL     1       8.182   4.961  18.783  0.00  0.00    +0.000 OA
ATOM     30  H   UNL     1       8.673   4.895  16.147  0.00  0.00    +0.000 HD
ENDBRANCH  21  22
BRANCH  21  31
ATOM     31  C   UNL     1       3.567   2.770  20.080  0.00  0.00    +0.000 C 
ATOM     32  C   UNL     1       4.806   1.933  20.394  0.00  0.00    +0.000 C 
ENDBRANCH  21  31
BRANCH  21  33
ATOM     33  C   UNL     1       3.391   3.351  17.595  0.00  0.00    +0.000 C 
ATOM     34  C   UNL     1       2.349   2.236  17.548  0.00  0.00    +0.000 C 
ENDBRANCH  21  33
ENDBRANCH   4  21
TORSDOF 6
ENDMDL
MODEL 6
REMARK VINA RESULT:      -9.2      3.640      8.393
REMARK  Name = 
REMARK  9 active torsions:
REMARK  status: ('A' for Active; 'I' for Inactive)
REMARK    1  A    between atoms: C_1  and  C_2
REMARK    2  A    between atoms: C_2  and  C_3
REMARK    3  A    between atoms: C_10  and  C_11
REMARK    4  A    between atoms: C_14  and  C_15
REMARK    5  A    between atoms: C_15  and  C_16
REMARK    6  A    between atoms: C_15  and  C_24
REMARK    7  A    between atoms: C_15  and  C_26
REMARK    8  A    between atoms: C_24  and  C_25
REMARK    9  A    between atoms: C_26  and  C_27
REMARK                            x       y       z     vdW  Elec       q    Type
REMARK                         _______ _______ _______ _____ _____    ______ ____
ROOT
ATOM      1  C   UNL     1       2.087   8.070  18.811  0.00  0.00    +0.000 A 
ATOM      2  C   UNL     1       1.928   9.059  17.923  0.00  0.00    +0.000 A 
ATOM      3  C   UNL     1       1.352  10.311  18.343  0.00  0.00    +0.000 A 
ATOM      4  C   UNL     1       0.935  10.534  19.608  0.00  0.00    +0.000 A 
ATOM      5  C   UNL     1       1.161   9.412  20.602  0.00  0.00    +0.000 A 
ATOM      6  O   UNL     1       0.829   9.481  21.781  0.00  0.00    +0.000 OA
ATOM      7  N   UNL     1       1.733   8.266  20.117  0.00  0.00    +0.000 N 
ATOM      8  H   UNL     1       1.870   7.521  20.790  0.00  0.00    +0.000 HD
ENDROOT
BRANCH   1  16
ATOM      9  C   UNL     1       2.098   3.141  19.250  0.00  0.00    +0.000 A 
ATOM     10  C   UNL     1       2.633   1.901  18.860  0.00  0.00    +0.000 A 
ATOM     11  C   UNL     1       3.676   1.834  17.938  0.00  0.00    +0.000 A 
ATOM     12  C   UNL     1       4.188   3.003  17.383  0.00  0.00    +0.000 A 
ATOM     13  C   UNL     1       3.676   4.257  17.745  0.00  0.00    +0.000 A 
ATOM     14  C   UNL     1       4.187   5.427  17.159  0.00  0.00    +0.000 A 
ATOM     15  C   UNL     1       3.680   6.681  17.501  0.00  0.00    +0.000 A 
ATOM     16  C   UNL     1       2.659   6.779  18.443  0.00  0.00    +0.000 A 
ATOM     17  C   UNL     1       2.147   5.619  19.034  0.00  0.00    +0.000 A 
ATOM     18  C   UNL     1       2.625   4.337  18.696  0.00  0.00    +0.000 A 
BRANCH   9  20
ATOM     19  C   UNL     1       1.347   2.767  21.616  0.00  0.00    +0.000 C 
ATOM     20  C   UNL     1       0.916   3.129  20.200  0.00  0.00    +0.000 C 
ENDBRANCH   9  20
ENDBRANCH   1  16
BRANCH   4  21
ATOM     21  C   UNL     1       0.149  11.779  20.089  0.00  0.00    +0.000 C 
BRANCH  21  22
ATOM     22  C   UNL     1       1.083  12.724  20.872  0.00  0.00    +0.000 C 
ATOM     23  C   UNL     1       2.097  13.453  20.371  0.00  0.00    +0.000 C 
ATOM     24  O   UNL     1       2.493  13.433  19.042  0.00  0.00    +0.000 OA
ATOM     25  C   UNL     1       3.582  14.275  19.038  0.00  0.00    +0.000 C 
ATOM     26  O   UNL     1       4.261  14.487  18.044  0.00  0.00    +0.000 OA
ATOM     27  N   UNL     1       3.821  14.811  20.252  0.00  0.00    +0.000 N 
ATOM     28  C   UNL     1       2.960  14.333  21.171  0.00  0.00    +0.000 C 
ATOM     29  O   UNL     1       2.930  14.543  22.363  0.00  0.00    +0.000 OA
ATOM     30  H   UNL     1       4.596  15.418  20.452  0.00  0.00    +0.000 HD
ENDBRANCH  21  22
BRANCH  21  31
ATOM     31  C   UNL     1      -0.455  12.540  18.859  0.00  0.00    +0.000 C 
ATOM     32  C   UNL     1      -1.847  12.080  18.432  0.00  0.00    +0.000 C 
ENDBRANCH  21  31
BRANCH  21  33
ATOM     33  C   UNL     1      -1.013  11.383  21.071  0.00  0.00    +0.000 C 
ATOM     34  C   UNL     1      -1.196  12.256  22.311  0.00  0.00    +0.000 C 
ENDBRANCH  21  33
ENDBRANCH   4  21
TORSDOF 6
ENDMDL
MODEL 7
REMARK VINA RESULT:      -9.1      1.658      2.199
REMARK  Name = 
REMARK  9 active torsions:
REMARK  status: ('A' for Active; 'I' for Inactive)
REMARK    1  A    between atoms: C_1  and  C_2
REMARK    2  A    between atoms: C_2  and  C_3
REMARK    3  A    between atoms: C_10  and  C_11
REMARK    4  A    between atoms: C_14  and  C_15
REMARK    5  A    between atoms: C_15  and  C_16
REMARK    6  A    between atoms: C_15  and  C_24
REMARK    7  A    between atoms: C_15  and  C_26
REMARK    8  A    between atoms: C_24  and  C_25
REMARK    9  A    between atoms: C_26  and  C_27
REMARK                            x       y       z     vdW  Elec       q    Type
REMARK                         _______ _______ _______ _____ _____    ______ ____
ROOT
ATOM      1  C   UNL     1       1.449   7.712  20.507  0.00  0.00    +0.000 A 
ATOM      2  C   UNL     1       1.437   6.573  21.212  0.00  0.00    +0.000 A 
ATOM      3  C   UNL     1       2.205   5.442  20.756  0.00  0.00    +0.000 A 
ATOM      4  C   UNL     1       2.933   5.467  19.619  0.00  0.00    +0.000 A 
ATOM      5  C   UNL     1       2.960   6.778  18.860  0.00  0.00    +0.000 A 
ATOM      6  O   UNL     1       3.579   6.938  17.814  0.00  0.00    +0.000 OA
ATOM      7  N   UNL     1       2.215   7.805  19.379  0.00  0.00    +0.000 N 
ATOM      8  H   UNL     1       2.234   8.673  18.858  0.00  0.00    +0.000 HD
ENDROOT
BRANCH   1  16
ATOM      9  C   UNL     1      -1.566  11.452  19.320  0.00  0.00    +0.000 A 
ATOM     10  C   UNL     1      -2.325  12.561  19.733  0.00  0.00    +0.000 A 
ATOM     11  C   UNL     1      -2.340  12.957  21.069  0.00  0.00    +0.000 A 
ATOM     12  C   UNL     1      -1.607  12.241  22.013  0.00  0.00    +0.000 A 
ATOM     13  C   UNL     1      -0.843  11.128  21.638  0.00  0.00    +0.000 A 
ATOM     14  C   UNL     1      -0.128  10.402  22.605  0.00  0.00    +0.000 A 
ATOM     15  C   UNL     1       0.630   9.285  22.250  0.00  0.00    +0.000 A 
ATOM     16  C   UNL     1       0.687   8.887  20.916  0.00  0.00    +0.000 A 
ATOM     17  C   UNL     1      -0.020   9.606  19.947  0.00  0.00    +0.000 A 
ATOM     18  C   UNL     1      -0.808  10.727  20.277  0.00  0.00    +0.000 A 
BRANCH   9  20
ATOM     19  C   UNL     1      -2.801  10.055  17.640  0.00  0.00    +0.000 C 
ATOM     20  C   UNL     1      -1.660  11.038  17.864  0.00  0.00    +0.000 C 
ENDBRANCH   9  20
ENDBRANCH   1  16
BRANCH   4  21
ATOM     21  C   UNL     1       3.636   4.245  18.976  0.00  0.00    +0.000 C 
BRANCH  21  22
ATOM     22  C   UNL     1       5.159   4.482  18.916  0.00  0.00    +0.000 C 
ATOM     23  C   UNL     1       5.933   4.475  17.816  0.00  0.00    +0.000 C 
ATOM     24  O   UNL     1       5.472   4.207  16.535  0.00  0.00    +0.000 OA
ATOM     25  C   UNL     1       6.623   4.257  15.782  0.00  0.00    +0.000 C 
ATOM     26  O   UNL     1       6.651   4.018  14.584  0.00  0.00    +0.000 OA
ATOM     27  N   UNL     1       7.706   4.574  16.521  0.00  0.00    +0.000 N 
ATOM     28  C   UNL     1       7.385   4.702  17.823  0.00  0.00    +0.000 C 
ATOM     29  O   UNL     1       8.115   4.910  18.766  0.00  0.00    +0.000 OA
ATOM     30  H   UNL     1       8.640   4.620  16.152  0.00  0.00    +0.000 HD
ENDBRANCH  21  22
BRANCH  21  31
ATOM     31  C   UNL     1       3.338   2.954  19.813  0.00  0.00    +0.000 C 
ATOM     32  C   UNL     1       4.506   1.977  19.935  0.00  0.00    +0.000 C 
ENDBRANCH  21  31
BRANCH  21  33
ATOM     33  C   UNL     1       3.159   4.020  17.494  0.00  0.00    +0.000 C 
ATOM     34  C   UNL     1       1.679   3.710  17.285  0.00  0.00    +0.000 C 
ENDBRANCH  21  33
ENDBRANCH   4  21
TORSDOF 6
ENDMDL
MODEL 8
REMARK VINA RESULT:      -9.1      3.762      9.164
REMARK  Name = 
REMARK  9 active torsions:
REMARK  status: ('A' for Active; 'I' for Inactive)
REMARK    1  A    between atoms: C_1  and  C_2
REMARK    2  A    between atoms: C_2  and  C_3
REMARK    3  A    between atoms: C_10  and  C_11
REMARK    4  A    between atoms: C_14  and  C_15
REMARK    5  A    between atoms: C_15  and  C_16
REMARK    6  A    between atoms: C_15  and  C_24
REMARK    7  A    between atoms: C_15  and  C_26
REMARK    8  A    between atoms: C_24  and  C_25
REMARK    9  A    between atoms: C_26  and  C_27
REMARK                            x       y       z     vdW  Elec       q    Type
REMARK                         _______ _______ _______ _____ _____    ______ ____
ROOT
ATOM      1  C   UNL     1       1.865   8.719  18.683  0.00  0.00    +0.000 A 
ATOM      2  C   UNL     1       2.049   9.813  17.932  0.00  0.00    +0.000 A 
ATOM      3  C   UNL     1       1.350  11.030  18.258  0.00  0.00    +0.000 A 
ATOM      4  C   UNL     1       0.483  11.118  19.289  0.00  0.00    +0.000 A 
ATOM      5  C   UNL     1       0.321   9.878  20.146  0.00  0.00    +0.000 A 
ATOM      6  O   UNL     1      -0.434   9.821  21.111  0.00  0.00    +0.000 OA
ATOM      7  N   UNL     1       1.040   8.774  19.772  0.00  0.00    +0.000 N 
ATOM      8  H   UNL     1       0.916   7.950  20.347  0.00  0.00    +0.000 HD
ENDROOT
BRANCH   1  16
ATOM      9  C   UNL     1       2.249   3.840  19.411  0.00  0.00    +0.000 A 
ATOM     10  C   UNL     1       2.885   2.625  19.101  0.00  0.00    +0.000 A 
ATOM     11  C   UNL     1       3.945   2.586  18.199  0.00  0.00    +0.000 A 
ATOM     12  C   UNL     1       4.375   3.758  17.582  0.00  0.00    +0.000 A 
ATOM     13  C   UNL     1       3.761   4.987  17.863  0.00  0.00    +0.000 A 
ATOM     14  C   UNL     1       4.190   6.157  17.216  0.00  0.00    +0.000 A 
ATOM     15  C   UNL     1       3.583   7.386  17.477  0.00  0.00    +0.000 A 
ATOM     16  C   UNL     1       2.541   7.458  18.399  0.00  0.00    +0.000 A 
ATOM     17  C   UNL     1       2.110   6.297  19.050  0.00  0.00    +0.000 A 
ATOM     18  C   UNL     1       2.691   5.039  18.794  0.00  0.00    +0.000 A 
BRANCH   9  20
ATOM     19  C   UNL     1       1.279   2.798  21.479  0.00  0.00    +0.000 C 
ATOM     20  C   UNL     1       1.055   3.790  20.345  0.00  0.00    +0.000 C 
ENDBRANCH   9  20
ENDBRANCH   1  16
BRANCH   4  21
ATOM     21  C   UNL     1      -0.434  12.330  19.591  0.00  0.00    +0.000 C 
BRANCH  21  22
ATOM     22  C   UNL     1      -1.911  11.944  19.369  0.00  0.00    +0.000 C 
ATOM     23  C   UNL     1      -2.462  11.489  18.229  0.00  0.00    +0.000 C 
ATOM     24  O   UNL     1      -1.775  11.332  17.035  0.00  0.00    +0.000 OA
ATOM     25  C   UNL     1      -2.760  10.911  16.171  0.00  0.00    +0.000 C 
ATOM     26  O   UNL     1      -2.567  10.709  14.981  0.00  0.00    +0.000 OA
ATOM     27  N   UNL     1      -3.955  10.773  16.783  0.00  0.00    +0.000 N 
ATOM     28  C   UNL     1      -3.882  11.142  18.077  0.00  0.00    +0.000 C 
ATOM     29  O   UNL     1      -4.772  11.211  18.895  0.00  0.00    +0.000 OA
ATOM     30  H   UNL     1      -4.800  10.512  16.307  0.00  0.00    +0.000 HD
ENDBRANCH  21  22
BRANCH  21  31
ATOM     31  C   UNL     1      -0.232  12.800  21.072  0.00  0.00    +0.000 C 
ATOM     32  C   UNL     1      -1.518  13.117  21.833  0.00  0.00    +0.000 C 
ENDBRANCH  21  31
BRANCH  21  33
ATOM     33  C   UNL     1      -0.136  13.533  18.623  0.00  0.00    +0.000 C 
ATOM     34  C   UNL     1       0.720  14.670  19.178  0.00  0.00    +0.000 C 
ENDBRANCH  21  33
ENDBRANCH   4  21
TORSDOF 6
ENDMDL
MODEL 9
REMARK VINA RESULT:      -9.1      1.346      2.003
REMARK  Name = 
REMARK  9 active torsions:
REMARK  status: ('A' for Active; 'I' for Inactive)
REMARK    1  A    between atoms: C_1  and  C_2
REMARK    2  A    between atoms: C_2  and  C_3
REMARK    3  A    between atoms: C_10  and  C_11
REMARK    4  A    between atoms: C_14  and  C_15
REMARK    5  A    between atoms: C_15  and  C_16
REMARK    6  A    between atoms: C_15  and  C_24
REMARK    7  A    between atoms: C_15  and  C_26
REMARK    8  A    between atoms: C_24  and  C_25
REMARK    9  A    between atoms: C_26  and  C_27
REMARK                            x       y       z     vdW  Elec       q    Type
REMARK                         _______ _______ _______ _____ _____    ______ ____
ROOT
ATOM      1  C   UNL     1       1.463   7.951  20.355  0.00  0.00    +0.000 A 
ATOM      2  C   UNL     1       2.009   8.072  19.138  0.00  0.00    +0.000 A 
ATOM      3  C   UNL     1       2.644   6.934  18.523  0.00  0.00    +0.000 A 
ATOM      4  C   UNL     1       2.738   5.733  19.135  0.00  0.00    +0.000 A 
ATOM      5  C   UNL     1       2.079   5.612  20.494  0.00  0.00    +0.000 A 
ATOM      6  O   UNL     1       2.091   4.581  21.159  0.00  0.00    +0.000 OA
ATOM      7  N   UNL     1       1.483   6.741  20.992  0.00  0.00    +0.000 N 
ATOM      8  H   UNL     1       1.054   6.649  21.905  0.00  0.00    +0.000 HD
ENDROOT
BRANCH   1  16
ATOM      9  C   UNL     1      -0.197  12.611  20.228  0.00  0.00    +0.000 A 
ATOM     10  C   UNL     1      -0.859  13.668  20.875  0.00  0.00    +0.000 A 
ATOM     11  C   UNL     1      -1.316  13.528  22.184  0.00  0.00    +0.000 A 
ATOM     12  C   UNL     1      -1.130  12.324  22.859  0.00  0.00    +0.000 A 
ATOM     13  C   UNL     1      -0.479  11.247  22.243  0.00  0.00    +0.000 A 
ATOM     14  C   UNL     1      -0.320  10.031  22.928  0.00  0.00    +0.000 A 
ATOM     15  C   UNL     1       0.317   8.945  22.325  0.00  0.00    +0.000 A 
ATOM     16  C   UNL     1       0.811   9.069  21.029  0.00  0.00    +0.000 A 
ATOM     17  C   UNL     1       0.660  10.278  20.341  0.00  0.00    +0.000 A 
ATOM     18  C   UNL     1       0.005  11.385  20.916  0.00  0.00    +0.000 A 
BRANCH   9  20
ATOM     19  C   UNL     1       1.308  13.855  18.651  0.00  0.00    +0.000 C 
ATOM     20  C   UNL     1       0.204  12.814  18.780  0.00  0.00    +0.000 C 
ENDBRANCH   9  20
ENDBRANCH   1  16
BRANCH   4  21
ATOM     21  C   UNL     1       3.556   4.523  18.617  0.00  0.00    +0.000 C 
BRANCH  21  22
ATOM     22  C   UNL     1       4.363   4.927  17.367  0.00  0.00    +0.000 C 
ATOM     23  C   UNL     1       5.567   5.528  17.343  0.00  0.00    +0.000 C 
ATOM     24  O   UNL     1       6.266   5.923  18.474  0.00  0.00    +0.000 OA
ATOM     25  C   UNL     1       7.381   6.530  17.943  0.00  0.00    +0.000 C 
ATOM     26  O   UNL     1       8.240   7.070  18.626  0.00  0.00    +0.000 OA
ATOM     27  N   UNL     1       7.401   6.479  16.595  0.00  0.00    +0.000 N 
ATOM     28  C   UNL     1       6.286   5.895  16.116  0.00  0.00    +0.000 C 
ATOM     29  O   UNL     1       5.943   5.748  14.964  0.00  0.00    +0.000 OA
ATOM     30  H   UNL     1       8.116   6.903  16.030  0.00  0.00    +0.000 HD
ENDBRANCH  21  22
BRANCH  21  31
ATOM     31  C   UNL     1       4.534   4.020  19.733  0.00  0.00    +0.000 C 
ATOM     32  C   UNL     1       4.500   2.516  19.997  0.00  0.00    +0.000 C 
ENDBRANCH  21  31
BRANCH  21  33
ATOM     33  C   UNL     1       2.618   3.338  18.181  0.00  0.00    +0.000 C 
ATOM     34  C   UNL     1       2.717   2.878  16.729  0.00  0.00    +0.000 C 
ENDBRANCH  21  33
ENDBRANCH   4  21
TORSDOF 6
ENDMDL
