MODEL 1
REMARK VINA RESULT:      -8.4      0.000      0.000
REMARK  Name = 
REMARK  9 active torsions:
REMARK  status: ('A' for Active; 'I' for Inactive)
REMARK    1  A    between atoms: C_1  and  C_2
REMARK    2  A    between atoms: C_4  and  C_5
REMARK    3  A    between atoms: C_6  and  N_7
REMARK    4  A    between atoms: C_8  and  C_10
REMARK    5  A    between atoms: C_10  and  S_11
REMARK    6  A    between atoms: S_11  and  C_12
REMARK    7  A    between atoms: N_14  and  C_15
REMARK    8  A    between atoms: C_15  and  C_16
REMARK    9  A    between atoms: C_30  and  C_31
REMARK                            x       y       z     vdW  Elec       q    Type
REMARK                         _______ _______ _______ _____ _____    ______ ____
ROOT
ATOM      1  C   UNL     1       2.173   6.247  19.476  0.00  0.00    +0.000 A 
ATOM      2  C   UNL     1       2.991   6.399  18.377  0.00  0.00    +0.000 A 
ATOM      3  N   UNL     1       3.217   5.162  17.822  0.00  0.00    +0.000 N 
ATOM      4  C   UNL     1       2.546   4.198  18.554  0.00  0.00    +0.000 A 
ATOM      5  C   UNL     1       2.465   2.804  18.378  0.00  0.00    +0.000 A 
ATOM      6  C   UNL     1       1.677   2.063  19.261  0.00  0.00    +0.000 A 
ATOM      7  C   UNL     1       0.973   2.690  20.282  0.00  0.00    +0.000 A 
ATOM      8  C   UNL     1       1.050   4.076  20.445  0.00  0.00    +0.000 A 
ATOM      9  C   UNL     1       1.861   4.858  19.590  0.00  0.00    +0.000 A 
ENDROOT
BRANCH   1  10
ATOM     10  S   UNL     1       1.594   7.611  20.419  0.00  0.00    +0.000 S 
BRANCH  10  11
ATOM     11  C   UNL     1       1.459   8.991  19.242  0.00  0.00    +0.000 C 
BRANCH  11  13
ATOM     12  N   UNL     1       0.774  10.759  20.779  0.00  0.00    +0.000 N 
ATOM     13  C   UNL     1       0.388   9.994  19.681  0.00  0.00    +0.000 C 
ATOM     14  O   UNL     1      -0.667  10.111  19.065  0.00  0.00    +0.000 OA
ATOM     15  H   UNL     1       1.429  10.266  21.374  0.00  0.00    +0.000 HD
BRANCH  12  21
ATOM     16  C   UNL     1      -2.695  14.389  23.565  0.00  0.00    +0.000 C 
ATOM     17  C   UNL     1      -1.794  13.442  22.831  0.00  0.00    +0.000 A 
ATOM     18  C   UNL     1      -1.604  12.133  23.278  0.00  0.00    +0.000 A 
ATOM     19  C   UNL     1      -0.749  11.249  22.595  0.00  0.00    +0.000 A 
ATOM     20  C   UNL     1      -0.629   9.836  23.107  0.00  0.00    +0.000 C 
ATOM     21  C   UNL     1      -0.083  11.681  21.430  0.00  0.00    +0.000 A 
ATOM     22  C   UNL     1      -0.226  13.015  20.996  0.00  0.00    +0.000 A 
ATOM     23  C   UNL     1       0.549  13.614  19.857  0.00  0.00    +0.000 C 
ATOM     24  C   UNL     1      -1.107  13.870  21.693  0.00  0.00    +0.000 A 
ENDBRANCH  12  21
ENDBRANCH  11  13
ENDBRANCH  10  11
ENDBRANCH   1  10
BRANCH   3  25
ATOM     25  C   UNL     1       4.110   4.920  16.682  0.00  0.00    +0.000 C 
BRANCH  25  26
ATOM     26  C   UNL     1       5.181   5.988  16.482  0.00  0.00    +0.000 C 
ATOM     27  O   UNL     1       5.161   6.757  15.519  0.00  0.00    +0.000 OA
ATOM     28  N   UNL     1       6.211   6.057  17.429  0.00  0.00    +0.000 N 
ATOM     29  C   UNL     1       6.403   5.114  18.541  0.00  0.00    +0.000 C 
ATOM     30  C   UNL     1       7.225   5.729  19.686  0.00  0.00    +0.000 C 
ATOM     31  O   UNL     1       8.455   6.282  19.205  0.00  0.00    +0.000 OA
ATOM     32  C   UNL     1       8.191   7.332  18.265  0.00  0.00    +0.000 C 
ATOM     33  C   UNL     1       7.424   6.800  17.053  0.00  0.00    +0.000 C 
ENDBRANCH  25  26
ENDBRANCH   3  25
TORSDOF 6
ENDMDL
MODEL 2
REMARK VINA RESULT:      -8.3      0.270      1.558
REMARK  Name = 
REMARK  9 active torsions:
REMARK  status: ('A' for Active; 'I' for Inactive)
REMARK    1  A    between atoms: C_1  and  C_2
REMARK    2  A    between atoms: C_4  and  C_5
REMARK    3  A    between atoms: C_6  and  N_7
REMARK    4  A    between atoms: C_8  and  C_10
REMARK    5  A    between atoms: C_10  and  S_11
REMARK    6  A    between atoms: S_11  and  C_12
REMARK    7  A    between atoms: N_14  and  C_15
REMARK    8  A    between atoms: C_15  and  C_16
REMARK    9  A    between atoms: C_30  and  C_31
REMARK                            x       y       z     vdW  Elec       q    Type
REMARK                         _______ _______ _______ _____ _____    ______ ____
ROOT
ATOM      1  C   UNL     1       2.162   6.281  19.600  0.00  0.00    +0.000 A 
ATOM      2  C   UNL     1       2.955   6.443  18.484  0.00  0.00    +0.000 A 
ATOM      3  N   UNL     1       3.202   5.207  17.937  0.00  0.00    +0.000 N 
ATOM      4  C   UNL     1       2.570   4.233  18.691  0.00  0.00    +0.000 A 
ATOM      5  C   UNL     1       2.522   2.836  18.530  0.00  0.00    +0.000 A 
ATOM      6  C   UNL     1       1.770   2.084  19.435  0.00  0.00    +0.000 A 
ATOM      7  C   UNL     1       1.070   2.703  20.463  0.00  0.00    +0.000 A 
ATOM      8  C   UNL     1       1.113   4.092  20.611  0.00  0.00    +0.000 A 
ATOM      9  C   UNL     1       1.888   4.886  19.733  0.00  0.00    +0.000 A 
ENDROOT
BRANCH   1  10
ATOM     10  S   UNL     1       1.565   7.639  20.540  0.00  0.00    +0.000 S 
BRANCH  10  11
ATOM     11  C   UNL     1       1.415   9.016  19.361  0.00  0.00    +0.000 C 
BRANCH  11  13
ATOM     12  N   UNL     1       0.839  10.933  20.757  0.00  0.00    +0.000 N 
ATOM     13  C   UNL     1       0.358  10.026  19.816  0.00  0.00    +0.000 C 
ATOM     14  O   UNL     1      -0.771  10.028  19.335  0.00  0.00    +0.000 OA
ATOM     15  H   UNL     1       1.589  10.542  21.313  0.00  0.00    +0.000 HD
BRANCH  12  21
ATOM     16  C   UNL     1      -2.460  14.941  23.212  0.00  0.00    +0.000 C 
ATOM     17  C   UNL     1      -1.595  13.894  22.578  0.00  0.00    +0.000 A 
ATOM     18  C   UNL     1      -0.862  14.166  21.421  0.00  0.00    +0.000 A 
ATOM     19  C   UNL     1      -0.059  13.180  20.820  0.00  0.00    +0.000 A 
ATOM     20  C   UNL     1       0.742  13.559  19.601  0.00  0.00    +0.000 C 
ATOM     21  C   UNL     1       0.024  11.897  21.401  0.00  0.00    +0.000 A 
ATOM     22  C   UNL     1      -0.749  11.593  22.540  0.00  0.00    +0.000 A 
ATOM     23  C   UNL     1      -0.844  10.223  23.147  0.00  0.00    +0.000 C 
ATOM     24  C   UNL     1      -1.528  12.612  23.129  0.00  0.00    +0.000 A 
ENDBRANCH  12  21
ENDBRANCH  11  13
ENDBRANCH  10  11
ENDBRANCH   1  10
BRANCH   3  25
ATOM     25  C   UNL     1       4.079   4.976  16.783  0.00  0.00    +0.000 C 
BRANCH  25  26
ATOM     26  C   UNL     1       5.131   6.059  16.563  0.00  0.00    +0.000 C 
ATOM     27  O   UNL     1       5.070   6.843  15.615  0.00  0.00    +0.000 OA
ATOM     28  N   UNL     1       6.193   6.123  17.475  0.00  0.00    +0.000 N 
ATOM     29  C   UNL     1       6.434   5.165  18.563  0.00  0.00    +0.000 C 
ATOM     30  C   UNL     1       7.289   5.770  19.689  0.00  0.00    +0.000 C 
ATOM     31  O   UNL     1       8.496   6.344  19.175  0.00  0.00    +0.000 OA
ATOM     32  C   UNL     1       8.188   7.406  18.262  0.00  0.00    +0.000 C 
ATOM     33  C   UNL     1       7.384   6.886  17.069  0.00  0.00    +0.000 C 
ENDBRANCH  25  26
ENDBRANCH   3  25
TORSDOF 6
ENDMDL
MODEL 3
REMARK VINA RESULT:      -8.1      2.873      9.360
REMARK  Name = 
REMARK  9 active torsions:
REMARK  status: ('A' for Active; 'I' for Inactive)
REMARK    1  A    between atoms: C_1  and  C_2
REMARK    2  A    between atoms: C_4  and  C_5
REMARK    3  A    between atoms: C_6  and  N_7
REMARK    4  A    between atoms: C_8  and  C_10
REMARK    5  A    between atoms: C_10  and  S_11
REMARK    6  A    between atoms: S_11  and  C_12
REMARK    7  A    between atoms: N_14  and  C_15
REMARK    8  A    between atoms: C_15  and  C_16
REMARK    9  A    between atoms: C_30  and  C_31
REMARK                            x       y       z     vdW  Elec       q    Type
REMARK                         _______ _______ _______ _____ _____    ______ ____
ROOT
ATOM      1  C   UNL     1       5.288   5.510  19.209  0.00  0.00    +0.000 A 
ATOM      2  C   UNL     1       4.538   6.652  19.029  0.00  0.00    +0.000 A 
ATOM      3  N   UNL     1       3.213   6.298  18.940  0.00  0.00    +0.000 N 
ATOM      4  C   UNL     1       3.091   4.925  19.065  0.00  0.00    +0.000 A 
ATOM      5  C   UNL     1       1.951   4.100  19.047  0.00  0.00    +0.000 A 
ATOM      6  C   UNL     1       2.119   2.726  19.230  0.00  0.00    +0.000 A 
ATOM      7  C   UNL     1       3.381   2.186  19.443  0.00  0.00    +0.000 A 
ATOM      8  C   UNL     1       4.508   3.012  19.469  0.00  0.00    +0.000 A 
ATOM      9  C   UNL     1       4.383   4.406  19.258  0.00  0.00    +0.000 A 
ENDROOT
BRANCH   1  10
ATOM     10  S   UNL     1       7.029   5.549  19.440  0.00  0.00    +0.000 S 
BRANCH  10  11
ATOM     11  C   UNL     1       7.709   6.201  17.883  0.00  0.00    +0.000 C 
BRANCH  11  13
ATOM     12  N   UNL     1       6.966   5.683  15.617  0.00  0.00    +0.000 N 
ATOM     13  C   UNL     1       7.592   5.175  16.752  0.00  0.00    +0.000 C 
ATOM     14  O   UNL     1       8.063   4.047  16.864  0.00  0.00    +0.000 OA
ATOM     15  H   UNL     1       6.310   6.420  15.843  0.00  0.00    +0.000 HD
BRANCH  12  21
ATOM     16  C   UNL     1       5.521   2.487  11.071  0.00  0.00    +0.000 C 
ATOM     17  C   UNL     1       5.905   3.317  12.258  0.00  0.00    +0.000 A 
ATOM     18  C   UNL     1       5.114   3.343  13.408  0.00  0.00    +0.000 A 
ATOM     19  C   UNL     1       5.469   4.132  14.518  0.00  0.00    +0.000 A 
ATOM     20  C   UNL     1       4.593   4.074  15.743  0.00  0.00    +0.000 C 
ATOM     21  C   UNL     1       6.653   4.898  14.480  0.00  0.00    +0.000 A 
ATOM     22  C   UNL     1       7.434   4.921  13.307  0.00  0.00    +0.000 A 
ATOM     23  C   UNL     1       8.628   5.811  13.112  0.00  0.00    +0.000 C 
ATOM     24  C   UNL     1       7.060   4.103  12.220  0.00  0.00    +0.000 A 
ENDBRANCH  12  21
ENDBRANCH  11  13
ENDBRANCH  10  11
ENDBRANCH   1  10
BRANCH   3  25
ATOM     25  C   UNL     1       2.123   7.244  18.666  0.00  0.00    +0.000 C 
BRANCH  25  26
ATOM     26  C   UNL     1       1.565   7.940  19.903  0.00  0.00    +0.000 C 
ATOM     27  O   UNL     1       1.428   7.350  20.976  0.00  0.00    +0.000 OA
ATOM     28  N   UNL     1       1.192   9.285  19.776  0.00  0.00    +0.000 N 
ATOM     29  C   UNL     1       1.194  10.048  18.520  0.00  0.00    +0.000 C 
ATOM     30  C   UNL     1       1.282  11.564  18.763  0.00  0.00    +0.000 C 
ATOM     31  O   UNL     1       0.276  12.004  19.682  0.00  0.00    +0.000 OA
ATOM     32  C   UNL     1       0.451  11.361  20.952  0.00  0.00    +0.000 C 
ATOM     33  C   UNL     1       0.319   9.843  20.820  0.00  0.00    +0.000 C 
ENDBRANCH  25  26
ENDBRANCH   3  25
TORSDOF 6
ENDMDL
MODEL 4
REMARK VINA RESULT:      -8.1      1.141      1.756
REMARK  Name = 
REMARK  9 active torsions:
REMARK  status: ('A' for Active; 'I' for Inactive)
REMARK    1  A    between atoms: C_1  and  C_2
REMARK    2  A    between atoms: C_4  and  C_5
REMARK    3  A    between atoms: C_6  and  N_7
REMARK    4  A    between atoms: C_8  and  C_10
REMARK    5  A    between atoms: C_10  and  S_11
REMARK    6  A    between atoms: S_11  and  C_12
REMARK    7  A    between atoms: N_14  and  C_15
REMARK    8  A    between atoms: C_15  and  C_16
REMARK    9  A    between atoms: C_30  and  C_31
REMARK                            x       y       z     vdW  Elec       q    Type
REMARK                         _______ _______ _______ _____ _____    ______ ____
ROOT
ATOM      1  C   UNL     1       2.155   6.347  19.532  0.00  0.00    +0.000 A 
ATOM      2  C   UNL     1       2.956   6.488  18.419  0.00  0.00    +0.000 A 
ATOM      3  N   UNL     1       3.187   5.244  17.883  0.00  0.00    +0.000 N 
ATOM      4  C   UNL     1       2.536   4.286  18.641  0.00  0.00    +0.000 A 
ATOM      5  C   UNL     1       2.467   2.888  18.490  0.00  0.00    +0.000 A 
ATOM      6  C   UNL     1       1.699   2.155  19.398  0.00  0.00    +0.000 A 
ATOM      7  C   UNL     1       1.002   2.793  20.417  0.00  0.00    +0.000 A 
ATOM      8  C   UNL     1       1.067   4.183  20.554  0.00  0.00    +0.000 A 
ATOM      9  C   UNL     1       1.858   4.957  19.674  0.00  0.00    +0.000 A 
ENDROOT
BRANCH   1  10
ATOM     10  S   UNL     1       1.574   7.722  20.458  0.00  0.00    +0.000 S 
BRANCH  10  11
ATOM     11  C   UNL     1       1.355   9.063  19.249  0.00  0.00    +0.000 C 
BRANCH  11  13
ATOM     12  N   UNL     1      -0.558  10.215  20.233  0.00  0.00    +0.000 N 
ATOM     13  C   UNL     1       0.793  10.324  19.913  0.00  0.00    +0.000 C 
ATOM     14  O   UNL     1       1.511  11.288  20.162  0.00  0.00    +0.000 OA
ATOM     15  H   UNL     1      -1.046   9.583  19.612  0.00  0.00    +0.000 HD
BRANCH  12  21
ATOM     16  C   UNL     1      -3.753  14.559  22.209  0.00  0.00    +0.000 C 
ATOM     17  C   UNL     1      -2.912  13.428  21.697  0.00  0.00    +0.000 A 
ATOM     18  C   UNL     1      -2.804  13.170  20.329  0.00  0.00    +0.000 A 
ATOM     19  C   UNL     1      -2.025  12.101  19.850  0.00  0.00    +0.000 A 
ATOM     20  C   UNL     1      -1.916  11.912  18.358  0.00  0.00    +0.000 C 
ATOM     21  C   UNL     1      -1.324  11.284  20.761  0.00  0.00    +0.000 A 
ATOM     22  C   UNL     1      -1.464  11.502  22.147  0.00  0.00    +0.000 A 
ATOM     23  C   UNL     1      -0.880  10.604  23.200  0.00  0.00    +0.000 C 
ATOM     24  C   UNL     1      -2.238  12.595  22.593  0.00  0.00    +0.000 A 
ENDBRANCH  12  21
ENDBRANCH  11  13
ENDBRANCH  10  11
ENDBRANCH   1  10
BRANCH   3  25
ATOM     25  C   UNL     1       4.067   4.990  16.736  0.00  0.00    +0.000 C 
BRANCH  25  26
ATOM     26  C   UNL     1       5.151   6.044  16.527  0.00  0.00    +0.000 C 
ATOM     27  O   UNL     1       5.129   6.818  15.568  0.00  0.00    +0.000 OA
ATOM     28  N   UNL     1       6.194   6.093  17.460  0.00  0.00    +0.000 N 
ATOM     29  C   UNL     1       6.387   5.142  18.564  0.00  0.00    +0.000 C 
ATOM     30  C   UNL     1       7.234   5.738  19.701  0.00  0.00    +0.000 C 
ATOM     31  O   UNL     1       8.465   6.276  19.207  0.00  0.00    +0.000 OA
ATOM     32  C   UNL     1       8.203   7.335  18.275  0.00  0.00    +0.000 C 
ATOM     33  C   UNL     1       7.412   6.821  17.071  0.00  0.00    +0.000 C 
ENDBRANCH  25  26
ENDBRANCH   3  25
TORSDOF 6
ENDMDL
MODEL 5
REMARK VINA RESULT:      -8.0      3.250      5.821
REMARK  Name = 
REMARK  9 active torsions:
REMARK  status: ('A' for Active; 'I' for Inactive)
REMARK    1  A    between atoms: C_1  and  C_2
REMARK    2  A    between atoms: C_4  and  C_5
REMARK    3  A    between atoms: C_6  and  N_7
REMARK    4  A    between atoms: C_8  and  C_10
REMARK    5  A    between atoms: C_10  and  S_11
REMARK    6  A    between atoms: S_11  and  C_12
REMARK    7  A    between atoms: N_14  and  C_15
REMARK    8  A    between atoms: C_15  and  C_16
REMARK    9  A    between atoms: C_30  and  C_31
REMARK                            x       y       z     vdW  Elec       q    Type
REMARK                         _______ _______ _______ _____ _____    ______ ____
ROOT
ATOM      1  C   UNL     1       4.723   3.920  17.773  0.00  0.00    +0.000 A 
ATOM      2  C   UNL     1       4.586   4.041  16.407  0.00  0.00    +0.000 A 
ATOM      3  N   UNL     1       5.505   4.955  15.951  0.00  0.00    +0.000 N 
ATOM      4  C   UNL     1       6.248   5.434  17.017  0.00  0.00    +0.000 A 
ATOM      5  C   UNL     1       7.300   6.369  17.056  0.00  0.00    +0.000 A 
ATOM      6  C   UNL     1       7.901   6.647  18.285  0.00  0.00    +0.000 A 
ATOM      7  C   UNL     1       7.483   6.003  19.443  0.00  0.00    +0.000 A 
ATOM      8  C   UNL     1       6.445   5.068  19.395  0.00  0.00    +0.000 A 
ATOM      9  C   UNL     1       5.790   4.780  18.175  0.00  0.00    +0.000 A 
ENDROOT
BRANCH   1  10
ATOM     10  S   UNL     1       3.772   2.790  18.722  0.00  0.00    +0.000 S 
BRANCH  10  11
ATOM     11  C   UNL     1       2.897   3.805  19.952  0.00  0.00    +0.000 C 
BRANCH  11  13
ATOM     12  N   UNL     1       2.705   6.235  19.824  0.00  0.00    +0.000 N 
ATOM     13  C   UNL     1       2.245   5.029  19.301  0.00  0.00    +0.000 C 
ATOM     14  O   UNL     1       1.442   4.910  18.380  0.00  0.00    +0.000 OA
ATOM     15  H   UNL     1       3.004   6.142  20.786  0.00  0.00    +0.000 HD
BRANCH  12  21
ATOM     16  C   UNL     1       0.531  11.384  18.507  0.00  0.00    +0.000 C 
ATOM     17  C   UNL     1       1.096  10.037  18.844  0.00  0.00    +0.000 A 
ATOM     18  C   UNL     1       0.798   9.412  20.056  0.00  0.00    +0.000 A 
ATOM     19  C   UNL     1       1.337   8.153  20.377  0.00  0.00    +0.000 A 
ATOM     20  C   UNL     1       0.934   7.517  21.683  0.00  0.00    +0.000 C 
ATOM     21  C   UNL     1       2.179   7.498  19.455  0.00  0.00    +0.000 A 
ATOM     22  C   UNL     1       2.528   8.139  18.248  0.00  0.00    +0.000 A 
ATOM     23  C   UNL     1       3.528   7.594  17.268  0.00  0.00    +0.000 C 
ATOM     24  C   UNL     1       1.954   9.393  17.950  0.00  0.00    +0.000 A 
ENDBRANCH  12  21
ENDBRANCH  11  13
ENDBRANCH  10  11
ENDBRANCH   1  10
BRANCH   3  25
ATOM     25  C   UNL     1       5.602   5.404  14.557  0.00  0.00    +0.000 C 
BRANCH  25  26
ATOM     26  C   UNL     1       6.791   4.831  13.791  0.00  0.00    +0.000 C 
ATOM     27  O   UNL     1       7.945   5.206  14.006  0.00  0.00    +0.000 OA
ATOM     28  N   UNL     1       6.526   3.866  12.810  0.00  0.00    +0.000 N 
ATOM     29  C   UNL     1       5.185   3.439  12.385  0.00  0.00    +0.000 C 
ATOM     30  C   UNL     1       5.200   2.042  11.743  0.00  0.00    +0.000 C 
ATOM     31  O   UNL     1       6.170   1.960  10.694  0.00  0.00    +0.000 OA
ATOM     32  C   UNL     1       7.484   2.197  11.217  0.00  0.00    +0.000 C 
ATOM     33  C   UNL     1       7.586   3.597  11.826  0.00  0.00    +0.000 C 
ENDBRANCH  25  26
ENDBRANCH   3  25
TORSDOF 6
ENDMDL
MODEL 6
REMARK VINA RESULT:      -7.9      1.621      1.952
REMARK  Name = 
REMARK  9 active torsions:
REMARK  status: ('A' for Active; 'I' for Inactive)
REMARK    1  A    between atoms: C_1  and  C_2
REMARK    2  A    between atoms: C_4  and  C_5
REMARK    3  A    between atoms: C_6  and  N_7
REMARK    4  A    between atoms: C_8  and  C_10
REMARK    5  A    between atoms: C_10  and  S_11
REMARK    6  A    between atoms: S_11  and  C_12
REMARK    7  A    between atoms: N_14  and  C_15
REMARK    8  A    between atoms: C_15  and  C_16
REMARK    9  A    between atoms: C_30  and  C_31
REMARK                            x       y       z     vdW  Elec       q    Type
REMARK                         _______ _______ _______ _____ _____    ______ ____
ROOT
ATOM      1  C   UNL     1       2.270   6.085  19.619  0.00  0.00    +0.000 A 
ATOM      2  C   UNL     1       3.133   6.322  18.571  0.00  0.00    +0.000 A 
ATOM      3  N   UNL     1       3.243   5.174  17.823  0.00  0.00    +0.000 N 
ATOM      4  C   UNL     1       2.451   4.184  18.377  0.00  0.00    +0.000 A 
ATOM      5  C   UNL     1       2.227   2.854  17.973  0.00  0.00    +0.000 A 
ATOM      6  C   UNL     1       1.338   2.072  18.713  0.00  0.00    +0.000 A 
ATOM      7  C   UNL     1       0.674   2.598  19.814  0.00  0.00    +0.000 A 
ATOM      8  C   UNL     1       0.893   3.923  20.204  0.00  0.00    +0.000 A 
ATOM      9  C   UNL     1       1.808   4.739  19.498  0.00  0.00    +0.000 A 
ENDROOT
BRANCH   1  10
ATOM     10  S   UNL     1       1.811   7.334  20.765  0.00  0.00    +0.000 S 
BRANCH  10  11
ATOM     11  C   UNL     1       1.435   8.801  19.759  0.00  0.00    +0.000 C 
BRANCH  11  13
ATOM     12  N   UNL     1      -0.222  10.562  19.425  0.00  0.00    +0.000 N 
ATOM     13  C   UNL     1       0.122   9.456  20.198  0.00  0.00    +0.000 C 
ATOM     14  O   UNL     1      -0.550   8.987  21.112  0.00  0.00    +0.000 OA
ATOM     15  H   UNL     1       0.592  11.025  19.041  0.00  0.00    +0.000 HD
BRANCH  12  21
ATOM     16  C   UNL     1      -4.847  13.810  20.443  0.00  0.00    +0.000 C 
ATOM     17  C   UNL     1      -3.635  12.969  20.176  0.00  0.00    +0.000 A 
ATOM     18  C   UNL     1      -3.621  12.029  19.143  0.00  0.00    +0.000 A 
ATOM     19  C   UNL     1      -2.487  11.232  18.901  0.00  0.00    +0.000 A 
ATOM     20  C   UNL     1      -2.526  10.273  17.739  0.00  0.00    +0.000 C 
ATOM     21  C   UNL     1      -1.337  11.393  19.701  0.00  0.00    +0.000 A 
ATOM     22  C   UNL     1      -1.354  12.301  20.778  0.00  0.00    +0.000 A 
ATOM     23  C   UNL     1      -0.239  12.442  21.774  0.00  0.00    +0.000 C 
ATOM     24  C   UNL     1      -2.501  13.099  20.981  0.00  0.00    +0.000 A 
ENDBRANCH  12  21
ENDBRANCH  11  13
ENDBRANCH  10  11
ENDBRANCH   1  10
BRANCH   3  25
ATOM     25  C   UNL     1       4.139   5.023  16.670  0.00  0.00    +0.000 C 
BRANCH  25  26
ATOM     26  C   UNL     1       5.164   6.143  16.517  0.00  0.00    +0.000 C 
ATOM     27  O   UNL     1       5.081   6.982  15.618  0.00  0.00    +0.000 OA
ATOM     28  N   UNL     1       6.226   6.178  17.430  0.00  0.00    +0.000 N 
ATOM     29  C   UNL     1       6.492   5.162  18.458  0.00  0.00    +0.000 C 
ATOM     30  C   UNL     1       7.334   5.718  19.618  0.00  0.00    +0.000 C 
ATOM     31  O   UNL     1       8.525   6.352  19.140  0.00  0.00    +0.000 OA
ATOM     32  C   UNL     1       8.189   7.460  18.293  0.00  0.00    +0.000 C 
ATOM     33  C   UNL     1       7.396   6.994  17.071  0.00  0.00    +0.000 C 
ENDBRANCH  25  26
ENDBRANCH   3  25
TORSDOF 6
ENDMDL
MODEL 7
REMARK VINA RESULT:      -7.9      3.280      5.963
REMARK  Name = 
REMARK  9 active torsions:
REMARK  status: ('A' for Active; 'I' for Inactive)
REMARK    1  A    between atoms: C_1  and  C_2
REMARK    2  A    between atoms: C_4  and  C_5
REMARK    3  A    between atoms: C_6  and  N_7
REMARK    4  A    between atoms: C_8  and  C_10
REMARK    5  A    between atoms: C_10  and  S_11
REMARK    6  A    between atoms: S_11  and  C_12
REMARK    7  A    between atoms: N_14  and  C_15
REMARK    8  A    between atoms: C_15  and  C_16
REMARK    9  A    between atoms: C_30  and  C_31
REMARK                            x       y       z     vdW  Elec       q    Type
REMARK                         _______ _______ _______ _____ _____    ______ ____
ROOT
ATOM      1  C   UNL     1       4.718   3.921  17.815  0.00  0.00    +0.000 A 
ATOM      2  C   UNL     1       4.561   4.009  16.448  0.00  0.00    +0.000 A 
ATOM      3  N   UNL     1       5.476   4.909  15.957  0.00  0.00    +0.000 N 
ATOM      4  C   UNL     1       6.235   5.412  16.999  0.00  0.00    +0.000 A 
ATOM      5  C   UNL     1       7.290   6.344  16.999  0.00  0.00    +0.000 A 
ATOM      6  C   UNL     1       7.909   6.652  18.212  0.00  0.00    +0.000 A 
ATOM      7  C   UNL     1       7.507   6.037  19.391  0.00  0.00    +0.000 A 
ATOM      8  C   UNL     1       6.466   5.104  19.383  0.00  0.00    +0.000 A 
ATOM      9  C   UNL     1       5.793   4.788  18.179  0.00  0.00    +0.000 A 
ENDROOT
BRANCH   1  10
ATOM     10  S   UNL     1       3.778   2.817  18.805  0.00  0.00    +0.000 S 
BRANCH  10  11
ATOM     11  C   UNL     1       3.037   3.847  20.109  0.00  0.00    +0.000 C 
BRANCH  11  13
ATOM     12  N   UNL     1       2.793   6.268  19.930  0.00  0.00    +0.000 N 
ATOM     13  C   UNL     1       2.284   5.041  19.514  0.00  0.00    +0.000 C 
ATOM     14  O   UNL     1       1.364   4.882  18.717  0.00  0.00    +0.000 OA
ATOM     15  H   UNL     1       3.221   6.212  20.845  0.00  0.00    +0.000 HD
BRANCH  12  21
ATOM     16  C   UNL     1       0.441  11.278  18.397  0.00  0.00    +0.000 C 
ATOM     17  C   UNL     1       1.058   9.974  18.803  0.00  0.00    +0.000 A 
ATOM     18  C   UNL     1       1.935   9.294  17.956  0.00  0.00    +0.000 A 
ATOM     19  C   UNL     1       2.504   8.064  18.333  0.00  0.00    +0.000 A 
ATOM     20  C   UNL     1       3.479   7.410  17.387  0.00  0.00    +0.000 C 
ATOM     21  C   UNL     1       2.202   7.513  19.595  0.00  0.00    +0.000 A 
ATOM     22  C   UNL     1       1.280   8.163  20.441  0.00  0.00    +0.000 A 
ATOM     23  C   UNL     1       0.781   7.590  21.736  0.00  0.00    +0.000 C 
ATOM     24  C   UNL     1       0.743   9.405  20.039  0.00  0.00    +0.000 A 
ENDBRANCH  12  21
ENDBRANCH  11  13
ENDBRANCH  10  11
ENDBRANCH   1  10
BRANCH   3  25
ATOM     25  C   UNL     1       5.553   5.322  14.550  0.00  0.00    +0.000 C 
BRANCH  25  26
ATOM     26  C   UNL     1       6.755   4.764  13.794  0.00  0.00    +0.000 C 
ATOM     27  O   UNL     1       7.904   5.142  14.029  0.00  0.00    +0.000 OA
ATOM     28  N   UNL     1       6.507   3.810  12.798  0.00  0.00    +0.000 N 
ATOM     29  C   UNL     1       5.174   3.383  12.349  0.00  0.00    +0.000 C 
ATOM     30  C   UNL     1       5.203   1.993  11.690  0.00  0.00    +0.000 C 
ATOM     31  O   UNL     1       6.188   1.929  10.653  0.00  0.00    +0.000 OA
ATOM     32  C   UNL     1       7.494   2.165  11.197  0.00  0.00    +0.000 C 
ATOM     33  C   UNL     1       7.581   3.558  11.825  0.00  0.00    +0.000 C 
ENDBRANCH  25  26
ENDBRANCH   3  25
TORSDOF 6
ENDMDL
MODEL 8
REMARK VINA RESULT:      -7.9      1.765      2.455
REMARK  Name = 
REMARK  9 active torsions:
REMARK  status: ('A' for Active; 'I' for Inactive)
REMARK    1  A    between atoms: C_1  and  C_2
REMARK    2  A    between atoms: C_4  and  C_5
REMARK    3  A    between atoms: C_6  and  N_7
REMARK    4  A    between atoms: C_8  and  C_10
REMARK    5  A    between atoms: C_10  and  S_11
REMARK    6  A    between atoms: S_11  and  C_12
REMARK    7  A    between atoms: N_14  and  C_15
REMARK    8  A    between atoms: C_15  and  C_16
REMARK    9  A    between atoms: C_30  and  C_31
REMARK                            x       y       z     vdW  Elec       q    Type
REMARK                         _______ _______ _______ _____ _____    ______ ____
ROOT
ATOM      1  C   UNL     1       2.192   6.413  19.465  0.00  0.00    +0.000 A 
ATOM      2  C   UNL     1       3.000   6.500  18.352  0.00  0.00    +0.000 A 
ATOM      3  N   UNL     1       3.240   5.230  17.882  0.00  0.00    +0.000 N 
ATOM      4  C   UNL     1       2.589   4.310  18.685  0.00  0.00    +0.000 A 
ATOM      5  C   UNL     1       2.527   2.906  18.606  0.00  0.00    +0.000 A 
ATOM      6  C   UNL     1       1.757   2.217  19.545  0.00  0.00    +0.000 A 
ATOM      7  C   UNL     1       1.051   2.903  20.526  0.00  0.00    +0.000 A 
ATOM      8  C   UNL     1       1.108   4.299  20.592  0.00  0.00    +0.000 A 
ATOM      9  C   UNL     1       1.901   5.030  19.677  0.00  0.00    +0.000 A 
ENDROOT
BRANCH   1  10
ATOM     10  S   UNL     1       1.599   7.830  20.315  0.00  0.00    +0.000 S 
BRANCH  10  11
ATOM     11  C   UNL     1       1.154   9.023  19.017  0.00  0.00    +0.000 C 
BRANCH  11  13
ATOM     12  N   UNL     1       0.593  11.368  18.635  0.00  0.00    +0.000 N 
ATOM     13  C   UNL     1       0.887  10.412  19.604  0.00  0.00    +0.000 C 
ATOM     14  O   UNL     1       0.894  10.604  20.817  0.00  0.00    +0.000 OA
ATOM     15  H   UNL     1       1.029  11.154  17.747  0.00  0.00    +0.000 HD
BRANCH  12  21
ATOM     16  C   UNL     1       0.000  16.979  19.699  0.00  0.00    +0.000 C 
ATOM     17  C   UNL     1       0.153  15.513  19.429  0.00  0.00    +0.000 A 
ATOM     18  C   UNL     1       1.352  14.989  18.941  0.00  0.00    +0.000 A 
ATOM     19  C   UNL     1       1.491  13.615  18.677  0.00  0.00    +0.000 A 
ATOM     20  C   UNL     1       2.829  13.113  18.197  0.00  0.00    +0.000 C 
ATOM     21  C   UNL     1       0.410  12.743  18.923  0.00  0.00    +0.000 A 
ATOM     22  C   UNL     1      -0.822  13.265  19.368  0.00  0.00    +0.000 A 
ATOM     23  C   UNL     1      -2.073  12.446  19.521  0.00  0.00    +0.000 C 
ATOM     24  C   UNL     1      -0.921  14.646  19.642  0.00  0.00    +0.000 A 
ENDBRANCH  12  21
ENDBRANCH  11  13
ENDBRANCH  10  11
ENDBRANCH   1  10
BRANCH   3  25
ATOM     25  C   UNL     1       4.128   4.922  16.755  0.00  0.00    +0.000 C 
BRANCH  25  26
ATOM     26  C   UNL     1       5.197   5.978  16.487  0.00  0.00    +0.000 C 
ATOM     27  O   UNL     1       5.165   6.696  15.486  0.00  0.00    +0.000 OA
ATOM     28  N   UNL     1       6.239   6.094  17.416  0.00  0.00    +0.000 N 
ATOM     29  C   UNL     1       6.445   5.210  18.571  0.00  0.00    +0.000 C 
ATOM     30  C   UNL     1       7.282   5.882  19.673  0.00  0.00    +0.000 C 
ATOM     31  O   UNL     1       8.506   6.408  19.149  0.00  0.00    +0.000 OA
ATOM     32  C   UNL     1       8.229   7.409  18.160  0.00  0.00    +0.000 C 
ATOM     33  C   UNL     1       7.447   6.817  16.986  0.00  0.00    +0.000 C 
ENDBRANCH  25  26
ENDBRANCH   3  25
TORSDOF 6
ENDMDL
MODEL 9
REMARK VINA RESULT:      -7.8      1.982      2.937
REMARK  Name = 
REMARK  9 active torsions:
REMARK  status: ('A' for Active; 'I' for Inactive)
REMARK    1  A    between atoms: C_1  and  C_2
REMARK    2  A    between atoms: C_4  and  C_5
REMARK    3  A    between atoms: C_6  and  N_7
REMARK    4  A    between atoms: C_8  and  C_10
REMARK    5  A    between atoms: C_10  and  S_11
REMARK    6  A    between atoms: S_11  and  C_12
REMARK    7  A    between atoms: N_14  and  C_15
REMARK    8  A    between atoms: C_15  and  C_16
REMARK    9  A    between atoms: C_30  and  C_31
REMARK                            x       y       z     vdW  Elec       q    Type
REMARK                         _______ _______ _______ _____ _____    ______ ____
ROOT
ATOM      1  C   UNL     1       2.791   6.359  19.458  0.00  0.00    +0.000 A 
ATOM      2  C   UNL     1       4.129   6.172  19.182  0.00  0.00    +0.000 A 
ATOM      3  N   UNL     1       4.442   4.851  19.393  0.00  0.00    +0.000 N 
ATOM      4  C   UNL     1       3.310   4.168  19.805  0.00  0.00    +0.000 A 
ATOM      5  C   UNL     1       3.126   2.812  20.132  0.00  0.00    +0.000 A 
ATOM      6  C   UNL     1       1.848   2.379  20.492  0.00  0.00    +0.000 A 
ATOM      7  C   UNL     1       0.777   3.264  20.510  0.00  0.00    +0.000 A 
ATOM      8  C   UNL     1       0.965   4.608  20.173  0.00  0.00    +0.000 A 
ATOM      9  C   UNL     1       2.250   5.091  19.833  0.00  0.00    +0.000 A 
ENDROOT
BRANCH   1  10
ATOM     10  S   UNL     1       1.988   7.905  19.239  0.00  0.00    +0.000 S 
BRANCH  10  11
ATOM     11  C   UNL     1       1.573   8.477  20.915  0.00  0.00    +0.000 C 
BRANCH  11  13
ATOM     12  N   UNL     1       0.080  10.300  20.282  0.00  0.00    +0.000 N 
ATOM     13  C   UNL     1       0.170   9.089  20.963  0.00  0.00    +0.000 C 
ATOM     14  O   UNL     1      -0.761   8.509  21.514  0.00  0.00    +0.000 OA
ATOM     15  H   UNL     1       0.962  10.796  20.271  0.00  0.00    +0.000 HD
BRANCH  12  21
ATOM     16  C   UNL     1      -4.708  13.465  20.086  0.00  0.00    +0.000 C 
ATOM     17  C   UNL     1      -3.454  12.645  20.139  0.00  0.00    +0.000 A 
ATOM     18  C   UNL     1      -3.052  11.869  19.050  0.00  0.00    +0.000 A 
ATOM     19  C   UNL     1      -1.881  11.092  19.104  0.00  0.00    +0.000 A 
ATOM     20  C   UNL     1      -1.483  10.317  17.874  0.00  0.00    +0.000 C 
ATOM     21  C   UNL     1      -1.087  11.105  20.269  0.00  0.00    +0.000 A 
ATOM     22  C   UNL     1      -1.507  11.844  21.394  0.00  0.00    +0.000 A 
ATOM     23  C   UNL     1      -0.814  11.810  22.726  0.00  0.00    +0.000 C 
ATOM     24  C   UNL     1      -2.676  12.629  21.299  0.00  0.00    +0.000 A 
ENDBRANCH  12  21
ENDBRANCH  11  13
ENDBRANCH  10  11
ENDBRANCH   1  10
BRANCH   3  25
ATOM     25  C   UNL     1       5.796   4.295  19.278  0.00  0.00    +0.000 C 
BRANCH  25  26
ATOM     26  C   UNL     1       6.675   4.986  18.240  0.00  0.00    +0.000 C 
ATOM     27  O   UNL     1       7.587   5.749  18.565  0.00  0.00    +0.000 OA
ATOM     28  N   UNL     1       6.399   4.739  16.889  0.00  0.00    +0.000 N 
ATOM     29  C   UNL     1       5.263   3.952  16.389  0.00  0.00    +0.000 C 
ATOM     30  C   UNL     1       5.520   3.400  14.976  0.00  0.00    +0.000 C 
ATOM     31  O   UNL     1       5.920   4.438  14.075  0.00  0.00    +0.000 OA
ATOM     32  C   UNL     1       7.143   5.036  14.523  0.00  0.00    +0.000 C 
ATOM     33  C   UNL     1       6.969   5.671  15.904  0.00  0.00    +0.000 C 
ENDBRANCH  25  26
ENDBRANCH   3  25
TORSDOF 6
ENDMDL
