MODEL 1
REMARK VINA RESULT:      -5.1      0.000      0.000
REMARK  Name = 
REMARK  6 active torsions:
REMARK  status: ('A' for Active; 'I' for Inactive)
REMARK    1  A    between atoms: C_1  and  S_2
REMARK    2  A    between atoms: S_2  and  C_3
REMARK    3  A    between atoms: C_4  and  S_5
REMARK    4  A    between atoms: S_5  and  C_6
REMARK    5  A    between atoms: C_13  and  S_14
REMARK    6  A    between atoms: S_14  and  C_15
REMARK                            x       y       z     vdW  Elec       q    Type
REMARK                         _______ _______ _______ _____ _____    ______ ____
ROOT
ATOM      1  C   UNL     1       2.489   4.594  18.888  0.00  0.00    +0.000 A 
ATOM      2  C   UNL     1       2.898   5.920  18.559  0.00  0.00    +0.000 A 
ATOM      3  C   UNL     1       3.870   5.812  17.590  0.00  0.00    +0.000 A 
ATOM      4  C   UNL     1       4.642   6.783  16.856  0.00  0.00    +0.000 A 
ATOM      5  N   UNL     1       5.540   6.436  15.976  0.00  0.00    +0.000 NA
ATOM      6  C   UNL     1       5.746   5.088  15.769  0.00  0.00    +0.000 A 
ATOM      7  C   UNL     1       5.073   4.118  16.412  0.00  0.00    +0.000 A 
ATOM      8  N   UNL     1       4.103   4.475  17.342  0.00  0.00    +0.000 N 
ATOM      9  C   UNL     1       3.260   3.723  18.139  0.00  0.00    +0.000 A 
ENDROOT
BRANCH   1  11
ATOM     10  C   UNL     1       2.141   3.770  21.513  0.00  0.00    +0.000 C 
ATOM     11  S   UNL     1       1.211   4.179  20.023  0.00  0.00    +0.000 S 
ENDBRANCH   1  11
BRANCH   2  12
ATOM     12  S   UNL     1       2.385   7.431  19.287  0.00  0.00    +0.000 S 
ATOM     13  C   UNL     1       1.844   8.380  17.853  0.00  0.00    +0.000 C 
ENDBRANCH   2  12
BRANCH   9  14
ATOM     14  S   UNL     1       3.342   1.975  18.117  0.00  0.00    +0.000 S 
ATOM     15  C   UNL     1       4.389   1.655  19.552  0.00  0.00    +0.000 C 
ENDBRANCH   9  14
TORSDOF 3
ENDMDL
MODEL 2
REMARK VINA RESULT:      -4.9      1.995      3.845
REMARK  Name = 
REMARK  6 active torsions:
REMARK  status: ('A' for Active; 'I' for Inactive)
REMARK    1  A    between atoms: C_1  and  S_2
REMARK    2  A    between atoms: S_2  and  C_3
REMARK    3  A    between atoms: C_4  and  S_5
REMARK    4  A    between atoms: S_5  and  C_6
REMARK    5  A    between atoms: C_13  and  S_14
REMARK    6  A    between atoms: S_14  and  C_15
REMARK                            x       y       z     vdW  Elec       q    Type
REMARK                         _______ _______ _______ _____ _____    ______ ____
ROOT
ATOM      1  C   UNL     1       3.966   4.031  19.166  0.00  0.00    +0.000 A 
ATOM      2  C   UNL     1       4.394   4.840  18.072  0.00  0.00    +0.000 A 
ATOM      3  C   UNL     1       3.746   6.049  18.189  0.00  0.00    +0.000 A 
ATOM      4  C   UNL     1       3.777   7.262  17.411  0.00  0.00    +0.000 A 
ATOM      5  N   UNL     1       3.044   8.300  17.712  0.00  0.00    +0.000 NA
ATOM      6  C   UNL     1       2.213   8.200  18.808  0.00  0.00    +0.000 A 
ATOM      7  C   UNL     1       2.121   7.107  19.585  0.00  0.00    +0.000 A 
ATOM      8  N   UNL     1       2.907   6.000  19.283  0.00  0.00    +0.000 N 
ATOM      9  C   UNL     1       3.036   4.762  19.884  0.00  0.00    +0.000 A 
ENDROOT
BRANCH   1  11
ATOM     10  C   UNL     1       3.575   1.392  18.407  0.00  0.00    +0.000 C 
ATOM     11  S   UNL     1       4.556   2.413  19.524  0.00  0.00    +0.000 S 
ENDBRANCH   1  11
BRANCH   2  12
ATOM     12  S   UNL     1       5.451   4.403  16.742  0.00  0.00    +0.000 S 
ATOM     13  C   UNL     1       7.086   4.671  17.452  0.00  0.00    +0.000 C 
ENDBRANCH   2  12
BRANCH   9  14
ATOM     14  S   UNL     1       2.058   4.344  21.274  0.00  0.00    +0.000 S 
ATOM     15  C   UNL     1       0.979   3.076  20.575  0.00  0.00    +0.000 C 
ENDBRANCH   9  14
TORSDOF 3
ENDMDL
MODEL 3
REMARK VINA RESULT:      -4.9      1.640      3.752
REMARK  Name = 
REMARK  6 active torsions:
REMARK  status: ('A' for Active; 'I' for Inactive)
REMARK    1  A    between atoms: C_1  and  S_2
REMARK    2  A    between atoms: S_2  and  C_3
REMARK    3  A    between atoms: C_4  and  S_5
REMARK    4  A    between atoms: S_5  and  C_6
REMARK    5  A    between atoms: C_13  and  S_14
REMARK    6  A    between atoms: S_14  and  C_15
REMARK                            x       y       z     vdW  Elec       q    Type
REMARK                         _______ _______ _______ _____ _____    ______ ____
ROOT
ATOM      1  C   UNL     1       3.000   4.954  19.521  0.00  0.00    +0.000 A 
ATOM      2  C   UNL     1       4.113   4.086  19.320  0.00  0.00    +0.000 A 
ATOM      3  C   UNL     1       5.004   4.755  18.512  0.00  0.00    +0.000 A 
ATOM      4  C   UNL     1       6.301   4.415  17.982  0.00  0.00    +0.000 A 
ATOM      5  N   UNL     1       6.968   5.223  17.204  0.00  0.00    +0.000 NA
ATOM      6  C   UNL     1       6.384   6.432  16.885  0.00  0.00    +0.000 A 
ATOM      7  C   UNL     1       5.180   6.826  17.334  0.00  0.00    +0.000 A 
ATOM      8  N   UNL     1       4.465   5.979  18.174  0.00  0.00    +0.000 N 
ATOM      9  C   UNL     1       3.234   6.105  18.789  0.00  0.00    +0.000 A 
ENDROOT
BRANCH   1  11
ATOM     10  C   UNL     1       0.739   3.349  19.590  0.00  0.00    +0.000 C 
ATOM     11  S   UNL     1       1.613   4.606  20.544  0.00  0.00    +0.000 S 
ENDBRANCH   1  11
BRANCH   2  12
ATOM     12  S   UNL     1       4.321   2.435  19.874  0.00  0.00    +0.000 S 
ATOM     13  C   UNL     1       3.660   1.484  18.493  0.00  0.00    +0.000 C 
ENDBRANCH   2  12
BRANCH   9  14
ATOM     14  S   UNL     1       2.247   7.525  18.517  0.00  0.00    +0.000 S 
ATOM     15  C   UNL     1       1.855   8.009  20.212  0.00  0.00    +0.000 C 
ENDBRANCH   9  14
TORSDOF 3
ENDMDL
MODEL 4
REMARK VINA RESULT:      -4.9      0.832      3.719
REMARK  Name = 
REMARK  6 active torsions:
REMARK  status: ('A' for Active; 'I' for Inactive)
REMARK    1  A    between atoms: C_1  and  S_2
REMARK    2  A    between atoms: S_2  and  C_3
REMARK    3  A    between atoms: C_4  and  S_5
REMARK    4  A    between atoms: S_5  and  C_6
REMARK    5  A    between atoms: C_13  and  S_14
REMARK    6  A    between atoms: S_14  and  C_15
REMARK                            x       y       z     vdW  Elec       q    Type
REMARK                         _______ _______ _______ _____ _____    ______ ____
ROOT
ATOM      1  C   UNL     1       2.233   4.722  19.026  0.00  0.00    +0.000 A 
ATOM      2  C   UNL     1       2.869   3.836  18.107  0.00  0.00    +0.000 A 
ATOM      3  C   UNL     1       3.768   4.586  17.383  0.00  0.00    +0.000 A 
ATOM      4  C   UNL     1       4.705   4.261  16.336  0.00  0.00    +0.000 A 
ATOM      5  N   UNL     1       5.461   5.164  15.774  0.00  0.00    +0.000 NA
ATOM      6  C   UNL     1       5.331   6.467  16.207  0.00  0.00    +0.000 A 
ATOM      7  C   UNL     1       4.482   6.856  17.174  0.00  0.00    +0.000 A 
ATOM      8  N   UNL     1       3.681   5.901  17.790  0.00  0.00    +0.000 N 
ATOM      9  C   UNL     1       2.738   5.991  18.796  0.00  0.00    +0.000 A 
ENDROOT
BRANCH   1  11
ATOM     10  C   UNL     1       2.088   3.528  21.525  0.00  0.00    +0.000 C 
ATOM     11  S   UNL     1       1.051   4.250  20.238  0.00  0.00    +0.000 S 
ENDBRANCH   1  11
BRANCH   2  12
ATOM     12  S   UNL     1       2.538   2.137  17.825  0.00  0.00    +0.000 S 
ATOM     13  C   UNL     1       3.831   1.333  18.789  0.00  0.00    +0.000 C 
ENDBRANCH   2  12
BRANCH   9  14
ATOM     14  S   UNL     1       2.333   7.542  19.499  0.00  0.00    +0.000 S 
ATOM     15  C   UNL     1       1.775   8.451  18.042  0.00  0.00    +0.000 C 
ENDBRANCH   9  14
TORSDOF 3
ENDMDL
MODEL 5
REMARK VINA RESULT:      -4.9      2.092      3.640
REMARK  Name = 
REMARK  6 active torsions:
REMARK  status: ('A' for Active; 'I' for Inactive)
REMARK    1  A    between atoms: C_1  and  S_2
REMARK    2  A    between atoms: S_2  and  C_3
REMARK    3  A    between atoms: C_4  and  S_5
REMARK    4  A    between atoms: S_5  and  C_6
REMARK    5  A    between atoms: C_13  and  S_14
REMARK    6  A    between atoms: S_14  and  C_15
REMARK                            x       y       z     vdW  Elec       q    Type
REMARK                         _______ _______ _______ _____ _____    ______ ____
ROOT
ATOM      1  C   UNL     1       4.057   3.981  19.229  0.00  0.00    +0.000 A 
ATOM      2  C   UNL     1       3.044   4.742  19.885  0.00  0.00    +0.000 A 
ATOM      3  C   UNL     1       2.959   5.948  19.228  0.00  0.00    +0.000 A 
ATOM      4  C   UNL     1       2.125   7.110  19.406  0.00  0.00    +0.000 A 
ATOM      5  N   UNL     1       2.238   8.170  18.653  0.00  0.00    +0.000 NA
ATOM      6  C   UNL     1       3.205   8.156  17.670  0.00  0.00    +0.000 A 
ATOM      7  C   UNL     1       4.025   7.116  17.438  0.00  0.00    +0.000 A 
ATOM      8  N   UNL     1       3.905   5.976  18.224  0.00  0.00    +0.000 N 
ATOM      9  C   UNL     1       4.583   4.772  18.223  0.00  0.00    +0.000 A 
ENDROOT
BRANCH   1  11
ATOM     10  C   UNL     1       3.552   1.371  18.441  0.00  0.00    +0.000 C 
ATOM     11  S   UNL     1       4.507   2.330  19.632  0.00  0.00    +0.000 S 
ENDBRANCH   1  11
BRANCH   2  12
ATOM     12  S   UNL     1       2.127   4.325  21.321  0.00  0.00    +0.000 S 
ATOM     13  C   UNL     1       0.977   3.089  20.692  0.00  0.00    +0.000 C 
ENDBRANCH   2  12
BRANCH   9  14
ATOM     14  S   UNL     1       5.903   4.497  17.105  0.00  0.00    +0.000 S 
ATOM     15  C   UNL     1       7.312   5.064  18.081  0.00  0.00    +0.000 C 
ENDBRANCH   9  14
TORSDOF 3
ENDMDL
MODEL 6
REMARK VINA RESULT:      -4.8      2.113      5.041
REMARK  Name = 
REMARK  6 active torsions:
REMARK  status: ('A' for Active; 'I' for Inactive)
REMARK    1  A    between atoms: C_1  and  S_2
REMARK    2  A    between atoms: S_2  and  C_3
REMARK    3  A    between atoms: C_4  and  S_5
REMARK    4  A    between atoms: S_5  and  C_6
REMARK    5  A    between atoms: C_13  and  S_14
REMARK    6  A    between atoms: S_14  and  C_15
REMARK                            x       y       z     vdW  Elec       q    Type
REMARK                         _______ _______ _______ _____ _____    ______ ____
ROOT
ATOM      1  C   UNL     1       4.401   5.810  17.405  0.00  0.00    +0.000 A 
ATOM      2  C   UNL     1       4.491   4.457  16.966  0.00  0.00    +0.000 A 
ATOM      3  C   UNL     1       3.390   3.798  17.464  0.00  0.00    +0.000 A 
ATOM      4  C   UNL     1       2.918   2.440  17.351  0.00  0.00    +0.000 A 
ATOM      5  N   UNL     1       1.828   2.031  17.940  0.00  0.00    +0.000 NA
ATOM      6  C   UNL     1       1.129   2.945  18.700  0.00  0.00    +0.000 A 
ATOM      7  C   UNL     1       1.499   4.228  18.860  0.00  0.00    +0.000 A 
ATOM      8  N   UNL     1       2.651   4.679  18.226  0.00  0.00    +0.000 N 
ATOM      9  C   UNL     1       3.269   5.915  18.196  0.00  0.00    +0.000 A 
ENDROOT
BRANCH   1  11
ATOM     10  C   UNL     1       7.027   6.588  17.837  0.00  0.00    +0.000 C 
ATOM     11  S   UNL     1       5.524   7.093  16.978  0.00  0.00    +0.000 S 
ENDBRANCH   1  11
BRANCH   2  12
ATOM     12  S   UNL     1       5.781   3.689  16.059  0.00  0.00    +0.000 S 
ATOM     13  C   UNL     1       5.537   4.364  14.406  0.00  0.00    +0.000 C 
ENDBRANCH   2  12
BRANCH   9  14
ATOM     14  S   UNL     1       2.621   7.256  19.117  0.00  0.00    +0.000 S 
ATOM     15  C   UNL     1       2.091   8.366  17.795  0.00  0.00    +0.000 C 
ENDBRANCH   9  14
TORSDOF 3
ENDMDL
MODEL 7
REMARK VINA RESULT:      -4.8      1.360      1.360
REMARK  Name = 
REMARK  6 active torsions:
REMARK  status: ('A' for Active; 'I' for Inactive)
REMARK    1  A    between atoms: C_1  and  S_2
REMARK    2  A    between atoms: S_2  and  C_3
REMARK    3  A    between atoms: C_4  and  S_5
REMARK    4  A    between atoms: S_5  and  C_6
REMARK    5  A    between atoms: C_13  and  S_14
REMARK    6  A    between atoms: S_14  and  C_15
REMARK                            x       y       z     vdW  Elec       q    Type
REMARK                         _______ _______ _______ _____ _____    ______ ____
ROOT
ATOM      1  C   UNL     1       2.935   4.961  19.224  0.00  0.00    +0.000 A 
ATOM      2  C   UNL     1       3.145   6.145  18.458  0.00  0.00    +0.000 A 
ATOM      3  C   UNL     1       4.322   5.973  17.765  0.00  0.00    +0.000 A 
ATOM      4  C   UNL     1       5.043   6.796  16.827  0.00  0.00    +0.000 A 
ATOM      5  N   UNL     1       6.176   6.420  16.299  0.00  0.00    +0.000 NA
ATOM      6  C   UNL     1       6.684   5.196  16.680  0.00  0.00    +0.000 A 
ATOM      7  C   UNL     1       6.079   4.368  17.549  0.00  0.00    +0.000 A 
ATOM      8  N   UNL     1       4.864   4.751  18.107  0.00  0.00    +0.000 N 
ATOM      9  C   UNL     1       4.018   4.127  19.005  0.00  0.00    +0.000 A 
ENDROOT
BRANCH   1  11
ATOM     10  C   UNL     1       0.737   3.276  19.355  0.00  0.00    +0.000 C 
ATOM     11  S   UNL     1       1.529   4.639  20.230  0.00  0.00    +0.000 S 
ENDBRANCH   1  11
BRANCH   2  12
ATOM     12  S   UNL     1       2.188   7.615  18.440  0.00  0.00    +0.000 S 
ATOM     13  C   UNL     1       1.911   7.910  20.197  0.00  0.00    +0.000 C 
ENDBRANCH   2  12
BRANCH   9  14
ATOM     14  S   UNL     1       4.442   2.575  19.693  0.00  0.00    +0.000 S 
ATOM     15  C   UNL     1       3.684   1.446  18.505  0.00  0.00    +0.000 C 
ENDBRANCH   9  14
TORSDOF 3
ENDMDL
MODEL 8
REMARK VINA RESULT:      -4.8      1.644      3.636
REMARK  Name = 
REMARK  6 active torsions:
REMARK  status: ('A' for Active; 'I' for Inactive)
REMARK    1  A    between atoms: C_1  and  S_2
REMARK    2  A    between atoms: S_2  and  C_3
REMARK    3  A    between atoms: C_4  and  S_5
REMARK    4  A    between atoms: S_5  and  C_6
REMARK    5  A    between atoms: C_13  and  S_14
REMARK    6  A    between atoms: S_14  and  C_15
REMARK                            x       y       z     vdW  Elec       q    Type
REMARK                         _______ _______ _______ _____ _____    ______ ____
ROOT
ATOM      1  C   UNL     1       3.311   3.544  18.351  0.00  0.00    +0.000 A 
ATOM      2  C   UNL     1       4.058   4.439  17.529  0.00  0.00    +0.000 A 
ATOM      3  C   UNL     1       3.604   5.709  17.802  0.00  0.00    +0.000 A 
ATOM      4  C   UNL     1       3.973   7.014  17.313  0.00  0.00    +0.000 A 
ATOM      5  N   UNL     1       3.376   8.102  17.714  0.00  0.00    +0.000 NA
ATOM      6  C   UNL     1       2.352   7.970  18.629  0.00  0.00    +0.000 A 
ATOM      7  C   UNL     1       1.943   6.794  19.134  0.00  0.00    +0.000 A 
ATOM      8  N   UNL     1       2.581   5.628  18.724  0.00  0.00    +0.000 N 
ATOM      9  C   UNL     1       2.395   4.301  19.062  0.00  0.00    +0.000 A 
ENDROOT
BRANCH   1  11
ATOM     10  C   UNL     1       4.602   1.641  19.900  0.00  0.00    +0.000 C 
ATOM     11  S   UNL     1       3.555   1.805  18.442  0.00  0.00    +0.000 S 
ENDBRANCH   1  11
BRANCH   2  12
ATOM     12  S   UNL     1       5.257   4.053  16.309  0.00  0.00    +0.000 S 
ATOM     13  C   UNL     1       6.786   4.602  17.090  0.00  0.00    +0.000 C 
ENDBRANCH   2  12
BRANCH   9  14
ATOM     14  S   UNL     1       1.123   3.836  20.171  0.00  0.00    +0.000 S 
ATOM     15  C   UNL     1       2.071   3.493  21.669  0.00  0.00    +0.000 C 
ENDBRANCH   9  14
TORSDOF 3
ENDMDL
MODEL 9
REMARK VINA RESULT:      -4.7      2.318      4.194
REMARK  Name = 
REMARK  6 active torsions:
REMARK  status: ('A' for Active; 'I' for Inactive)
REMARK    1  A    between atoms: C_1  and  S_2
REMARK    2  A    between atoms: S_2  and  C_3
REMARK    3  A    between atoms: C_4  and  S_5
REMARK    4  A    between atoms: S_5  and  C_6
REMARK    5  A    between atoms: C_13  and  S_14
REMARK    6  A    between atoms: S_14  and  C_15
REMARK                            x       y       z     vdW  Elec       q    Type
REMARK                         _______ _______ _______ _____ _____    ______ ____
ROOT
ATOM      1  C   UNL     1       3.724   4.838  18.725  0.00  0.00    +0.000 A 
ATOM      2  C   UNL     1       2.825   5.309  19.726  0.00  0.00    +0.000 A 
ATOM      3  C   UNL     1       2.481   6.597  19.384  0.00  0.00    +0.000 A 
ATOM      4  C   UNL     1       1.607   7.575  19.982  0.00  0.00    +0.000 A 
ATOM      5  N   UNL     1       1.448   8.767  19.476  0.00  0.00    +0.000 NA
ATOM      6  C   UNL     1       2.160   9.079  18.337  0.00  0.00    +0.000 A 
ATOM      7  C   UNL     1       2.996   8.229  17.717  0.00  0.00    +0.000 A 
ATOM      8  N   UNL     1       3.164   6.951  18.239  0.00  0.00    +0.000 N 
ATOM      9  C   UNL     1       3.931   5.876  17.832  0.00  0.00    +0.000 A 
ENDROOT
BRANCH   1  11
ATOM     10  C   UNL     1       3.127   2.307  17.763  0.00  0.00    +0.000 C 
ATOM     11  S   UNL     1       4.405   3.218  18.651  0.00  0.00    +0.000 S 
ENDBRANCH   1  11
BRANCH   2  12
ATOM     12  S   UNL     1       2.304   4.497  21.191  0.00  0.00    +0.000 S 
ATOM     13  C   UNL     1       0.999   3.413  20.582  0.00  0.00    +0.000 C 
ENDBRANCH   2  12
BRANCH   9  14
ATOM     14  S   UNL     1       4.978   6.010  16.435  0.00  0.00    +0.000 S 
ATOM     15  C   UNL     1       6.567   6.356  17.220  0.00  0.00    +0.000 C 
ENDBRANCH   9  14
TORSDOF 3
ENDMDL
