MODEL 1
REMARK VINA RESULT:      -8.8      0.000      0.000
REMARK  Name = 
REMARK  6 active torsions:
REMARK  status: ('A' for Active; 'I' for Inactive)
REMARK    1  A    between atoms: N_6  and  C_7
REMARK    2  A    between atoms: N_17  and  C_18
REMARK    3  A    between atoms: C_18  and  C_19
REMARK    4  A    between atoms: C_19  and  O_20
REMARK    5  A    between atoms: N_23  and  C_24
REMARK    6  A    between atoms: C_24  and  C_25
REMARK                            x       y       z     vdW  Elec       q    Type
REMARK                         _______ _______ _______ _____ _____    ______ ____
ROOT
ATOM      1  O   UNL     1       0.395   9.814  21.109  0.00  0.00    +0.000 OA
ATOM      2  C   UNL     1       0.946   9.467  20.070  0.00  0.00    +0.000 A 
ATOM      3  C   UNL     1       1.604   8.196  19.918  0.00  0.00    +0.000 A 
ATOM      4  C   UNL     1       1.726   7.052  20.711  0.00  0.00    +0.000 A 
ATOM      5  N   UNL     1       2.371   6.065  20.080  0.00  0.00    +0.000 NA
ATOM      6  N   UNL     1       2.766   6.619  18.893  0.00  0.00    +0.000 N 
ATOM      7  C   UNL     1       2.273   7.911  18.753  0.00  0.00    +0.000 A 
ATOM      8  N   UNL     1       2.333   8.696  17.646  0.00  0.00    +0.000 NA
ATOM      9  C   UNL     1       1.688   9.816  17.772  0.00  0.00    +0.000 A 
ATOM     10  N   UNL     1       1.020  10.258  18.911  0.00  0.00    +0.000 N 
ENDROOT
BRANCH   6  11
ATOM     11  C   UNL     1       3.547   5.881  17.967  0.00  0.00    +0.000 A 
ATOM     12  C   UNL     1       4.679   6.475  17.389  0.00  0.00    +0.000 A 
ATOM     13  C   UNL     1       5.507   5.719  16.555  0.00  0.00    +0.000 A 
ATOM     14  C   UNL     1       5.166   4.403  16.256  0.00  0.00    +0.000 A 
ATOM     15  F   UNL     1       5.962   3.681  15.456  0.00  0.00    +0.000 F 
ATOM     16  C   UNL     1       4.016   3.823  16.777  0.00  0.00    +0.000 A 
ATOM     17  C   UNL     1       3.210   4.557  17.650  0.00  0.00    +0.000 A 
ENDBRANCH   6  11
BRANCH  10  18
ATOM     18  C   UNL     1       0.419  11.594  18.928  0.00  0.00    +0.000 C 
BRANCH  18  19
ATOM     19  C   UNL     1      -1.008  11.668  18.321  0.00  0.00    +0.000 C 
ATOM     20  C   UNL     1      -1.382  10.331  17.658  0.00  0.00    +0.000 C 
ATOM     21  C   UNL     1      -2.817  10.351  17.118  0.00  0.00    +0.000 C 
ATOM     22  N   UNL     1      -3.807  10.693  18.158  0.00  0.00    +0.000 NA
ATOM     23  C   UNL     1      -3.475  11.983  18.786  0.00  0.00    +0.000 C 
ATOM     24  C   UNL     1      -2.067  11.972  19.386  0.00  0.00    +0.000 C 
BRANCH  19  25
ATOM     25  O   UNL     1      -1.054  12.699  17.325  0.00  0.00    +0.000 OA
ATOM     26  H   UNL     1      -1.700  13.378  17.601  0.00  0.00    +0.000 HD
ENDBRANCH  19  25
BRANCH  22  27
ATOM     27  C   UNL     1      -5.147  10.757  17.530  0.00  0.00    +0.000 C 
BRANCH  27  28
ATOM     28  C   UNL     1      -6.064  11.837  18.070  0.00  0.00    +0.000 A 
ATOM     29  C   UNL     1      -6.401  12.946  17.278  0.00  0.00    +0.000 A 
ATOM     30  C   UNL     1      -7.321  13.892  17.734  0.00  0.00    +0.000 A 
ATOM     31  C   UNL     1      -7.912  13.741  18.985  0.00  0.00    +0.000 A 
ATOM     32  C   UNL     1      -7.556  12.665  19.798  0.00  0.00    +0.000 A 
ATOM     33  C   UNL     1      -6.631  11.721  19.347  0.00  0.00    +0.000 A 
ENDBRANCH  27  28
ENDBRANCH  22  27
ENDBRANCH  18  19
ENDBRANCH  10  18
TORSDOF 6
ENDMDL
MODEL 2
REMARK VINA RESULT:      -8.7      0.917      1.549
REMARK  Name = 
REMARK  6 active torsions:
REMARK  status: ('A' for Active; 'I' for Inactive)
REMARK    1  A    between atoms: N_6  and  C_7
REMARK    2  A    between atoms: N_17  and  C_18
REMARK    3  A    between atoms: C_18  and  C_19
REMARK    4  A    between atoms: C_19  and  O_20
REMARK    5  A    between atoms: N_23  and  C_24
REMARK    6  A    between atoms: C_24  and  C_25
REMARK                            x       y       z     vdW  Elec       q    Type
REMARK                         _______ _______ _______ _____ _____    ______ ____
ROOT
ATOM      1  O   UNL     1       0.572   8.191  21.483  0.00  0.00    +0.000 OA
ATOM      2  C   UNL     1       1.162   8.175  20.410  0.00  0.00    +0.000 A 
ATOM      3  C   UNL     1       1.910   7.038  19.942  0.00  0.00    +0.000 A 
ATOM      4  C   UNL     1       2.097   5.730  20.400  0.00  0.00    +0.000 A 
ATOM      5  N   UNL     1       2.820   4.995  19.548  0.00  0.00    +0.000 NA
ATOM      6  N   UNL     1       3.196   5.875  18.570  0.00  0.00    +0.000 N 
ATOM      7  C   UNL     1       2.617   7.122  18.767  0.00  0.00    +0.000 A 
ATOM      8  N   UNL     1       2.641   8.181  17.917  0.00  0.00    +0.000 NA
ATOM      9  C   UNL     1       1.917   9.183  18.319  0.00  0.00    +0.000 A 
ATOM     10  N   UNL     1       1.201   9.255  19.511  0.00  0.00    +0.000 N 
ENDROOT
BRANCH   6  11
ATOM     11  C   UNL     1       4.042   5.467  17.506  0.00  0.00    +0.000 A 
ATOM     12  C   UNL     1       4.029   4.128  17.086  0.00  0.00    +0.000 A 
ATOM     13  C   UNL     1       4.784   3.746  15.975  0.00  0.00    +0.000 A 
ATOM     14  C   UNL     1       5.591   4.681  15.334  0.00  0.00    +0.000 A 
ATOM     15  F   UNL     1       6.314   4.310  14.270  0.00  0.00    +0.000 F 
ATOM     16  C   UNL     1       5.656   5.997  15.778  0.00  0.00    +0.000 A 
ATOM     17  C   UNL     1       4.866   6.398  16.857  0.00  0.00    +0.000 A 
ENDBRANCH   6  11
BRANCH  10  18
ATOM     18  C   UNL     1       0.509  10.496  19.868  0.00  0.00    +0.000 C 
BRANCH  18  19
ATOM     19  C   UNL     1      -0.609  10.920  18.876  0.00  0.00    +0.000 C 
ATOM     20  C   UNL     1      -1.192   9.688  18.163  0.00  0.00    +0.000 C 
ATOM     21  C   UNL     1      -2.351  10.070  17.235  0.00  0.00    +0.000 C 
ATOM     22  N   UNL     1      -3.423  10.800  17.940  0.00  0.00    +0.000 NA
ATOM     23  C   UNL     1      -2.883  11.995  18.610  0.00  0.00    +0.000 C 
ATOM     24  C   UNL     1      -1.762  11.636  19.587  0.00  0.00    +0.000 C 
BRANCH  19  25
ATOM     25  O   UNL     1      -0.064  11.804  17.887  0.00  0.00    +0.000 OA
ATOM     26  H   UNL     1      -0.792  12.142  17.329  0.00  0.00    +0.000 HD
ENDBRANCH  19  25
BRANCH  22  27
ATOM     27  C   UNL     1      -4.459  11.186  16.954  0.00  0.00    +0.000 C 
BRANCH  27  28
ATOM     28  C   UNL     1      -5.708  11.814  17.541  0.00  0.00    +0.000 A 
ATOM     29  C   UNL     1      -6.313  11.262  18.682  0.00  0.00    +0.000 A 
ATOM     30  C   UNL     1      -7.403  11.893  19.284  0.00  0.00    +0.000 A 
ATOM     31  C   UNL     1      -7.903  13.079  18.751  0.00  0.00    +0.000 A 
ATOM     32  C   UNL     1      -7.336  13.615  17.595  0.00  0.00    +0.000 A 
ATOM     33  C   UNL     1      -6.249  12.982  16.988  0.00  0.00    +0.000 A 
ENDBRANCH  27  28
ENDBRANCH  22  27
ENDBRANCH  18  19
ENDBRANCH  10  18
TORSDOF 6
ENDMDL
MODEL 3
REMARK VINA RESULT:      -8.6      0.802      1.263
REMARK  Name = 
REMARK  6 active torsions:
REMARK  status: ('A' for Active; 'I' for Inactive)
REMARK    1  A    between atoms: N_6  and  C_7
REMARK    2  A    between atoms: N_17  and  C_18
REMARK    3  A    between atoms: C_18  and  C_19
REMARK    4  A    between atoms: C_19  and  O_20
REMARK    5  A    between atoms: N_23  and  C_24
REMARK    6  A    between atoms: C_24  and  C_25
REMARK                            x       y       z     vdW  Elec       q    Type
REMARK                         _______ _______ _______ _____ _____    ______ ____
ROOT
ATOM      1  O   UNL     1       0.421  10.284  21.154  0.00  0.00    +0.000 OA
ATOM      2  C   UNL     1       0.911   9.760  20.160  0.00  0.00    +0.000 A 
ATOM      3  C   UNL     1       1.437   8.421  20.158  0.00  0.00    +0.000 A 
ATOM      4  C   UNL     1       1.463   7.374  21.083  0.00  0.00    +0.000 A 
ATOM      5  N   UNL     1       1.993   6.258  20.571  0.00  0.00    +0.000 NA
ATOM      6  N   UNL     1       2.414   6.623  19.321  0.00  0.00    +0.000 N 
ATOM      7  C   UNL     1       2.049   7.931  19.029  0.00  0.00    +0.000 A 
ATOM      8  N   UNL     1       2.161   8.567  17.834  0.00  0.00    +0.000 NA
ATOM      9  C   UNL     1       1.633   9.754  17.829  0.00  0.00    +0.000 A 
ATOM     10  N   UNL     1       1.037  10.394  18.912  0.00  0.00    +0.000 N 
ENDROOT
BRANCH   6  11
ATOM     11  C   UNL     1       3.098   5.703  18.483  0.00  0.00    +0.000 A 
ATOM     12  C   UNL     1       4.476   5.856  18.269  0.00  0.00    +0.000 A 
ATOM     13  C   UNL     1       5.171   4.896  17.529  0.00  0.00    +0.000 A 
ATOM     14  C   UNL     1       4.478   3.832  16.958  0.00  0.00    +0.000 A 
ATOM     15  F   UNL     1       5.147   2.915  16.248  0.00  0.00    +0.000 F 
ATOM     16  C   UNL     1       3.104   3.704  17.115  0.00  0.00    +0.000 A 
ATOM     17  C   UNL     1       2.411   4.632  17.895  0.00  0.00    +0.000 A 
ENDBRANCH   6  11
BRANCH  10  18
ATOM     18  C   UNL     1       0.573  11.777  18.772  0.00  0.00    +0.000 C 
BRANCH  18  19
ATOM     19  C   UNL     1      -0.901  11.918  18.302  0.00  0.00    +0.000 C 
ATOM     20  C   UNL     1      -1.336  10.670  17.514  0.00  0.00    +0.000 C 
ATOM     21  C   UNL     1      -2.812  10.749  17.104  0.00  0.00    +0.000 C 
ATOM     22  N   UNL     1      -3.709  10.957  18.258  0.00  0.00    +0.000 NA
ATOM     23  C   UNL     1      -3.318  12.162  19.009  0.00  0.00    +0.000 C 
ATOM     24  C   UNL     1      -1.864  12.084  19.482  0.00  0.00    +0.000 C 
BRANCH  19  25
ATOM     25  O   UNL     1      -1.025  13.063  17.447  0.00  0.00    +0.000 OA
ATOM     26  H   UNL     1      -0.283  13.065  16.811  0.00  0.00    +0.000 HD
ENDBRANCH  19  25
BRANCH  22  27
ATOM     27  C   UNL     1      -5.097  11.090  17.758  0.00  0.00    +0.000 C 
BRANCH  27  28
ATOM     28  C   UNL     1      -6.138  11.401  18.816  0.00  0.00    +0.000 A 
ATOM     29  C   UNL     1      -6.643  10.380  19.637  0.00  0.00    +0.000 A 
ATOM     30  C   UNL     1      -7.527  10.676  20.677  0.00  0.00    +0.000 A 
ATOM     31  C   UNL     1      -7.916  11.994  20.905  0.00  0.00    +0.000 A 
ATOM     32  C   UNL     1      -7.453  13.011  20.071  0.00  0.00    +0.000 A 
ATOM     33  C   UNL     1      -6.574  12.715  19.027  0.00  0.00    +0.000 A 
ENDBRANCH  27  28
ENDBRANCH  22  27
ENDBRANCH  18  19
ENDBRANCH  10  18
TORSDOF 6
ENDMDL
MODEL 4
REMARK VINA RESULT:      -8.3      1.174      1.772
REMARK  Name = 
REMARK  6 active torsions:
REMARK  status: ('A' for Active; 'I' for Inactive)
REMARK    1  A    between atoms: N_6  and  C_7
REMARK    2  A    between atoms: N_17  and  C_18
REMARK    3  A    between atoms: C_18  and  C_19
REMARK    4  A    between atoms: C_19  and  O_20
REMARK    5  A    between atoms: N_23  and  C_24
REMARK    6  A    between atoms: C_24  and  C_25
REMARK                            x       y       z     vdW  Elec       q    Type
REMARK                         _______ _______ _______ _____ _____    ______ ____
ROOT
ATOM      1  O   UNL     1       0.608   8.477  21.139  0.00  0.00    +0.000 OA
ATOM      2  C   UNL     1       1.268   8.420  20.108  0.00  0.00    +0.000 A 
ATOM      3  C   UNL     1       2.116   7.305  19.779  0.00  0.00    +0.000 A 
ATOM      4  C   UNL     1       2.355   6.052  20.350  0.00  0.00    +0.000 A 
ATOM      5  N   UNL     1       3.178   5.305  19.605  0.00  0.00    +0.000 NA
ATOM      6  N   UNL     1       3.561   6.132  18.585  0.00  0.00    +0.000 N 
ATOM      7  C   UNL     1       2.892   7.349  18.646  0.00  0.00    +0.000 A 
ATOM      8  N   UNL     1       2.905   8.340  17.717  0.00  0.00    +0.000 NA
ATOM      9  C   UNL     1       2.094   9.317  17.993  0.00  0.00    +0.000 A 
ATOM     10  N   UNL     1       1.297   9.429  19.130  0.00  0.00    +0.000 N 
ENDROOT
BRANCH   6  11
ATOM     11  C   UNL     1       4.500   5.705  17.610  0.00  0.00    +0.000 A 
ATOM     12  C   UNL     1       5.720   6.385  17.480  0.00  0.00    +0.000 A 
ATOM     13  C   UNL     1       6.687   5.906  16.594  0.00  0.00    +0.000 A 
ATOM     14  C   UNL     1       6.407   4.796  15.802  0.00  0.00    +0.000 A 
ATOM     15  F   UNL     1       7.337   4.340  14.952  0.00  0.00    +0.000 F 
ATOM     16  C   UNL     1       5.179   4.150  15.881  0.00  0.00    +0.000 A 
ATOM     17  C   UNL     1       4.226   4.593  16.800  0.00  0.00    +0.000 A 
ENDBRANCH   6  11
BRANCH  10  18
ATOM     18  C   UNL     1       0.505  10.643  19.344  0.00  0.00    +0.000 C 
BRANCH  18  19
ATOM     19  C   UNL     1      -0.960  10.556  18.836  0.00  0.00    +0.000 C 
ATOM     20  C   UNL     1      -1.586  11.959  18.756  0.00  0.00    +0.000 C 
ATOM     21  C   UNL     1      -3.007  11.910  18.183  0.00  0.00    +0.000 C 
ATOM     22  N   UNL     1      -3.062  11.257  16.861  0.00  0.00    +0.000 NA
ATOM     23  C   UNL     1      -2.486   9.902  16.927  0.00  0.00    +0.000 C 
ATOM     24  C   UNL     1      -1.045   9.927  17.442  0.00  0.00    +0.000 C 
BRANCH  19  25
ATOM     25  O   UNL     1      -1.737   9.762  19.743  0.00  0.00    +0.000 OA
ATOM     26  H   UNL     1      -2.082  10.338  20.453  0.00  0.00    +0.000 HD
ENDBRANCH  19  25
BRANCH  22  27
ATOM     27  C   UNL     1      -4.476  11.194  16.424  0.00  0.00    +0.000 C 
BRANCH  27  28
ATOM     28  C   UNL     1      -5.498  11.519  17.495  0.00  0.00    +0.000 A 
ATOM     29  C   UNL     1      -5.817  10.574  18.484  0.00  0.00    +0.000 A 
ATOM     30  C   UNL     1      -6.682  10.903  19.529  0.00  0.00    +0.000 A 
ATOM     31  C   UNL     1      -7.241  12.178  19.595  0.00  0.00    +0.000 A 
ATOM     32  C   UNL     1      -6.963  13.111  18.597  0.00  0.00    +0.000 A 
ATOM     33  C   UNL     1      -6.103  12.782  17.548  0.00  0.00    +0.000 A 
ENDBRANCH  27  28
ENDBRANCH  22  27
ENDBRANCH  18  19
ENDBRANCH  10  18
TORSDOF 6
ENDMDL
MODEL 5
REMARK VINA RESULT:      -8.2      1.801      2.606
REMARK  Name = 
REMARK  6 active torsions:
REMARK  status: ('A' for Active; 'I' for Inactive)
REMARK    1  A    between atoms: N_6  and  C_7
REMARK    2  A    between atoms: N_17  and  C_18
REMARK    3  A    between atoms: C_18  and  C_19
REMARK    4  A    between atoms: C_19  and  O_20
REMARK    5  A    between atoms: N_23  and  C_24
REMARK    6  A    between atoms: C_24  and  C_25
REMARK                            x       y       z     vdW  Elec       q    Type
REMARK                         _______ _______ _______ _____ _____    ______ ____
ROOT
ATOM      1  O   UNL     1       2.547  10.312  17.604  0.00  0.00    +0.000 OA
ATOM      2  C   UNL     1       2.378   9.254  18.200  0.00  0.00    +0.000 A 
ATOM      3  C   UNL     1       3.005   8.021  17.802  0.00  0.00    +0.000 A 
ATOM      4  C   UNL     1       3.959   7.670  16.843  0.00  0.00    +0.000 A 
ATOM      5  N   UNL     1       4.304   6.379  16.922  0.00  0.00    +0.000 NA
ATOM      6  N   UNL     1       3.478   5.863  17.883  0.00  0.00    +0.000 N 
ATOM      7  C   UNL     1       2.702   6.858  18.466  0.00  0.00    +0.000 A 
ATOM      8  N   UNL     1       1.893   6.737  19.551  0.00  0.00    +0.000 NA
ATOM      9  C   UNL     1       1.377   7.864  19.938  0.00  0.00    +0.000 A 
ATOM     10  N   UNL     1       1.550   9.103  19.325  0.00  0.00    +0.000 N 
ENDROOT
BRANCH   6  11
ATOM     11  C   UNL     1       3.506   4.481  18.205  0.00  0.00    +0.000 A 
ATOM     12  C   UNL     1       2.669   3.593  17.513  0.00  0.00    +0.000 A 
ATOM     13  C   UNL     1       2.766   2.221  17.755  0.00  0.00    +0.000 A 
ATOM     14  C   UNL     1       3.647   1.753  18.726  0.00  0.00    +0.000 A 
ATOM     15  F   UNL     1       3.737   0.437  18.957  0.00  0.00    +0.000 F 
ATOM     16  C   UNL     1       4.439   2.630  19.459  0.00  0.00    +0.000 A 
ATOM     17  C   UNL     1       4.383   3.998  19.187  0.00  0.00    +0.000 A 
ENDBRANCH   6  11
BRANCH  10  18
ATOM     18  C   UNL     1       0.820  10.269  19.827  0.00  0.00    +0.000 C 
BRANCH  18  19
ATOM     19  C   UNL     1      -0.290  10.794  18.876  0.00  0.00    +0.000 C 
ATOM     20  C   UNL     1      -0.797   9.664  17.964  0.00  0.00    +0.000 C 
ATOM     21  C   UNL     1      -1.948  10.136  17.068  0.00  0.00    +0.000 C 
ATOM     22  N   UNL     1      -3.071  10.703  17.841  0.00  0.00    +0.000 NA
ATOM     23  C   UNL     1      -2.604  11.803  18.702  0.00  0.00    +0.000 C 
ATOM     24  C   UNL     1      -1.493  11.344  19.649  0.00  0.00    +0.000 C 
BRANCH  19  25
ATOM     25  O   UNL     1       0.239  11.842  18.051  0.00  0.00    +0.000 OA
ATOM     26  H   UNL     1       0.998  12.253  18.510  0.00  0.00    +0.000 HD
ENDBRANCH  19  25
BRANCH  22  27
ATOM     27  C   UNL     1      -4.097  11.193  16.892  0.00  0.00    +0.000 C 
BRANCH  27  28
ATOM     28  C   UNL     1      -5.393  11.658  17.525  0.00  0.00    +0.000 A 
ATOM     29  C   UNL     1      -5.964  10.940  18.589  0.00  0.00    +0.000 A 
ATOM     30  C   UNL     1      -7.102  11.417  19.240  0.00  0.00    +0.000 A 
ATOM     31  C   UNL     1      -7.685  12.616  18.835  0.00  0.00    +0.000 A 
ATOM     32  C   UNL     1      -7.151  13.318  17.754  0.00  0.00    +0.000 A 
ATOM     33  C   UNL     1      -6.016  12.839  17.098  0.00  0.00    +0.000 A 
ENDBRANCH  27  28
ENDBRANCH  22  27
ENDBRANCH  18  19
ENDBRANCH  10  18
TORSDOF 6
ENDMDL
MODEL 6
REMARK VINA RESULT:      -8.2      1.037      1.705
REMARK  Name = 
REMARK  6 active torsions:
REMARK  status: ('A' for Active; 'I' for Inactive)
REMARK    1  A    between atoms: N_6  and  C_7
REMARK    2  A    between atoms: N_17  and  C_18
REMARK    3  A    between atoms: C_18  and  C_19
REMARK    4  A    between atoms: C_19  and  O_20
REMARK    5  A    between atoms: N_23  and  C_24
REMARK    6  A    between atoms: C_24  and  C_25
REMARK                            x       y       z     vdW  Elec       q    Type
REMARK                         _______ _______ _______ _____ _____    ______ ____
ROOT
ATOM      1  O   UNL     1       0.453   9.391  21.111  0.00  0.00    +0.000 OA
ATOM      2  C   UNL     1       0.962   9.088  20.038  0.00  0.00    +0.000 A 
ATOM      3  C   UNL     1       1.786   7.921  19.862  0.00  0.00    +0.000 A 
ATOM      4  C   UNL     1       2.139   6.838  20.671  0.00  0.00    +0.000 A 
ATOM      5  N   UNL     1       2.869   5.931  20.012  0.00  0.00    +0.000 NA
ATOM      6  N   UNL     1       3.079   6.491  18.782  0.00  0.00    +0.000 N 
ATOM      7  C   UNL     1       2.392   7.691  18.651  0.00  0.00    +0.000 A 
ATOM      8  N   UNL     1       2.245   8.434  17.523  0.00  0.00    +0.000 NA
ATOM      9  C   UNL     1       1.454   9.453  17.676  0.00  0.00    +0.000 A 
ATOM     10  N   UNL     1       0.823   9.836  18.857  0.00  0.00    +0.000 N 
ENDROOT
BRANCH   6  11
ATOM     11  C   UNL     1       3.883   5.838  17.810  0.00  0.00    +0.000 A 
ATOM     12  C   UNL     1       4.889   6.559  17.149  0.00  0.00    +0.000 A 
ATOM     13  C   UNL     1       5.747   5.896  16.267  0.00  0.00    +0.000 A 
ATOM     14  C   UNL     1       5.555   4.542  16.006  0.00  0.00    +0.000 A 
ATOM     15  F   UNL     1       6.379   3.911  15.159  0.00  0.00    +0.000 F 
ATOM     16  C   UNL     1       4.525   3.833  16.611  0.00  0.00    +0.000 A 
ATOM     17  C   UNL     1       3.695   4.477  17.531  0.00  0.00    +0.000 A 
ENDBRANCH   6  11
BRANCH  10  18
ATOM     18  C   UNL     1       0.036  11.071  18.891  0.00  0.00    +0.000 C 
BRANCH  18  19
ATOM     19  C   UNL     1      -1.477  10.881  18.594  0.00  0.00    +0.000 C 
ATOM     20  C   UNL     1      -2.301  11.992  19.266  0.00  0.00    +0.000 C 
ATOM     21  C   UNL     1      -3.791  11.873  18.924  0.00  0.00    +0.000 C 
ATOM     22  N   UNL     1      -4.039  11.871  17.469  0.00  0.00    +0.000 NA
ATOM     23  C   UNL     1      -3.273  10.796  16.814  0.00  0.00    +0.000 C 
ATOM     24  C   UNL     1      -1.774  10.924  17.091  0.00  0.00    +0.000 C 
BRANCH  19  25
ATOM     25  O   UNL     1      -1.912   9.615  19.108  0.00  0.00    +0.000 OA
ATOM     26  H   UNL     1      -1.725   8.922  18.445  0.00  0.00    +0.000 HD
ENDBRANCH  19  25
BRANCH  22  27
ATOM     27  C   UNL     1      -5.490  11.682  17.238  0.00  0.00    +0.000 C 
BRANCH  27  28
ATOM     28  C   UNL     1      -6.307  11.371  18.477  0.00  0.00    +0.000 A 
ATOM     29  C   UNL     1      -6.511  10.041  18.880  0.00  0.00    +0.000 A 
ATOM     30  C   UNL     1      -7.176   9.754  20.073  0.00  0.00    +0.000 A 
ATOM     31  C   UNL     1      -7.648  10.791  20.874  0.00  0.00    +0.000 A 
ATOM     32  C   UNL     1      -7.487  12.115  20.465  0.00  0.00    +0.000 A 
ATOM     33  C   UNL     1      -6.827  12.404  19.269  0.00  0.00    +0.000 A 
ENDBRANCH  27  28
ENDBRANCH  22  27
ENDBRANCH  18  19
ENDBRANCH  10  18
TORSDOF 6
ENDMDL
MODEL 7
REMARK VINA RESULT:      -8.0      1.498      1.964
REMARK  Name = 
REMARK  6 active torsions:
REMARK  status: ('A' for Active; 'I' for Inactive)
REMARK    1  A    between atoms: N_6  and  C_7
REMARK    2  A    between atoms: N_17  and  C_18
REMARK    3  A    between atoms: C_18  and  C_19
REMARK    4  A    between atoms: C_19  and  O_20
REMARK    5  A    between atoms: N_23  and  C_24
REMARK    6  A    between atoms: C_24  and  C_25
REMARK                            x       y       z     vdW  Elec       q    Type
REMARK                         _______ _______ _______ _____ _____    ______ ____
ROOT
ATOM      1  O   UNL     1       0.476  10.684  21.296  0.00  0.00    +0.000 OA
ATOM      2  C   UNL     1       0.939  10.096  20.326  0.00  0.00    +0.000 A 
ATOM      3  C   UNL     1       1.335   8.713  20.362  0.00  0.00    +0.000 A 
ATOM      4  C   UNL     1       1.238   7.688  21.307  0.00  0.00    +0.000 A 
ATOM      5  N   UNL     1       1.672   6.516  20.829  0.00  0.00    +0.000 NA
ATOM      6  N   UNL     1       2.157   6.813  19.585  0.00  0.00    +0.000 N 
ATOM      7  C   UNL     1       1.925   8.143  19.259  0.00  0.00    +0.000 A 
ATOM      8  N   UNL     1       2.128   8.741  18.056  0.00  0.00    +0.000 NA
ATOM      9  C   UNL     1       1.715   9.972  18.015  0.00  0.00    +0.000 A 
ATOM     10  N   UNL     1       1.156  10.689  19.070  0.00  0.00    +0.000 N 
ENDROOT
BRANCH   6  11
ATOM     11  C   UNL     1       2.771   5.815  18.783  0.00  0.00    +0.000 A 
ATOM     12  C   UNL     1       4.170   5.775  18.680  0.00  0.00    +0.000 A 
ATOM     13  C   UNL     1       4.781   4.735  17.975  0.00  0.00    +0.000 A 
ATOM     14  C   UNL     1       3.995   3.786  17.329  0.00  0.00    +0.000 A 
ATOM     15  F   UNL     1       4.585   2.791  16.653  0.00  0.00    +0.000 F 
ATOM     16  C   UNL     1       2.608   3.850  17.376  0.00  0.00    +0.000 A 
ATOM     17  C   UNL     1       1.991   4.858  18.119  0.00  0.00    +0.000 A 
ENDBRANCH   6  11
BRANCH  10  18
ATOM     18  C   UNL     1       0.829  12.105  18.892  0.00  0.00    +0.000 C 
BRANCH  18  19
ATOM     19  C   UNL     1      -0.685  12.399  18.703  0.00  0.00    +0.000 C 
ATOM     20  C   UNL     1      -1.467  11.090  18.505  0.00  0.00    +0.000 C 
ATOM     21  C   UNL     1      -2.975  11.346  18.394  0.00  0.00    +0.000 C 
ATOM     22  N   UNL     1      -3.511  12.083  19.555  0.00  0.00    +0.000 NA
ATOM     23  C   UNL     1      -2.786  13.351  19.744  0.00  0.00    +0.000 C 
ATOM     24  C   UNL     1      -1.283  13.120  19.916  0.00  0.00    +0.000 C 
BRANCH  19  25
ATOM     25  O   UNL     1      -0.874  13.224  17.544  0.00  0.00    +0.000 OA
ATOM     26  H   UNL     1      -1.372  12.717  16.873  0.00  0.00    +0.000 HD
ENDBRANCH  19  25
BRANCH  22  27
ATOM     27  C   UNL     1      -4.951  12.343  19.325  0.00  0.00    +0.000 C 
BRANCH  27  28
ATOM     28  C   UNL     1      -5.805  12.396  20.576  0.00  0.00    +0.000 A 
ATOM     29  C   UNL     1      -7.135  11.945  20.550  0.00  0.00    +0.000 A 
ATOM     30  C   UNL     1      -7.894  11.900  21.721  0.00  0.00    +0.000 A 
ATOM     31  C   UNL     1      -7.335  12.308  22.929  0.00  0.00    +0.000 A 
ATOM     32  C   UNL     1      -6.028  12.796  22.962  0.00  0.00    +0.000 A 
ATOM     33  C   UNL     1      -5.270  12.848  21.790  0.00  0.00    +0.000 A 
ENDBRANCH  27  28
ENDBRANCH  22  27
ENDBRANCH  18  19
ENDBRANCH  10  18
TORSDOF 6
ENDMDL
MODEL 8
REMARK VINA RESULT:      -8.0      3.695      4.801
REMARK  Name = 
REMARK  6 active torsions:
REMARK  status: ('A' for Active; 'I' for Inactive)
REMARK    1  A    between atoms: N_6  and  C_7
REMARK    2  A    between atoms: N_17  and  C_18
REMARK    3  A    between atoms: C_18  and  C_19
REMARK    4  A    between atoms: C_19  and  O_20
REMARK    5  A    between atoms: N_23  and  C_24
REMARK    6  A    between atoms: C_24  and  C_25
REMARK                            x       y       z     vdW  Elec       q    Type
REMARK                         _______ _______ _______ _____ _____    ______ ____
ROOT
ATOM      1  O   UNL     1       0.673   8.196  21.124  0.00  0.00    +0.000 OA
ATOM      2  C   UNL     1       1.304   8.136  20.075  0.00  0.00    +0.000 A 
ATOM      3  C   UNL     1       2.260   7.098  19.793  0.00  0.00    +0.000 A 
ATOM      4  C   UNL     1       2.654   5.924  20.441  0.00  0.00    +0.000 A 
ATOM      5  N   UNL     1       3.532   5.218  19.719  0.00  0.00    +0.000 NA
ATOM      6  N   UNL     1       3.789   6.004  18.630  0.00  0.00    +0.000 N 
ATOM      7  C   UNL     1       2.992   7.142  18.631  0.00  0.00    +0.000 A 
ATOM      8  N   UNL     1       2.866   8.058  17.635  0.00  0.00    +0.000 NA
ATOM      9  C   UNL     1       1.961   8.958  17.873  0.00  0.00    +0.000 A 
ATOM     10  N   UNL     1       1.191   9.067  19.028  0.00  0.00    +0.000 N 
ENDROOT
BRANCH   6  11
ATOM     11  C   UNL     1       4.740   5.610  17.652  0.00  0.00    +0.000 A 
ATOM     12  C   UNL     1       4.402   4.620  16.718  0.00  0.00    +0.000 A 
ATOM     13  C   UNL     1       5.297   4.302  15.694  0.00  0.00    +0.000 A 
ATOM     14  C   UNL     1       6.541   4.925  15.647  0.00  0.00    +0.000 A 
ATOM     15  F   UNL     1       7.396   4.617  14.664  0.00  0.00    +0.000 F 
ATOM     16  C   UNL     1       6.908   5.865  16.602  0.00  0.00    +0.000 A 
ATOM     17  C   UNL     1       6.000   6.224  17.600  0.00  0.00    +0.000 A 
ENDBRANCH   6  11
BRANCH  10  18
ATOM     18  C   UNL     1       0.276  10.200  19.187  0.00  0.00    +0.000 C 
BRANCH  18  19
ATOM     19  C   UNL     1       0.955  11.595  19.099  0.00  0.00    +0.000 C 
ATOM     20  C   UNL     1      -0.008  12.623  18.481  0.00  0.00    +0.000 C 
ATOM     21  C   UNL     1       0.609  14.027  18.453  0.00  0.00    +0.000 C 
ATOM     22  N   UNL     1       1.043  14.480  19.789  0.00  0.00    +0.000 NA
ATOM     23  C   UNL     1       1.984  13.516  20.384  0.00  0.00    +0.000 C 
ATOM     24  C   UNL     1       1.372  12.116  20.478  0.00  0.00    +0.000 C 
BRANCH  19  25
ATOM     25  O   UNL     1       2.123  11.509  18.271  0.00  0.00    +0.000 OA
ATOM     26  H   UNL     1       2.766  12.187  18.559  0.00  0.00    +0.000 HD
ENDBRANCH  19  25
BRANCH  22  27
ATOM     27  C   UNL     1       1.686  15.808  19.651  0.00  0.00    +0.000 C 
BRANCH  27  28
ATOM     28  C   UNL     1       0.931  16.805  18.795  0.00  0.00    +0.000 A 
ATOM     29  C   UNL     1       1.582  17.484  17.752  0.00  0.00    +0.000 A 
ATOM     30  C   UNL     1       0.869  18.328  16.899  0.00  0.00    +0.000 A 
ATOM     31  C   UNL     1      -0.500  18.506  17.080  0.00  0.00    +0.000 A 
ATOM     32  C   UNL     1      -1.151  17.869  18.137  0.00  0.00    +0.000 A 
ATOM     33  C   UNL     1      -0.438  17.029  18.995  0.00  0.00    +0.000 A 
ENDBRANCH  27  28
ENDBRANCH  22  27
ENDBRANCH  18  19
ENDBRANCH  10  18
TORSDOF 6
ENDMDL
MODEL 9
REMARK VINA RESULT:      -8.0      1.510      2.004
REMARK  Name = 
REMARK  6 active torsions:
REMARK  status: ('A' for Active; 'I' for Inactive)
REMARK    1  A    between atoms: N_6  and  C_7
REMARK    2  A    between atoms: N_17  and  C_18
REMARK    3  A    between atoms: C_18  and  C_19
REMARK    4  A    between atoms: C_19  and  O_20
REMARK    5  A    between atoms: N_23  and  C_24
REMARK    6  A    between atoms: C_24  and  C_25
REMARK                            x       y       z     vdW  Elec       q    Type
REMARK                         _______ _______ _______ _____ _____    ______ ____
ROOT
ATOM      1  O   UNL     1       0.431  10.930  21.843  0.00  0.00    +0.000 OA
ATOM      2  C   UNL     1       0.846  10.452  20.793  0.00  0.00    +0.000 A 
ATOM      3  C   UNL     1       1.258   9.080  20.664  0.00  0.00    +0.000 A 
ATOM      4  C   UNL     1       1.224   7.961  21.502  0.00  0.00    +0.000 A 
ATOM      5  N   UNL     1       1.643   6.852  20.883  0.00  0.00    +0.000 NA
ATOM      6  N   UNL     1       2.056   7.283  19.652  0.00  0.00    +0.000 N 
ATOM      7  C   UNL     1       1.792   8.636  19.479  0.00  0.00    +0.000 A 
ATOM      8  N   UNL     1       1.922   9.358  18.335  0.00  0.00    +0.000 NA
ATOM      9  C   UNL     1       1.495  10.580  18.444  0.00  0.00    +0.000 A 
ATOM     10  N   UNL     1       0.987  11.175  19.596  0.00  0.00    +0.000 N 
ENDROOT
BRANCH   6  11
ATOM     11  C   UNL     1       2.635   6.384  18.719  0.00  0.00    +0.000 A 
ATOM     12  C   UNL     1       3.823   6.739  18.063  0.00  0.00    +0.000 A 
ATOM     13  C   UNL     1       4.450   5.816  17.222  0.00  0.00    +0.000 A 
ATOM     14  C   UNL     1       3.857   4.577  16.994  0.00  0.00    +0.000 A 
ATOM     15  F   UNL     1       4.460   3.696  16.186  0.00  0.00    +0.000 F 
ATOM     16  C   UNL     1       2.650   4.238  17.594  0.00  0.00    +0.000 A 
ATOM     17  C   UNL     1       2.043   5.136  18.474  0.00  0.00    +0.000 A 
ENDBRANCH   6  11
BRANCH  10  18
ATOM     18  C   UNL     1       0.636  12.597  19.584  0.00  0.00    +0.000 C 
BRANCH  18  19
ATOM     19  C   UNL     1      -0.852  12.891  19.250  0.00  0.00    +0.000 C 
ATOM     20  C   UNL     1      -1.559  11.613  18.767  0.00  0.00    +0.000 C 
ATOM     21  C   UNL     1      -3.049  11.858  18.504  0.00  0.00    +0.000 C 
ATOM     22  N   UNL     1      -3.749  12.407  19.682  0.00  0.00    +0.000 NA
ATOM     23  C   UNL     1      -3.096  13.645  20.142  0.00  0.00    +0.000 C 
ATOM     24  C   UNL     1      -1.619  13.416  20.468  0.00  0.00    +0.000 C 
BRANCH  19  25
ATOM     25  O   UNL     1      -0.925  13.874  18.207  0.00  0.00    +0.000 OA
ATOM     26  H   UNL     1      -1.511  13.541  17.498  0.00  0.00    +0.000 HD
ENDBRANCH  19  25
BRANCH  22  27
ATOM     27  C   UNL     1      -5.158  12.675  19.312  0.00  0.00    +0.000 C 
BRANCH  27  28
ATOM     28  C   UNL     1      -6.178  11.741  19.932  0.00  0.00    +0.000 A 
ATOM     29  C   UNL     1      -6.470  10.506  19.331  0.00  0.00    +0.000 A 
ATOM     30  C   UNL     1      -7.333   9.600  19.950  0.00  0.00    +0.000 A 
ATOM     31  C   UNL     1      -7.916   9.919  21.174  0.00  0.00    +0.000 A 
ATOM     32  C   UNL     1      -7.665  11.159  21.762  0.00  0.00    +0.000 A 
ATOM     33  C   UNL     1      -6.807  12.069  21.141  0.00  0.00    +0.000 A 
ENDBRANCH  27  28
ENDBRANCH  22  27
ENDBRANCH  18  19
ENDBRANCH  10  18
TORSDOF 6
ENDMDL
