MODEL 1
REMARK VINA RESULT:      -7.5      0.000      0.000
REMARK  Name = 
REMARK  6 active torsions:
REMARK  status: ('A' for Active; 'I' for Inactive)
REMARK    1  A    between atoms: C_2  and  O_3
REMARK    2  A    between atoms: C_2  and  C_4
REMARK    3  A    between atoms: C_9  and  C_10
REMARK    4  A    between atoms: N_12  and  C_13
REMARK    5  A    between atoms: C_13  and  C_14
REMARK    6  A    between atoms: C_14  and  C_15
REMARK                            x       y       z     vdW  Elec       q    Type
REMARK                         _______ _______ _______ _____ _____    ______ ____
ROOT
ATOM      1  C   UNL     1       4.655   4.494  19.442  0.00  0.00    +0.000 C 
ATOM      2  O   UNL     1       4.144   5.610  19.523  0.00  0.00    +0.000 OA
ATOM      3  N   UNL     1       6.022   4.347  19.404  0.00  0.00    +0.000 N 
ATOM      4  H   UNL     1       6.407   3.480  19.025  0.00  0.00    +0.000 HD
ENDROOT
BRANCH   1  10
ATOM      5  C   UNL     1       2.351   3.363  19.843  0.00  0.00    +0.000 C 
ATOM      6  C   UNL     1       1.592   4.325  18.917  0.00  0.00    +0.000 C 
ATOM      7  C   UNL     1       1.620   3.847  17.464  0.00  0.00    +0.000 C 
ATOM      8  C   UNL     1       3.027   3.562  16.959  0.00  0.00    +0.000 C 
ATOM      9  C   UNL     1       3.815   2.664  17.920  0.00  0.00    +0.000 C 
ATOM     10  C   UNL     1       3.820   3.202  19.367  0.00  0.00    +0.000 C 
BRANCH   5  12
ATOM     11  O   UNL     1       2.153   2.818  22.194  0.00  0.00    +0.000 OA
ATOM     12  C   UNL     1       2.281   3.680  21.332  0.00  0.00    +0.000 C 
BRANCH  12  13
ATOM     13  O   UNL     1       2.294   4.984  21.666  0.00  0.00    +0.000 OA
ATOM     14  H   UNL     1       1.449   5.462  21.603  0.00  0.00    +0.000 HD
ENDBRANCH  12  13
ENDBRANCH   5  12
ENDBRANCH   1  10
BRANCH   3  15
ATOM     15  C   UNL     1       6.867   5.523  19.490  0.00  0.00    +0.000 C 
BRANCH  15  16
ATOM     16  C   UNL     1       7.737   5.736  18.254  0.00  0.00    +0.000 C 
BRANCH  16  17
ATOM     17  C   UNL     1       6.953   5.502  16.985  0.00  0.00    +0.000 A 
ATOM     18  C   UNL     1       5.960   6.407  16.582  0.00  0.00    +0.000 A 
ATOM     19  C   UNL     1       5.219   6.174  15.421  0.00  0.00    +0.000 A 
ATOM     20  C   UNL     1       5.457   5.034  14.656  0.00  0.00    +0.000 A 
ATOM     21  C   UNL     1       6.433   4.123  15.052  0.00  0.00    +0.000 A 
ATOM     22  C   UNL     1       7.176   4.352  16.212  0.00  0.00    +0.000 A 
ENDBRANCH  16  17
ENDBRANCH  15  16
ENDBRANCH   3  15
TORSDOF 6
ENDMDL
MODEL 2
REMARK VINA RESULT:      -7.5      0.177      1.094
REMARK  Name = 
REMARK  6 active torsions:
REMARK  status: ('A' for Active; 'I' for Inactive)
REMARK    1  A    between atoms: C_2  and  O_3
REMARK    2  A    between atoms: C_2  and  C_4
REMARK    3  A    between atoms: C_9  and  C_10
REMARK    4  A    between atoms: N_12  and  C_13
REMARK    5  A    between atoms: C_13  and  C_14
REMARK    6  A    between atoms: C_14  and  C_15
REMARK                            x       y       z     vdW  Elec       q    Type
REMARK                         _______ _______ _______ _____ _____    ______ ____
ROOT
ATOM      1  C   UNL     1       4.741   4.581  19.501  0.00  0.00    +0.000 C 
ATOM      2  O   UNL     1       4.248   5.707  19.554  0.00  0.00    +0.000 OA
ATOM      3  N   UNL     1       6.104   4.412  19.444  0.00  0.00    +0.000 N 
ATOM      4  H   UNL     1       6.470   3.527  19.087  0.00  0.00    +0.000 HD
ENDROOT
BRANCH   1  10
ATOM      5  C   UNL     1       2.397   3.521  19.862  0.00  0.00    +0.000 C 
ATOM      6  C   UNL     1       1.708   4.417  18.822  0.00  0.00    +0.000 C 
ATOM      7  C   UNL     1       1.805   3.823  17.416  0.00  0.00    +0.000 C 
ATOM      8  C   UNL     1       3.231   3.476  17.014  0.00  0.00    +0.000 C 
ATOM      9  C   UNL     1       3.949   2.647  18.085  0.00  0.00    +0.000 C 
ATOM     10  C   UNL     1       3.885   3.300  19.483  0.00  0.00    +0.000 C 
BRANCH   5  12
ATOM     11  O   UNL     1       2.169   3.166  22.247  0.00  0.00    +0.000 OA
ATOM     12  C   UNL     1       2.252   3.959  21.315  0.00  0.00    +0.000 C 
BRANCH  12  13
ATOM     13  O   UNL     1       2.147   5.283  21.532  0.00  0.00    +0.000 OA
ATOM     14  H   UNL     1       2.900   5.835  21.256  0.00  0.00    +0.000 HD
ENDBRANCH  12  13
ENDBRANCH   5  12
ENDBRANCH   1  10
BRANCH   3  15
ATOM     15  C   UNL     1       6.968   5.577  19.476  0.00  0.00    +0.000 C 
BRANCH  15  16
ATOM     16  C   UNL     1       7.795   5.753  18.206  0.00  0.00    +0.000 C 
BRANCH  16  17
ATOM     17  C   UNL     1       6.967   5.491  16.971  0.00  0.00    +0.000 A 
ATOM     18  C   UNL     1       7.189   4.346  16.192  0.00  0.00    +0.000 A 
ATOM     19  C   UNL     1       6.438   4.120  15.036  0.00  0.00    +0.000 A 
ATOM     20  C   UNL     1       5.465   5.036  14.643  0.00  0.00    +0.000 A 
ATOM     21  C   UNL     1       5.244   6.183  15.403  0.00  0.00    +0.000 A 
ATOM     22  C   UNL     1       5.992   6.412  16.559  0.00  0.00    +0.000 A 
ENDBRANCH  16  17
ENDBRANCH  15  16
ENDBRANCH   3  15
TORSDOF 6
ENDMDL
MODEL 3
REMARK VINA RESULT:      -7.1      2.252      5.932
REMARK  Name = 
REMARK  6 active torsions:
REMARK  status: ('A' for Active; 'I' for Inactive)
REMARK    1  A    between atoms: C_2  and  O_3
REMARK    2  A    between atoms: C_2  and  C_4
REMARK    3  A    between atoms: C_9  and  C_10
REMARK    4  A    between atoms: N_12  and  C_13
REMARK    5  A    between atoms: C_13  and  C_14
REMARK    6  A    between atoms: C_14  and  C_15
REMARK                            x       y       z     vdW  Elec       q    Type
REMARK                         _______ _______ _______ _____ _____    ______ ____
ROOT
ATOM      1  C   UNL     1       4.841   6.403  17.840  0.00  0.00    +0.000 C 
ATOM      2  O   UNL     1       5.032   5.614  18.766  0.00  0.00    +0.000 OA
ATOM      3  N   UNL     1       3.623   7.019  17.681  0.00  0.00    +0.000 N 
ATOM      4  H   UNL     1       3.388   7.401  16.764  0.00  0.00    +0.000 HD
ENDROOT
BRANCH   1  10
ATOM      5  C   UNL     1       7.328   6.158  17.130  0.00  0.00    +0.000 C 
ATOM      6  C   UNL     1       7.285   4.622  17.099  0.00  0.00    +0.000 C 
ATOM      7  C   UNL     1       6.803   4.100  15.744  0.00  0.00    +0.000 C 
ATOM      8  C   UNL     1       5.483   4.717  15.305  0.00  0.00    +0.000 C 
ATOM      9  C   UNL     1       5.496   6.246  15.408  0.00  0.00    +0.000 C 
ATOM     10  C   UNL     1       5.928   6.744  16.803  0.00  0.00    +0.000 C 
BRANCH   5  12
ATOM     11  O   UNL     1       8.336   7.930  18.436  0.00  0.00    +0.000 OA
ATOM     12  C   UNL     1       7.911   6.781  18.392  0.00  0.00    +0.000 C 
BRANCH  12  13
ATOM     13  O   UNL     1       8.009   5.974  19.465  0.00  0.00    +0.000 OA
ATOM     14  H   UNL     1       7.415   5.204  19.491  0.00  0.00    +0.000 HD
ENDBRANCH  12  13
ENDBRANCH   5  12
ENDBRANCH   1  10
BRANCH   3  15
ATOM     15  C   UNL     1       2.561   6.755  18.634  0.00  0.00    +0.000 C 
BRANCH  15  16
ATOM     16  C   UNL     1       1.673   5.578  18.242  0.00  0.00    +0.000 C 
BRANCH  16  17
ATOM     17  C   UNL     1       1.704   4.494  19.293  0.00  0.00    +0.000 A 
ATOM     18  C   UNL     1       1.276   3.193  18.990  0.00  0.00    +0.000 A 
ATOM     19  C   UNL     1       1.282   2.199  19.971  0.00  0.00    +0.000 A 
ATOM     20  C   UNL     1       1.706   2.496  21.265  0.00  0.00    +0.000 A 
ATOM     21  C   UNL     1       2.122   3.788  21.581  0.00  0.00    +0.000 A 
ATOM     22  C   UNL     1       2.118   4.783  20.602  0.00  0.00    +0.000 A 
ENDBRANCH  16  17
ENDBRANCH  15  16
ENDBRANCH   3  15
TORSDOF 6
ENDMDL
MODEL 4
REMARK VINA RESULT:      -7.0      2.019      5.368
REMARK  Name = 
REMARK  6 active torsions:
REMARK  status: ('A' for Active; 'I' for Inactive)
REMARK    1  A    between atoms: C_2  and  O_3
REMARK    2  A    between atoms: C_2  and  C_4
REMARK    3  A    between atoms: C_9  and  C_10
REMARK    4  A    between atoms: N_12  and  C_13
REMARK    5  A    between atoms: C_13  and  C_14
REMARK    6  A    between atoms: C_14  and  C_15
REMARK                            x       y       z     vdW  Elec       q    Type
REMARK                         _______ _______ _______ _____ _____    ______ ____
ROOT
ATOM      1  C   UNL     1       4.886   6.272  18.332  0.00  0.00    +0.000 C 
ATOM      2  O   UNL     1       5.384   5.613  19.245  0.00  0.00    +0.000 OA
ATOM      3  N   UNL     1       3.575   6.681  18.393  0.00  0.00    +0.000 N 
ATOM      4  H   UNL     1       3.105   6.934  17.523  0.00  0.00    +0.000 HD
ENDROOT
BRANCH   1  10
ATOM      5  C   UNL     1       7.184   6.306  17.121  0.00  0.00    +0.000 C 
ATOM      6  C   UNL     1       7.363   4.782  17.177  0.00  0.00    +0.000 C 
ATOM      7  C   UNL     1       6.697   4.093  15.984  0.00  0.00    +0.000 C 
ATOM      8  C   UNL     1       5.239   4.490  15.805  0.00  0.00    +0.000 C 
ATOM      9  C   UNL     1       5.047   6.010  15.827  0.00  0.00    +0.000 C 
ATOM     10  C   UNL     1       5.676   6.672  17.072  0.00  0.00    +0.000 C 
BRANCH   5  12
ATOM     11  O   UNL     1       8.188   8.290  18.080  0.00  0.00    +0.000 OA
ATOM     12  C   UNL     1       7.914   7.101  18.197  0.00  0.00    +0.000 C 
BRANCH  12  13
ATOM     13  O   UNL     1       8.318   6.408  19.279  0.00  0.00    +0.000 OA
ATOM     14  H   UNL     1       7.795   5.624  19.519  0.00  0.00    +0.000 HD
ENDBRANCH  12  13
ENDBRANCH   5  12
ENDBRANCH   1  10
BRANCH   3  15
ATOM     15  C   UNL     1       2.781   6.353  19.562  0.00  0.00    +0.000 C 
BRANCH  15  16
ATOM     16  C   UNL     1       1.720   5.289  19.295  0.00  0.00    +0.000 C 
BRANCH  16  17
ATOM     17  C   UNL     1       2.350   3.954  18.975  0.00  0.00    +0.000 A 
ATOM     18  C   UNL     1       3.160   3.303  19.916  0.00  0.00    +0.000 A 
ATOM     19  C   UNL     1       3.762   2.081  19.607  0.00  0.00    +0.000 A 
ATOM     20  C   UNL     1       3.567   1.502  18.355  0.00  0.00    +0.000 A 
ATOM     21  C   UNL     1       2.773   2.145  17.408  0.00  0.00    +0.000 A 
ATOM     22  C   UNL     1       2.170   3.367  17.714  0.00  0.00    +0.000 A 
ENDBRANCH  16  17
ENDBRANCH  15  16
ENDBRANCH   3  15
TORSDOF 6
ENDMDL
MODEL 5
REMARK VINA RESULT:      -6.9      1.524      2.515
REMARK  Name = 
REMARK  6 active torsions:
REMARK  status: ('A' for Active; 'I' for Inactive)
REMARK    1  A    between atoms: C_2  and  O_3
REMARK    2  A    between atoms: C_2  and  C_4
REMARK    3  A    between atoms: C_9  and  C_10
REMARK    4  A    between atoms: N_12  and  C_13
REMARK    5  A    between atoms: C_13  and  C_14
REMARK    6  A    between atoms: C_14  and  C_15
REMARK                            x       y       z     vdW  Elec       q    Type
REMARK                         _______ _______ _______ _____ _____    ______ ____
ROOT
ATOM      1  C   UNL     1       4.251   4.674  19.280  0.00  0.00    +0.000 C 
ATOM      2  O   UNL     1       3.952   5.750  19.798  0.00  0.00    +0.000 OA
ATOM      3  N   UNL     1       5.567   4.325  19.092  0.00  0.00    +0.000 N 
ATOM      4  H   UNL     1       5.785   3.608  18.397  0.00  0.00    +0.000 HD
ENDROOT
BRANCH   1  10
ATOM      5  C   UNL     1       3.055   2.408  19.709  0.00  0.00    +0.000 C 
ATOM      6  C   UNL     1       2.551   2.809  21.103  0.00  0.00    +0.000 C 
ATOM      7  C   UNL     1       1.214   3.548  21.027  0.00  0.00    +0.000 C 
ATOM      8  C   UNL     1       1.241   4.730  20.069  0.00  0.00    +0.000 C 
ATOM      9  C   UNL     1       1.816   4.351  18.700  0.00  0.00    +0.000 C 
ATOM     10  C   UNL     1       3.193   3.661  18.803  0.00  0.00    +0.000 C 
BRANCH   5  12
ATOM     11  O   UNL     1       5.229   1.684  20.490  0.00  0.00    +0.000 OA
ATOM     12  C   UNL     1       4.319   1.558  19.678  0.00  0.00    +0.000 C 
BRANCH  12  13
ATOM     13  O   UNL     1       4.430   0.690  18.655  0.00  0.00    +0.000 OA
ATOM     14  H   UNL     1       4.686  -0.222  18.879  0.00  0.00    +0.000 HD
ENDBRANCH  12  13
ENDBRANCH   5  12
ENDBRANCH   1  10
BRANCH   3  15
ATOM     15  C   UNL     1       6.613   5.227  19.535  0.00  0.00    +0.000 C 
BRANCH  15  16
ATOM     16  C   UNL     1       7.310   5.957  18.391  0.00  0.00    +0.000 C 
BRANCH  16  17
ATOM     17  C   UNL     1       6.717   5.576  17.056  0.00  0.00    +0.000 A 
ATOM     18  C   UNL     1       7.189   4.455  16.359  0.00  0.00    +0.000 A 
ATOM     19  C   UNL     1       6.655   4.120  15.112  0.00  0.00    +0.000 A 
ATOM     20  C   UNL     1       5.652   4.904  14.547  0.00  0.00    +0.000 A 
ATOM     21  C   UNL     1       5.183   6.027  15.225  0.00  0.00    +0.000 A 
ATOM     22  C   UNL     1       5.714   6.364  16.471  0.00  0.00    +0.000 A 
ENDBRANCH  16  17
ENDBRANCH  15  16
ENDBRANCH   3  15
TORSDOF 6
ENDMDL
MODEL 6
REMARK VINA RESULT:      -6.9      1.454      2.111
REMARK  Name = 
REMARK  6 active torsions:
REMARK  status: ('A' for Active; 'I' for Inactive)
REMARK    1  A    between atoms: C_2  and  O_3
REMARK    2  A    between atoms: C_2  and  C_4
REMARK    3  A    between atoms: C_9  and  C_10
REMARK    4  A    between atoms: N_12  and  C_13
REMARK    5  A    between atoms: C_13  and  C_14
REMARK    6  A    between atoms: C_14  and  C_15
REMARK                            x       y       z     vdW  Elec       q    Type
REMARK                         _______ _______ _______ _____ _____    ______ ____
ROOT
ATOM      1  C   UNL     1       4.554   4.542  19.234  0.00  0.00    +0.000 C 
ATOM      2  O   UNL     1       4.147   5.618  19.673  0.00  0.00    +0.000 OA
ATOM      3  N   UNL     1       5.902   4.294  19.122  0.00  0.00    +0.000 N 
ATOM      4  H   UNL     1       6.208   3.559  18.482  0.00  0.00    +0.000 HD
ENDROOT
BRANCH   1  10
ATOM      5  C   UNL     1       3.312   2.348  19.860  0.00  0.00    +0.000 C 
ATOM      6  C   UNL     1       2.564   2.977  21.045  0.00  0.00    +0.000 C 
ATOM      7  C   UNL     1       1.259   3.638  20.599  0.00  0.00    +0.000 C 
ATOM      8  C   UNL     1       1.452   4.626  19.458  0.00  0.00    +0.000 C 
ATOM      9  C   UNL     1       2.265   4.027  18.305  0.00  0.00    +0.000 C 
ATOM     10  C   UNL     1       3.604   3.420  18.776  0.00  0.00    +0.000 C 
BRANCH   5  12
ATOM     11  O   UNL     1       5.294   1.840  21.154  0.00  0.00    +0.000 OA
ATOM     12  C   UNL     1       4.566   1.556  20.210  0.00  0.00    +0.000 C 
BRANCH  12  13
ATOM     13  O   UNL     1       4.888   0.549  19.377  0.00  0.00    +0.000 OA
ATOM     14  H   UNL     1       5.814   0.500  19.083  0.00  0.00    +0.000 HD
ENDBRANCH  12  13
ENDBRANCH   5  12
ENDBRANCH   1  10
BRANCH   3  15
ATOM     15  C   UNL     1       6.850   5.303  19.554  0.00  0.00    +0.000 C 
BRANCH  15  16
ATOM     16  C   UNL     1       7.545   6.016  18.397  0.00  0.00    +0.000 C 
BRANCH  16  17
ATOM     17  C   UNL     1       6.882   5.697  17.079  0.00  0.00    +0.000 A 
ATOM     18  C   UNL     1       5.854   6.511  16.581  0.00  0.00    +0.000 A 
ATOM     19  C   UNL     1       5.225   6.199  15.373  0.00  0.00    +0.000 A 
ATOM     20  C   UNL     1       5.611   5.068  14.656  0.00  0.00    +0.000 A 
ATOM     21  C   UNL     1       6.623   4.246  15.147  0.00  0.00    +0.000 A 
ATOM     22  C   UNL     1       7.254   4.556  16.353  0.00  0.00    +0.000 A 
ENDBRANCH  16  17
ENDBRANCH  15  16
ENDBRANCH   3  15
TORSDOF 6
ENDMDL
MODEL 7
REMARK VINA RESULT:      -6.8      2.014      5.399
REMARK  Name = 
REMARK  6 active torsions:
REMARK  status: ('A' for Active; 'I' for Inactive)
REMARK    1  A    between atoms: C_2  and  O_3
REMARK    2  A    between atoms: C_2  and  C_4
REMARK    3  A    between atoms: C_9  and  C_10
REMARK    4  A    between atoms: N_12  and  C_13
REMARK    5  A    between atoms: C_13  and  C_14
REMARK    6  A    between atoms: C_14  and  C_15
REMARK                            x       y       z     vdW  Elec       q    Type
REMARK                         _______ _______ _______ _____ _____    ______ ____
ROOT
ATOM      1  C   UNL     1       4.886   6.388  18.058  0.00  0.00    +0.000 C 
ATOM      2  O   UNL     1       4.989   5.585  18.984  0.00  0.00    +0.000 OA
ATOM      3  N   UNL     1       3.691   7.021  17.806  0.00  0.00    +0.000 N 
ATOM      4  H   UNL     1       3.539   7.419  16.877  0.00  0.00    +0.000 HD
ENDROOT
BRANCH   1  10
ATOM      5  C   UNL     1       7.345   5.898  17.377  0.00  0.00    +0.000 C 
ATOM      6  C   UNL     1       7.085   4.413  17.081  0.00  0.00    +0.000 C 
ATOM      7  C   UNL     1       6.601   4.202  15.645  0.00  0.00    +0.000 C 
ATOM      8  C   UNL     1       5.406   5.073  15.286  0.00  0.00    +0.000 C 
ATOM      9  C   UNL     1       5.631   6.544  15.652  0.00  0.00    +0.000 C 
ATOM     10  C   UNL     1       6.060   6.732  17.123  0.00  0.00    +0.000 C 
BRANCH   5  12
ATOM     11  O   UNL     1       7.947   5.407  19.670  0.00  0.00    +0.000 OA
ATOM     12  C   UNL     1       7.947   6.208  18.742  0.00  0.00    +0.000 C 
BRANCH  12  13
ATOM     13  O   UNL     1       8.427   7.454  18.914  0.00  0.00    +0.000 OA
ATOM     14  H   UNL     1       8.600   7.973  18.109  0.00  0.00    +0.000 HD
ENDBRANCH  12  13
ENDBRANCH   5  12
ENDBRANCH   1  10
BRANCH   3  15
ATOM     15  C   UNL     1       2.550   6.755  18.661  0.00  0.00    +0.000 C 
BRANCH  15  16
ATOM     16  C   UNL     1       1.501   5.857  18.011  0.00  0.00    +0.000 C 
BRANCH  16  17
ATOM     17  C   UNL     1       1.748   4.403  18.336  0.00  0.00    +0.000 A 
ATOM     18  C   UNL     1       1.279   3.850  19.536  0.00  0.00    +0.000 A 
ATOM     19  C   UNL     1       1.531   2.511  19.844  0.00  0.00    +0.000 A 
ATOM     20  C   UNL     1       2.258   1.715  18.962  0.00  0.00    +0.000 A 
ATOM     21  C   UNL     1       2.738   2.257  17.772  0.00  0.00    +0.000 A 
ATOM     22  C   UNL     1       2.488   3.594  17.460  0.00  0.00    +0.000 A 
ENDBRANCH  16  17
ENDBRANCH  15  16
ENDBRANCH   3  15
TORSDOF 6
ENDMDL
MODEL 8
REMARK VINA RESULT:      -6.8      2.030      5.532
REMARK  Name = 
REMARK  6 active torsions:
REMARK  status: ('A' for Active; 'I' for Inactive)
REMARK    1  A    between atoms: C_2  and  O_3
REMARK    2  A    between atoms: C_2  and  C_4
REMARK    3  A    between atoms: C_9  and  C_10
REMARK    4  A    between atoms: N_12  and  C_13
REMARK    5  A    between atoms: C_13  and  C_14
REMARK    6  A    between atoms: C_14  and  C_15
REMARK                            x       y       z     vdW  Elec       q    Type
REMARK                         _______ _______ _______ _____ _____    ______ ____
ROOT
ATOM      1  C   UNL     1       4.881   6.382  18.013  0.00  0.00    +0.000 C 
ATOM      2  O   UNL     1       4.952   5.501  18.870  0.00  0.00    +0.000 OA
ATOM      3  N   UNL     1       3.720   7.096  17.833  0.00  0.00    +0.000 N 
ATOM      4  H   UNL     1       3.578   7.576  16.942  0.00  0.00    +0.000 HD
ENDROOT
BRANCH   1  10
ATOM      5  C   UNL     1       7.355   5.926  17.365  0.00  0.00    +0.000 C 
ATOM      6  C   UNL     1       7.123   4.435  17.077  0.00  0.00    +0.000 C 
ATOM      7  C   UNL     1       6.660   4.206  15.638  0.00  0.00    +0.000 C 
ATOM      8  C   UNL     1       5.454   5.054  15.258  0.00  0.00    +0.000 C 
ATOM      9  C   UNL     1       5.652   6.531  15.614  0.00  0.00    +0.000 C 
ATOM     10  C   UNL     1       6.061   6.738  17.089  0.00  0.00    +0.000 C 
BRANCH   5  12
ATOM     11  O   UNL     1       7.881   5.487  19.687  0.00  0.00    +0.000 OA
ATOM     12  C   UNL     1       7.937   6.256  18.734  0.00  0.00    +0.000 C 
BRANCH  12  13
ATOM     13  O   UNL     1       8.464   7.487  18.878  0.00  0.00    +0.000 OA
ATOM     14  H   UNL     1       9.352   7.630  18.506  0.00  0.00    +0.000 HD
ENDBRANCH  12  13
ENDBRANCH   5  12
ENDBRANCH   1  10
BRANCH   3  15
ATOM     15  C   UNL     1       2.577   6.823  18.683  0.00  0.00    +0.000 C 
BRANCH  15  16
ATOM     16  C   UNL     1       1.533   5.924  18.027  0.00  0.00    +0.000 C 
BRANCH  16  17
ATOM     17  C   UNL     1       1.694   4.487  18.463  0.00  0.00    +0.000 A 
ATOM     18  C   UNL     1       2.227   3.530  17.587  0.00  0.00    +0.000 A 
ATOM     19  C   UNL     1       2.350   2.197  17.985  0.00  0.00    +0.000 A 
ATOM     20  C   UNL     1       1.938   1.806  19.257  0.00  0.00    +0.000 A 
ATOM     21  C   UNL     1       1.397   2.746  20.132  0.00  0.00    +0.000 A 
ATOM     22  C   UNL     1       1.272   4.079  19.737  0.00  0.00    +0.000 A 
ENDBRANCH  16  17
ENDBRANCH  15  16
ENDBRANCH   3  15
TORSDOF 6
ENDMDL
MODEL 9
REMARK VINA RESULT:      -6.7      2.391      5.760
REMARK  Name = 
REMARK  6 active torsions:
REMARK  status: ('A' for Active; 'I' for Inactive)
REMARK    1  A    between atoms: C_2  and  O_3
REMARK    2  A    between atoms: C_2  and  C_4
REMARK    3  A    between atoms: C_9  and  C_10
REMARK    4  A    between atoms: N_12  and  C_13
REMARK    5  A    between atoms: C_13  and  C_14
REMARK    6  A    between atoms: C_14  and  C_15
REMARK                            x       y       z     vdW  Elec       q    Type
REMARK                         _______ _______ _______ _____ _____    ______ ____
ROOT
ATOM      1  C   UNL     1       5.806   4.030  18.028  0.00  0.00    +0.000 C 
ATOM      2  O   UNL     1       5.571   4.339  19.196  0.00  0.00    +0.000 OA
ATOM      3  N   UNL     1       4.883   3.332  17.286  0.00  0.00    +0.000 N 
ATOM      4  H   UNL     1       5.207   2.822  16.462  0.00  0.00    +0.000 HD
ENDROOT
BRANCH   1  10
ATOM      5  C   UNL     1       7.015   5.530  16.286  0.00  0.00    +0.000 C 
ATOM      6  C   UNL     1       6.623   6.844  16.979  0.00  0.00    +0.000 C 
ATOM      7  C   UNL     1       7.628   7.227  18.067  0.00  0.00    +0.000 C 
ATOM      8  C   UNL     1       7.877   6.106  19.067  0.00  0.00    +0.000 C 
ATOM      9  C   UNL     1       8.192   4.775  18.377  0.00  0.00    +0.000 C 
ATOM     10  C   UNL     1       7.130   4.384  17.326  0.00  0.00    +0.000 C 
BRANCH   5  12
ATOM     11  O   UNL     1       4.979   5.470  14.975  0.00  0.00    +0.000 OA
ATOM     12  C   UNL     1       6.148   5.120  15.101  0.00  0.00    +0.000 C 
BRANCH  12  13
ATOM     13  O   UNL     1       6.710   4.280  14.213  0.00  0.00    +0.000 OA
ATOM     14  H   UNL     1       7.025   4.668  13.379  0.00  0.00    +0.000 HD
ENDBRANCH  12  13
ENDBRANCH   5  12
ENDBRANCH   1  10
BRANCH   3  15
ATOM     15  C   UNL     1       3.607   2.982  17.882  0.00  0.00    +0.000 C 
BRANCH  15  16
ATOM     16  C   UNL     1       2.463   3.893  17.444  0.00  0.00    +0.000 C 
BRANCH  16  17
ATOM     17  C   UNL     1       2.289   5.052  18.397  0.00  0.00    +0.000 A 
ATOM     18  C   UNL     1       2.574   6.362  17.987  0.00  0.00    +0.000 A 
ATOM     19  C   UNL     1       2.437   7.428  18.879  0.00  0.00    +0.000 A 
ATOM     20  C   UNL     1       2.021   7.196  20.188  0.00  0.00    +0.000 A 
ATOM     21  C   UNL     1       1.746   5.897  20.609  0.00  0.00    +0.000 A 
ATOM     22  C   UNL     1       1.882   4.829  19.721  0.00  0.00    +0.000 A 
ENDBRANCH  16  17
ENDBRANCH  15  16
ENDBRANCH   3  15
TORSDOF 6
ENDMDL
