MODEL 1
REMARK VINA RESULT:      -7.0      0.000      0.000
REMARK  Name = 
REMARK  8 active torsions:
REMARK  status: ('A' for Active; 'I' for Inactive)
REMARK    1  A    between atoms: C_1  and  C_2
REMARK    2  A    between atoms: C_2  and  N_3
REMARK    3  A    between atoms: N_3  and  C_4
REMARK    4  A    between atoms: N_3  and  C_6
REMARK    5  A    between atoms: C_4  and  C_5
REMARK    6  A    between atoms: C_6  and  C_7
REMARK    7  A    between atoms: C_7  and  C_8
REMARK    8  A    between atoms: C_8  and  N_9
REMARK                            x       y       z     vdW  Elec       q    Type
REMARK                         _______ _______ _______ _____ _____    ______ ____
ROOT
ATOM      1  N   UNL     1       3.236   5.927  18.041  0.00  0.00    +0.000 N 
ATOM      2  C   UNL     1       4.283   5.738  17.179  0.00  0.00    +0.000 A 
ATOM      3  C   UNL     1       4.368   4.387  16.900  0.00  0.00    +0.000 A 
ATOM      4  C   UNL     1       3.333   3.726  17.605  0.00  0.00    +0.000 A 
ATOM      5  C   UNL     1       2.941   2.379  17.732  0.00  0.00    +0.000 A 
ATOM      6  C   UNL     1       1.840   2.050  18.525  0.00  0.00    +0.000 A 
ATOM      7  C   UNL     1       1.121   3.045  19.182  0.00  0.00    +0.000 A 
ATOM      8  C   UNL     1       1.492   4.388  19.076  0.00  0.00    +0.000 A 
ATOM      9  C   UNL     1       2.611   4.712  18.290  0.00  0.00    +0.000 A 
ATOM     10  C   UNL     1       5.438   3.851  16.015  0.00  0.00    +0.000 C 
ATOM     11  C   UNL     1       6.078   5.001  15.203  0.00  0.00    +0.000 C 
ATOM     12  N   UNL     1       6.395   6.182  16.033  0.00  0.00    +0.000 NA
ATOM     13  C   UNL     1       5.181   6.787  16.612  0.00  0.00    +0.000 C 
ATOM     14  H   UNL     1       6.862   6.881  15.459  0.00  0.00    +0.000 HD
ENDROOT
BRANCH   1  15
ATOM     15  C   UNL     1       2.876   7.187  18.682  0.00  0.00    +0.000 C 
BRANCH  15  16
ATOM     16  C   UNL     1       2.003   8.036  17.757  0.00  0.00    +0.000 C 
BRANCH  16  17
ATOM     17  C   UNL     1       1.743   9.453  18.283  0.00  0.00    +0.000 C 
BRANCH  17  18
ATOM     18  N   UNL     1       0.509   9.618  19.074  0.00  0.00    +0.000 NA
BRANCH  18  20
ATOM     19  C   UNL     1       0.627   8.568  21.367  0.00  0.00    +0.000 C 
ATOM     20  C   UNL     1       0.792   9.817  20.505  0.00  0.00    +0.000 C 
ENDBRANCH  18  20
BRANCH  18  21
ATOM     21  C   UNL     1      -0.360  10.662  18.492  0.00  0.00    +0.000 C 
ATOM     22  C   UNL     1      -1.709  10.202  17.943  0.00  0.00    +0.000 C 
ENDBRANCH  18  21
ENDBRANCH  17  18
ENDBRANCH  16  17
ENDBRANCH  15  16
ENDBRANCH   1  15
TORSDOF 6
ENDMDL
MODEL 2
REMARK VINA RESULT:      -6.8      1.921      6.341
REMARK  Name = 
REMARK  8 active torsions:
REMARK  status: ('A' for Active; 'I' for Inactive)
REMARK    1  A    between atoms: C_1  and  C_2
REMARK    2  A    between atoms: C_2  and  N_3
REMARK    3  A    between atoms: N_3  and  C_4
REMARK    4  A    between atoms: N_3  and  C_6
REMARK    5  A    between atoms: C_4  and  C_5
REMARK    6  A    between atoms: C_6  and  C_7
REMARK    7  A    between atoms: C_7  and  C_8
REMARK    8  A    between atoms: C_8  and  N_9
REMARK                            x       y       z     vdW  Elec       q    Type
REMARK                         _______ _______ _______ _____ _____    ______ ____
ROOT
ATOM      1  N   UNL     1       3.276   5.731  18.299  0.00  0.00    +0.000 N 
ATOM      2  C   UNL     1       3.222   4.688  19.185  0.00  0.00    +0.000 A 
ATOM      3  C   UNL     1       2.508   5.106  20.292  0.00  0.00    +0.000 A 
ATOM      4  C   UNL     1       2.101   6.444  20.073  0.00  0.00    +0.000 A 
ATOM      5  C   UNL     1       1.384   7.386  20.838  0.00  0.00    +0.000 A 
ATOM      6  C   UNL     1       1.139   8.658  20.316  0.00  0.00    +0.000 A 
ATOM      7  C   UNL     1       1.588   8.997  19.043  0.00  0.00    +0.000 A 
ATOM      8  C   UNL     1       2.305   8.083  18.266  0.00  0.00    +0.000 A 
ATOM      9  C   UNL     1       2.563   6.809  18.803  0.00  0.00    +0.000 A 
ATOM     10  C   UNL     1       2.305   4.205  21.460  0.00  0.00    +0.000 C 
ATOM     11  C   UNL     1       2.613   2.744  21.060  0.00  0.00    +0.000 C 
ATOM     12  N   UNL     1       3.871   2.611  20.297  0.00  0.00    +0.000 NA
ATOM     13  C   UNL     1       3.809   3.327  19.009  0.00  0.00    +0.000 C 
ATOM     14  H   UNL     1       4.049   1.626  20.111  0.00  0.00    +0.000 HD
ENDROOT
BRANCH   1  15
ATOM     15  C   UNL     1       4.039   5.753  17.055  0.00  0.00    +0.000 C 
BRANCH  15  16
ATOM     16  C   UNL     1       4.994   6.947  17.026  0.00  0.00    +0.000 C 
BRANCH  16  17
ATOM     17  C   UNL     1       6.472   6.553  16.905  0.00  0.00    +0.000 C 
BRANCH  17  18
ATOM     18  N   UNL     1       6.730   5.108  16.756  0.00  0.00    +0.000 NA
BRANCH  18  20
ATOM     19  C   UNL     1       6.159   3.913  14.606  0.00  0.00    +0.000 C 
ATOM     20  C   UNL     1       7.158   4.760  15.391  0.00  0.00    +0.000 C 
ENDBRANCH  18  20
BRANCH  18  21
ATOM     21  C   UNL     1       7.649   4.621  17.806  0.00  0.00    +0.000 C 
ATOM     22  C   UNL     1       7.876   5.546  19.000  0.00  0.00    +0.000 C 
ENDBRANCH  18  21
ENDBRANCH  17  18
ENDBRANCH  16  17
ENDBRANCH  15  16
ENDBRANCH   1  15
TORSDOF 6
ENDMDL
MODEL 3
REMARK VINA RESULT:      -6.7      1.000      1.259
REMARK  Name = 
REMARK  8 active torsions:
REMARK  status: ('A' for Active; 'I' for Inactive)
REMARK    1  A    between atoms: C_1  and  C_2
REMARK    2  A    between atoms: C_2  and  N_3
REMARK    3  A    between atoms: N_3  and  C_4
REMARK    4  A    between atoms: N_3  and  C_6
REMARK    5  A    between atoms: C_4  and  C_5
REMARK    6  A    between atoms: C_6  and  C_7
REMARK    7  A    between atoms: C_7  and  C_8
REMARK    8  A    between atoms: C_8  and  N_9
REMARK                            x       y       z     vdW  Elec       q    Type
REMARK                         _______ _______ _______ _____ _____    ______ ____
ROOT
ATOM      1  N   UNL     1       3.183   5.924  18.060  0.00  0.00    +0.000 N 
ATOM      2  C   UNL     1       4.242   5.746  17.209  0.00  0.00    +0.000 A 
ATOM      3  C   UNL     1       4.339   4.396  16.926  0.00  0.00    +0.000 A 
ATOM      4  C   UNL     1       3.300   3.727  17.615  0.00  0.00    +0.000 A 
ATOM      5  C   UNL     1       2.915   2.376  17.731  0.00  0.00    +0.000 A 
ATOM      6  C   UNL     1       1.806   2.037  18.510  0.00  0.00    +0.000 A 
ATOM      7  C   UNL     1       1.073   3.025  19.162  0.00  0.00    +0.000 A 
ATOM      8  C   UNL     1       1.437   4.371  19.067  0.00  0.00    +0.000 A 
ATOM      9  C   UNL     1       2.564   4.704  18.295  0.00  0.00    +0.000 A 
ATOM     10  C   UNL     1       5.424   3.871  16.052  0.00  0.00    +0.000 C 
ATOM     11  C   UNL     1       6.066   5.029  15.252  0.00  0.00    +0.000 C 
ATOM     12  N   UNL     1       6.365   6.208  16.091  0.00  0.00    +0.000 NA
ATOM     13  C   UNL     1       5.140   6.803  16.658  0.00  0.00    +0.000 C 
ATOM     14  H   UNL     1       6.835   6.912  15.526  0.00  0.00    +0.000 HD
ENDROOT
BRANCH   1  15
ATOM     15  C   UNL     1       2.808   7.180  18.702  0.00  0.00    +0.000 C 
BRANCH  15  16
ATOM     16  C   UNL     1       1.950   8.031  17.765  0.00  0.00    +0.000 C 
BRANCH  16  17
ATOM     17  C   UNL     1       2.085   9.540  18.007  0.00  0.00    +0.000 C 
BRANCH  17  18
ATOM     18  N   UNL     1       0.984  10.159  18.769  0.00  0.00    +0.000 NA
BRANCH  18  20
ATOM     19  C   UNL     1       2.262  12.276  18.260  0.00  0.00    +0.000 C 
ATOM     20  C   UNL     1       1.306  11.533  19.190  0.00  0.00    +0.000 C 
ENDBRANCH  18  20
BRANCH  18  21
ATOM     21  C   UNL     1      -0.296  10.049  18.039  0.00  0.00    +0.000 C 
ATOM     22  C   UNL     1      -1.535  10.602  18.742  0.00  0.00    +0.000 C 
ENDBRANCH  18  21
ENDBRANCH  17  18
ENDBRANCH  16  17
ENDBRANCH  15  16
ENDBRANCH   1  15
TORSDOF 6
ENDMDL
MODEL 4
REMARK VINA RESULT:      -6.7      0.483      1.500
REMARK  Name = 
REMARK  8 active torsions:
REMARK  status: ('A' for Active; 'I' for Inactive)
REMARK    1  A    between atoms: C_1  and  C_2
REMARK    2  A    between atoms: C_2  and  N_3
REMARK    3  A    between atoms: N_3  and  C_4
REMARK    4  A    between atoms: N_3  and  C_6
REMARK    5  A    between atoms: C_4  and  C_5
REMARK    6  A    between atoms: C_6  and  C_7
REMARK    7  A    between atoms: C_7  and  C_8
REMARK    8  A    between atoms: C_8  and  N_9
REMARK                            x       y       z     vdW  Elec       q    Type
REMARK                         _______ _______ _______ _____ _____    ______ ____
ROOT
ATOM      1  N   UNL     1       3.076   5.983  18.114  0.00  0.00    +0.000 N 
ATOM      2  C   UNL     1       4.117   5.827  17.238  0.00  0.00    +0.000 A 
ATOM      3  C   UNL     1       4.247   4.478  16.965  0.00  0.00    +0.000 A 
ATOM      4  C   UNL     1       3.245   3.786  17.688  0.00  0.00    +0.000 A 
ATOM      5  C   UNL     1       2.903   2.426  17.826  0.00  0.00    +0.000 A 
ATOM      6  C   UNL     1       1.824   2.063  18.636  0.00  0.00    +0.000 A 
ATOM      7  C   UNL     1       1.080   3.036  19.298  0.00  0.00    +0.000 A 
ATOM      8  C   UNL     1       1.402   4.391  19.180  0.00  0.00    +0.000 A 
ATOM      9  C   UNL     1       2.498   4.749  18.377  0.00  0.00    +0.000 A 
ATOM     10  C   UNL     1       5.323   3.975  16.068  0.00  0.00    +0.000 C 
ATOM     11  C   UNL     1       5.910   5.143  15.241  0.00  0.00    +0.000 C 
ATOM     12  N   UNL     1       6.197   6.339  16.060  0.00  0.00    +0.000 NA
ATOM     13  C   UNL     1       4.970   6.904  16.653  0.00  0.00    +0.000 C 
ATOM     14  H   UNL     1       6.631   7.050  15.477  0.00  0.00    +0.000 HD
ENDROOT
BRANCH   1  15
ATOM     15  C   UNL     1       2.681   7.234  18.753  0.00  0.00    +0.000 C 
BRANCH  15  16
ATOM     16  C   UNL     1       1.867   8.101  17.792  0.00  0.00    +0.000 C 
BRANCH  16  17
ATOM     17  C   UNL     1       2.047   9.607  18.016  0.00  0.00    +0.000 C 
BRANCH  17  18
ATOM     18  N   UNL     1       0.848  10.323  18.491  0.00  0.00    +0.000 NA
BRANCH  18  20
ATOM     19  C   UNL     1      -1.555  10.700  17.815  0.00  0.00    +0.000 C 
ATOM     20  C   UNL     1      -0.395   9.721  17.981  0.00  0.00    +0.000 C 
ENDBRANCH  18  20
BRANCH  18  21
ATOM     21  C   UNL     1       0.869  10.479  19.961  0.00  0.00    +0.000 C 
ATOM     22  C   UNL     1       0.180   9.385  20.775  0.00  0.00    +0.000 C 
ENDBRANCH  18  21
ENDBRANCH  17  18
ENDBRANCH  16  17
ENDBRANCH  15  16
ENDBRANCH   1  15
TORSDOF 6
ENDMDL
MODEL 5
REMARK VINA RESULT:      -6.7      2.460      6.406
REMARK  Name = 
REMARK  8 active torsions:
REMARK  status: ('A' for Active; 'I' for Inactive)
REMARK    1  A    between atoms: C_1  and  C_2
REMARK    2  A    between atoms: C_2  and  N_3
REMARK    3  A    between atoms: N_3  and  C_4
REMARK    4  A    between atoms: N_3  and  C_6
REMARK    5  A    between atoms: C_4  and  C_5
REMARK    6  A    between atoms: C_6  and  C_7
REMARK    7  A    between atoms: C_7  and  C_8
REMARK    8  A    between atoms: C_8  and  N_9
REMARK                            x       y       z     vdW  Elec       q    Type
REMARK                         _______ _______ _______ _____ _____    ______ ____
ROOT
ATOM      1  N   UNL     1       4.000   4.537  18.612  0.00  0.00    +0.000 N 
ATOM      2  C   UNL     1       3.516   3.841  19.687  0.00  0.00    +0.000 A 
ATOM      3  C   UNL     1       2.634   4.660  20.365  0.00  0.00    +0.000 A 
ATOM      4  C   UNL     1       2.565   5.896  19.677  0.00  0.00    +0.000 A 
ATOM      5  C   UNL     1       1.870   7.102  19.899  0.00  0.00    +0.000 A 
ATOM      6  C   UNL     1       2.020   8.162  19.002  0.00  0.00    +0.000 A 
ATOM      7  C   UNL     1       2.842   8.031  17.886  0.00  0.00    +0.000 A 
ATOM      8  C   UNL     1       3.544   6.847  17.645  0.00  0.00    +0.000 A 
ATOM      9  C   UNL     1       3.403   5.789  18.560  0.00  0.00    +0.000 A 
ATOM     10  C   UNL     1       1.964   4.203  21.613  0.00  0.00    +0.000 C 
ATOM     11  C   UNL     1       2.076   2.666  21.740  0.00  0.00    +0.000 C 
ATOM     12  N   UNL     1       3.439   2.165  21.465  0.00  0.00    +0.000 NA
ATOM     13  C   UNL     1       3.853   2.439  20.076  0.00  0.00    +0.000 C 
ATOM     14  H   UNL     1       3.465   1.159  21.618  0.00  0.00    +0.000 HD
ENDROOT
BRANCH   1  15
ATOM     15  C   UNL     1       5.049   4.083  17.704  0.00  0.00    +0.000 C 
BRANCH  15  16
ATOM     16  C   UNL     1       6.420   4.568  18.176  0.00  0.00    +0.000 C 
BRANCH  16  17
ATOM     17  C   UNL     1       7.445   4.717  17.045  0.00  0.00    +0.000 C 
BRANCH  17  18
ATOM     18  N   UNL     1       7.278   5.911  16.195  0.00  0.00    +0.000 NA
BRANCH  18  20
ATOM     19  C   UNL     1       6.585   4.293  14.385  0.00  0.00    +0.000 C 
ATOM     20  C   UNL     1       6.390   5.654  15.048  0.00  0.00    +0.000 C 
ENDBRANCH  18  20
BRANCH  18  21
ATOM     21  C   UNL     1       6.879   7.085  16.999  0.00  0.00    +0.000 C 
ATOM     22  C   UNL     1       7.964   7.721  17.866  0.00  0.00    +0.000 C 
ENDBRANCH  18  21
ENDBRANCH  17  18
ENDBRANCH  16  17
ENDBRANCH  15  16
ENDBRANCH   1  15
TORSDOF 6
ENDMDL
MODEL 6
REMARK VINA RESULT:      -6.7      1.254      3.605
REMARK  Name = 
REMARK  8 active torsions:
REMARK  status: ('A' for Active; 'I' for Inactive)
REMARK    1  A    between atoms: C_1  and  C_2
REMARK    2  A    between atoms: C_2  and  N_3
REMARK    3  A    between atoms: N_3  and  C_4
REMARK    4  A    between atoms: N_3  and  C_6
REMARK    5  A    between atoms: C_4  and  C_5
REMARK    6  A    between atoms: C_6  and  C_7
REMARK    7  A    between atoms: C_7  and  C_8
REMARK    8  A    between atoms: C_8  and  N_9
REMARK                            x       y       z     vdW  Elec       q    Type
REMARK                         _______ _______ _______ _____ _____    ______ ____
ROOT
ATOM      1  N   UNL     1       2.859   6.128  18.734  0.00  0.00    +0.000 N 
ATOM      2  C   UNL     1       2.300   4.958  19.173  0.00  0.00    +0.000 A 
ATOM      3  C   UNL     1       2.812   3.926  18.409  0.00  0.00    +0.000 A 
ATOM      4  C   UNL     1       3.723   4.481  17.477  0.00  0.00    +0.000 A 
ATOM      5  C   UNL     1       4.516   3.941  16.445  0.00  0.00    +0.000 A 
ATOM      6  C   UNL     1       5.334   4.783  15.688  0.00  0.00    +0.000 A 
ATOM      7  C   UNL     1       5.379   6.149  15.955  0.00  0.00    +0.000 A 
ATOM      8  C   UNL     1       4.599   6.709  16.970  0.00  0.00    +0.000 A 
ATOM      9  C   UNL     1       3.765   5.859  17.717  0.00  0.00    +0.000 A 
ATOM     10  C   UNL     1       2.367   2.521  18.617  0.00  0.00    +0.000 C 
ATOM     11  C   UNL     1       1.657   2.389  19.984  0.00  0.00    +0.000 C 
ATOM     12  N   UNL     1       0.676   3.466  20.228  0.00  0.00    +0.000 NA
ATOM     13  C   UNL     1       1.321   4.792  20.288  0.00  0.00    +0.000 C 
ATOM     14  H   UNL     1       0.202   3.297  21.112  0.00  0.00    +0.000 HD
ENDROOT
BRANCH   1  15
ATOM     15  C   UNL     1       2.500   7.468  19.188  0.00  0.00    +0.000 C 
BRANCH  15  16
ATOM     16  C   UNL     1       1.818   8.255  18.069  0.00  0.00    +0.000 C 
BRANCH  16  17
ATOM     17  C   UNL     1       1.434   9.686  18.467  0.00  0.00    +0.000 C 
BRANCH  17  18
ATOM     18  N   UNL     1       0.125   9.827  19.131  0.00  0.00    +0.000 NA
BRANCH  18  20
ATOM     19  C   UNL     1      -0.120   8.878  21.458  0.00  0.00    +0.000 C 
ATOM     20  C   UNL     1       0.261  10.066  20.578  0.00  0.00    +0.000 C 
ENDBRANCH  18  20
BRANCH  18  21
ATOM     21  C   UNL     1      -0.715  10.830  18.444  0.00  0.00    +0.000 C 
ATOM     22  C   UNL     1      -1.737  11.573  19.303  0.00  0.00    +0.000 C 
ENDBRANCH  18  21
ENDBRANCH  17  18
ENDBRANCH  16  17
ENDBRANCH  15  16
ENDBRANCH   1  15
TORSDOF 6
ENDMDL
MODEL 7
REMARK VINA RESULT:      -6.7      1.526      3.817
REMARK  Name = 
REMARK  8 active torsions:
REMARK  status: ('A' for Active; 'I' for Inactive)
REMARK    1  A    between atoms: C_1  and  C_2
REMARK    2  A    between atoms: C_2  and  N_3
REMARK    3  A    between atoms: N_3  and  C_4
REMARK    4  A    between atoms: N_3  and  C_6
REMARK    5  A    between atoms: C_4  and  C_5
REMARK    6  A    between atoms: C_6  and  C_7
REMARK    7  A    between atoms: C_7  and  C_8
REMARK    8  A    between atoms: C_8  and  N_9
REMARK                            x       y       z     vdW  Elec       q    Type
REMARK                         _______ _______ _______ _____ _____    ______ ____
ROOT
ATOM      1  N   UNL     1       2.847   6.155  18.689  0.00  0.00    +0.000 N 
ATOM      2  C   UNL     1       2.282   5.004  19.168  0.00  0.00    +0.000 A 
ATOM      3  C   UNL     1       2.798   3.942  18.448  0.00  0.00    +0.000 A 
ATOM      4  C   UNL     1       3.719   4.458  17.505  0.00  0.00    +0.000 A 
ATOM      5  C   UNL     1       4.520   3.877  16.501  0.00  0.00    +0.000 A 
ATOM      6  C   UNL     1       5.347   4.688  15.721  0.00  0.00    +0.000 A 
ATOM      7  C   UNL     1       5.393   6.063  15.935  0.00  0.00    +0.000 A 
ATOM      8  C   UNL     1       4.605   6.664  16.920  0.00  0.00    +0.000 A 
ATOM      9  C   UNL     1       3.762   5.845  17.691  0.00  0.00    +0.000 A 
ATOM     10  C   UNL     1       2.348   2.547  18.707  0.00  0.00    +0.000 C 
ATOM     11  C   UNL     1       1.625   2.470  20.072  0.00  0.00    +0.000 C 
ATOM     12  N   UNL     1       0.644   3.557  20.264  0.00  0.00    +0.000 NA
ATOM     13  C   UNL     1       1.291   4.883  20.279  0.00  0.00    +0.000 C 
ATOM     14  H   UNL     1       0.162   3.424  21.150  0.00  0.00    +0.000 HD
ENDROOT
BRANCH   1  15
ATOM     15  C   UNL     1       2.487   7.512  19.088  0.00  0.00    +0.000 C 
BRANCH  15  16
ATOM     16  C   UNL     1       1.778   8.242  17.946  0.00  0.00    +0.000 C 
BRANCH  16  17
ATOM     17  C   UNL     1       1.932   9.767  18.000  0.00  0.00    +0.000 C 
BRANCH  17  18
ATOM     18  N   UNL     1       0.924  10.477  18.809  0.00  0.00    +0.000 NA
BRANCH  18  20
ATOM     19  C   UNL     1       2.441  12.381  18.141  0.00  0.00    +0.000 C 
ATOM     20  C   UNL     1       1.231  11.910  18.944  0.00  0.00    +0.000 C 
ENDBRANCH  18  20
BRANCH  18  21
ATOM     21  C   UNL     1      -0.442  10.210  18.311  0.00  0.00    +0.000 C 
ATOM     22  C   UNL     1      -1.488  11.294  18.565  0.00  0.00    +0.000 C 
ENDBRANCH  18  21
ENDBRANCH  17  18
ENDBRANCH  16  17
ENDBRANCH  15  16
ENDBRANCH   1  15
TORSDOF 6
ENDMDL
MODEL 8
REMARK VINA RESULT:      -6.7      1.341      3.891
REMARK  Name = 
REMARK  8 active torsions:
REMARK  status: ('A' for Active; 'I' for Inactive)
REMARK    1  A    between atoms: C_1  and  C_2
REMARK    2  A    between atoms: C_2  and  N_3
REMARK    3  A    between atoms: N_3  and  C_4
REMARK    4  A    between atoms: N_3  and  C_6
REMARK    5  A    between atoms: C_4  and  C_5
REMARK    6  A    between atoms: C_6  and  C_7
REMARK    7  A    between atoms: C_7  and  C_8
REMARK    8  A    between atoms: C_8  and  N_9
REMARK                            x       y       z     vdW  Elec       q    Type
REMARK                         _______ _______ _______ _____ _____    ______ ____
ROOT
ATOM      1  N   UNL     1       2.798   6.223  18.731  0.00  0.00    +0.000 N 
ATOM      2  C   UNL     1       2.258   5.063  19.219  0.00  0.00    +0.000 A 
ATOM      3  C   UNL     1       2.788   4.009  18.500  0.00  0.00    +0.000 A 
ATOM      4  C   UNL     1       3.691   4.538  17.547  0.00  0.00    +0.000 A 
ATOM      5  C   UNL     1       4.495   3.968  16.539  0.00  0.00    +0.000 A 
ATOM      6  C   UNL     1       5.300   4.790  15.749  0.00  0.00    +0.000 A 
ATOM      7  C   UNL     1       5.323   6.167  15.957  0.00  0.00    +0.000 A 
ATOM      8  C   UNL     1       4.532   6.757  16.946  0.00  0.00    +0.000 A 
ATOM      9  C   UNL     1       3.710   5.926  17.727  0.00  0.00    +0.000 A 
ATOM     10  C   UNL     1       2.366   2.607  18.768  0.00  0.00    +0.000 C 
ATOM     11  C   UNL     1       1.655   2.522  20.139  0.00  0.00    +0.000 C 
ATOM     12  N   UNL     1       0.656   3.592  20.335  0.00  0.00    +0.000 NA
ATOM     13  C   UNL     1       1.279   4.929  20.339  0.00  0.00    +0.000 C 
ATOM     14  H   UNL     1       0.184   3.453  21.225  0.00  0.00    +0.000 HD
ENDROOT
BRANCH   1  15
ATOM     15  C   UNL     1       2.415   7.575  19.127  0.00  0.00    +0.000 C 
BRANCH  15  16
ATOM     16  C   UNL     1       1.663   8.278  17.997  0.00  0.00    +0.000 C 
BRANCH  16  17
ATOM     17  C   UNL     1       1.831   9.803  17.999  0.00  0.00    +0.000 C 
BRANCH  17  18
ATOM     18  N   UNL     1       0.695  10.564  18.551  0.00  0.00    +0.000 NA
BRANCH  18  20
ATOM     19  C   UNL     1      -1.576  10.304  17.478  0.00  0.00    +0.000 C 
ATOM     20  C   UNL     1      -0.562   9.797  18.500  0.00  0.00    +0.000 C 
ENDBRANCH  18  20
BRANCH  18  21
ATOM     21  C   UNL     1       1.010  11.092  19.895  0.00  0.00    +0.000 C 
ATOM     22  C   UNL     1       0.397  10.353  21.082  0.00  0.00    +0.000 C 
ENDBRANCH  18  21
ENDBRANCH  17  18
ENDBRANCH  16  17
ENDBRANCH  15  16
ENDBRANCH   1  15
TORSDOF 6
ENDMDL
MODEL 9
REMARK VINA RESULT:      -6.6      0.800      1.125
REMARK  Name = 
REMARK  8 active torsions:
REMARK  status: ('A' for Active; 'I' for Inactive)
REMARK    1  A    between atoms: C_1  and  C_2
REMARK    2  A    between atoms: C_2  and  N_3
REMARK    3  A    between atoms: N_3  and  C_4
REMARK    4  A    between atoms: N_3  and  C_6
REMARK    5  A    between atoms: C_4  and  C_5
REMARK    6  A    between atoms: C_6  and  C_7
REMARK    7  A    between atoms: C_7  and  C_8
REMARK    8  A    between atoms: C_8  and  N_9
REMARK                            x       y       z     vdW  Elec       q    Type
REMARK                         _______ _______ _______ _____ _____    ______ ____
ROOT
ATOM      1  N   UNL     1       3.140   5.969  18.184  0.00  0.00    +0.000 N 
ATOM      2  C   UNL     1       4.175   5.810  17.302  0.00  0.00    +0.000 A 
ATOM      3  C   UNL     1       4.258   4.468  16.979  0.00  0.00    +0.000 A 
ATOM      4  C   UNL     1       3.232   3.784  17.676  0.00  0.00    +0.000 A 
ATOM      5  C   UNL     1       2.843   2.433  17.764  0.00  0.00    +0.000 A 
ATOM      6  C   UNL     1       1.752   2.078  18.560  0.00  0.00    +0.000 A 
ATOM      7  C   UNL     1       1.042   3.050  19.259  0.00  0.00    +0.000 A 
ATOM      8  C   UNL     1       1.411   4.396  19.192  0.00  0.00    +0.000 A 
ATOM      9  C   UNL     1       2.519   4.746  18.402  0.00  0.00    +0.000 A 
ATOM     10  C   UNL     1       5.316   3.963  16.062  0.00  0.00    +0.000 C 
ATOM     11  C   UNL     1       5.944   5.139  15.280  0.00  0.00    +0.000 C 
ATOM     12  N   UNL     1       6.272   6.293  16.143  0.00  0.00    +0.000 NA
ATOM     13  C   UNL     1       5.065   6.877  16.758  0.00  0.00    +0.000 C 
ATOM     14  H   UNL     1       6.731   7.010  15.586  0.00  0.00    +0.000 HD
ENDROOT
BRANCH   1  15
ATOM     15  C   UNL     1       2.788   7.208  18.871  0.00  0.00    +0.000 C 
BRANCH  15  16
ATOM     16  C   UNL     1       1.849   8.056  18.011  0.00  0.00    +0.000 C 
BRANCH  16  17
ATOM     17  C   UNL     1       1.955   9.562  18.283  0.00  0.00    +0.000 C 
BRANCH  17  18
ATOM     18  N   UNL     1       0.693  10.228  18.654  0.00  0.00    +0.000 NA
BRANCH  18  20
ATOM     19  C   UNL     1       0.901   9.925  21.152  0.00  0.00    +0.000 C 
ATOM     20  C   UNL     1       0.105   9.657  19.877  0.00  0.00    +0.000 C 
ENDBRANCH  18  20
BRANCH  18  21
ATOM     21  C   UNL     1       0.861  11.695  18.709  0.00  0.00    +0.000 C 
ATOM     22  C   UNL     1       2.252  12.237  18.384  0.00  0.00    +0.000 C 
ENDBRANCH  18  21
ENDBRANCH  17  18
ENDBRANCH  16  17
ENDBRANCH  15  16
ENDBRANCH   1  15
TORSDOF 6
ENDMDL
