MODEL 1
REMARK VINA RESULT:      -9.4      0.000      0.000
REMARK  Name = 
REMARK  6 active torsions:
REMARK  status: ('A' for Active; 'I' for Inactive)
REMARK    1  A    between atoms: C_2  and  C_28
REMARK    2  A    between atoms: N_3  and  C_4
REMARK    3  A    between atoms: C_7  and  C_8
REMARK    4  A    between atoms: C_8  and  N_9
REMARK    5  A    between atoms: N_9  and  C_10
REMARK    6  A    between atoms: N_13  and  C_14
REMARK                            x       y       z     vdW  Elec       q    Type
REMARK                         _______ _______ _______ _____ _____    ______ ____
ROOT
ATOM      1  N   UNL     1       2.170   7.041  17.688  0.00  0.00    +0.000 N 
ATOM      2  H   UNL     1       1.185   6.824  17.741  0.00  0.00    +0.000 HD
ENDROOT
BRANCH   1   3
ATOM      3  C   UNL     1       3.026   5.992  18.158  0.00  0.00    +0.000 A 
ATOM      4  N   UNL     1       4.341   6.243  18.037  0.00  0.00    +0.000 NA
ATOM      5  C   UNL     1       5.186   5.274  18.407  0.00  0.00    +0.000 A 
ATOM      6  N   UNL     1       6.100   4.730  17.522  0.00  0.00    +0.000 N 
ATOM      7  N   UNL     1       4.880   4.369  19.286  0.00  0.00    +0.000 NA
ATOM      8  C   UNL     1       3.701   3.872  19.061  0.00  0.00    +0.000 A 
ATOM      9  C   UNL     1       3.718   2.506  19.254  0.00  0.00    +0.000 A 
ATOM     10  C   UNL     1       2.633   1.724  18.932  0.00  0.00    +0.000 A 
ATOM     11  C   UNL     1       1.478   2.377  18.532  0.00  0.00    +0.000 A 
ATOM     12  C   UNL     1       1.465   3.797  18.335  0.00  0.00    +0.000 A 
ATOM     13  C   UNL     1       2.640   4.613  18.495  0.00  0.00    +0.000 A 
ATOM     14  H   UNL     1       6.017   3.731  17.692  0.00  0.00    +0.000 HD
BRANCH   6  15
ATOM     15  C   UNL     1       5.958   5.119  16.145  0.00  0.00    +0.000 C 
ATOM     16  C   UNL     1       7.350   5.005  15.562  0.00  0.00    +0.000 C 
ATOM     17  C   UNL     1       7.134   4.734  14.095  0.00  0.00    +0.000 C 
ATOM     18  C   UNL     1       5.760   4.080  13.971  0.00  0.00    +0.000 C 
ATOM     19  C   UNL     1       5.124   4.113  15.355  0.00  0.00    +0.000 C 
ENDBRANCH   6  15
ENDBRANCH   1   3
BRANCH   1  20
ATOM     20  C   UNL     1       2.521   8.422  18.218  0.00  0.00    +0.000 C 
BRANCH  20  24
ATOM     21  C   UNL     1      -0.494  10.990  20.322  0.00  0.00    +0.000 A 
ATOM     22  C   UNL     1       0.067   9.857  20.907  0.00  0.00    +0.000 A 
ATOM     23  C   UNL     1       1.003   9.038  20.207  0.00  0.00    +0.000 A 
ATOM     24  C   UNL     1       1.420   9.299  18.881  0.00  0.00    +0.000 A 
ATOM     25  C   UNL     1       0.919  10.488  18.333  0.00  0.00    +0.000 A 
ATOM     26  C   UNL     1      -0.025  11.309  19.036  0.00  0.00    +0.000 A 
BRANCH  21  29
ATOM     27  O   UNL     1      -0.768  11.889  23.152  0.00  0.00    +0.000 OA
ATOM     28  C   UNL     1      -1.591  12.176  22.288  0.00  0.00    +0.000 C 
ATOM     29  N   UNL     1      -1.501  11.822  20.937  0.00  0.00    +0.000 N 
ATOM     30  H   UNL     1      -2.273  12.087  20.341  0.00  0.00    +0.000 HD
BRANCH  28  31
ATOM     31  C   UNL     1      -2.819  12.933  22.755  0.00  0.00    +0.000 A 
ATOM     32  C   UNL     1      -3.216  14.190  22.255  0.00  0.00    +0.000 A 
ATOM     33  C   UNL     1      -4.344  14.843  22.772  0.00  0.00    +0.000 A 
ATOM     34  C   UNL     1      -5.088  14.265  23.796  0.00  0.00    +0.000 A 
ATOM     35  F   UNL     1      -6.163  14.884  24.280  0.00  0.00    +0.000 F 
ATOM     36  C   UNL     1      -4.707  13.034  24.323  0.00  0.00    +0.000 A 
ATOM     37  C   UNL     1      -3.583  12.384  23.812  0.00  0.00    +0.000 A 
ENDBRANCH  28  31
ENDBRANCH  21  29
ENDBRANCH  20  24
ENDBRANCH   1  20
TORSDOF 6
ENDMDL
MODEL 2
REMARK VINA RESULT:      -9.2      2.481      4.474
REMARK  Name = 
REMARK  6 active torsions:
REMARK  status: ('A' for Active; 'I' for Inactive)
REMARK    1  A    between atoms: C_2  and  C_28
REMARK    2  A    between atoms: N_3  and  C_4
REMARK    3  A    between atoms: C_7  and  C_8
REMARK    4  A    between atoms: C_8  and  N_9
REMARK    5  A    between atoms: N_9  and  C_10
REMARK    6  A    between atoms: N_13  and  C_14
REMARK                            x       y       z     vdW  Elec       q    Type
REMARK                         _______ _______ _______ _____ _____    ______ ____
ROOT
ATOM      1  N   UNL     1       4.427   3.171  17.704  0.00  0.00    +0.000 N 
ATOM      2  H   UNL     1       5.085   2.596  18.211  0.00  0.00    +0.000 HD
ENDROOT
BRANCH   1   3
ATOM      3  C   UNL     1       4.969   4.417  17.250  0.00  0.00    +0.000 A 
ATOM      4  N   UNL     1       4.685   4.722  15.971  0.00  0.00    +0.000 NA
ATOM      5  C   UNL     1       5.214   5.847  15.477  0.00  0.00    +0.000 A 
ATOM      6  N   UNL     1       6.046   5.834  14.373  0.00  0.00    +0.000 N 
ATOM      7  N   UNL     1       5.539   6.860  16.222  0.00  0.00    +0.000 NA
ATOM      8  C   UNL     1       6.199   6.480  17.275  0.00  0.00    +0.000 A 
ATOM      9  C   UNL     1       7.242   7.348  17.519  0.00  0.00    +0.000 A 
ATOM     10  C   UNL     1       8.185   7.083  18.485  0.00  0.00    +0.000 A 
ATOM     11  C   UNL     1       7.969   5.977  19.292  0.00  0.00    +0.000 A 
ATOM     12  C   UNL     1       6.882   5.078  19.036  0.00  0.00    +0.000 A 
ATOM     13  C   UNL     1       5.988   5.240  17.919  0.00  0.00    +0.000 A 
ATOM     14  H   UNL     1       6.804   6.453  14.649  0.00  0.00    +0.000 HD
BRANCH   6  15
ATOM     15  C   UNL     1       6.466   4.538  13.911  0.00  0.00    +0.000 C 
ATOM     16  C   UNL     1       5.265   3.976  13.181  0.00  0.00    +0.000 C 
ATOM     17  C   UNL     1       5.841   3.023  12.165  0.00  0.00    +0.000 C 
ATOM     18  C   UNL     1       7.262   3.501  11.877  0.00  0.00    +0.000 C 
ATOM     19  C   UNL     1       7.554   4.643  12.843  0.00  0.00    +0.000 C 
ENDBRANCH   6  15
ENDBRANCH   1   3
BRANCH   1  20
ATOM     20  C   UNL     1       3.069   3.286  18.379  0.00  0.00    +0.000 C 
BRANCH  20  24
ATOM     21  C   UNL     1       1.853   7.231  20.130  0.00  0.00    +0.000 A 
ATOM     22  C   UNL     1       1.832   6.046  20.861  0.00  0.00    +0.000 A 
ATOM     23  C   UNL     1       2.196   4.797  20.274  0.00  0.00    +0.000 A 
ATOM     24  C   UNL     1       2.588   4.662  18.922  0.00  0.00    +0.000 A 
ATOM     25  C   UNL     1       2.691   5.871  18.219  0.00  0.00    +0.000 A 
ATOM     26  C   UNL     1       2.322   7.125  18.808  0.00  0.00    +0.000 A 
BRANCH  21  29
ATOM     27  O   UNL     1      -0.625   7.988  21.606  0.00  0.00    +0.000 OA
ATOM     28  C   UNL     1       0.227   8.811  21.286  0.00  0.00    +0.000 C 
ATOM     29  N   UNL     1       1.428   8.517  20.631  0.00  0.00    +0.000 N 
ATOM     30  H   UNL     1       2.021   9.298  20.386  0.00  0.00    +0.000 HD
BRANCH  28  31
ATOM     31  C   UNL     1      -0.092  10.261  21.591  0.00  0.00    +0.000 A 
ATOM     32  C   UNL     1       0.426  11.358  20.870  0.00  0.00    +0.000 A 
ATOM     33  C   UNL     1       0.113  12.673  21.243  0.00  0.00    +0.000 A 
ATOM     34  C   UNL     1      -0.708  12.919  22.340  0.00  0.00    +0.000 A 
ATOM     35  F   UNL     1      -1.008  14.169  22.689  0.00  0.00    +0.000 F 
ATOM     36  C   UNL     1      -1.215  11.856  23.082  0.00  0.00    +0.000 A 
ATOM     37  C   UNL     1      -0.903  10.547  22.714  0.00  0.00    +0.000 A 
ENDBRANCH  28  31
ENDBRANCH  21  29
ENDBRANCH  20  24
ENDBRANCH   1  20
TORSDOF 6
ENDMDL
MODEL 3
REMARK VINA RESULT:      -9.2      1.080      1.171
REMARK  Name = 
REMARK  6 active torsions:
REMARK  status: ('A' for Active; 'I' for Inactive)
REMARK    1  A    between atoms: C_2  and  C_28
REMARK    2  A    between atoms: N_3  and  C_4
REMARK    3  A    between atoms: C_7  and  C_8
REMARK    4  A    between atoms: C_8  and  N_9
REMARK    5  A    between atoms: N_9  and  C_10
REMARK    6  A    between atoms: N_13  and  C_14
REMARK                            x       y       z     vdW  Elec       q    Type
REMARK                         _______ _______ _______ _____ _____    ______ ____
ROOT
ATOM      1  N   UNL     1       3.427   6.913  19.917  0.00  0.00    +0.000 N 
ATOM      2  H   UNL     1       4.234   7.513  20.012  0.00  0.00    +0.000 HD
ENDROOT
BRANCH   1   3
ATOM      3  C   UNL     1       3.747   5.530  19.719  0.00  0.00    +0.000 A 
ATOM      4  N   UNL     1       5.033   5.288  19.413  0.00  0.00    +0.000 NA
ATOM      5  C   UNL     1       5.375   4.019  19.161  0.00  0.00    +0.000 A 
ATOM      6  N   UNL     1       5.927   3.642  17.950  0.00  0.00    +0.000 N 
ATOM      7  N   UNL     1       4.727   3.004  19.649  0.00  0.00    +0.000 NA
ATOM      8  C   UNL     1       3.443   3.156  19.518  0.00  0.00    +0.000 A 
ATOM      9  C   UNL     1       2.862   1.965  19.138  0.00  0.00    +0.000 A 
ATOM     10  C   UNL     1       1.534   1.896  18.786  0.00  0.00    +0.000 A 
ATOM     11  C   UNL     1       0.774   3.043  18.956  0.00  0.00    +0.000 A 
ATOM     12  C   UNL     1       1.383   4.279  19.352  0.00  0.00    +0.000 A 
ATOM     13  C   UNL     1       2.802   4.414  19.554  0.00  0.00    +0.000 A 
ATOM     14  H   UNL     1       5.417   2.794  17.719  0.00  0.00    +0.000 HD
BRANCH   6  15
ATOM     15  C   UNL     1       5.929   4.642  16.916  0.00  0.00    +0.000 C 
ATOM     16  C   UNL     1       7.267   4.485  16.224  0.00  0.00    +0.000 C 
ATOM     17  C   UNL     1       7.035   4.978  14.819  0.00  0.00    +0.000 C 
ATOM     18  C   UNL     1       5.546   4.797  14.534  0.00  0.00    +0.000 C 
ATOM     19  C   UNL     1       4.895   4.339  15.833  0.00  0.00    +0.000 C 
ENDBRANCH   6  15
ENDBRANCH   1   3
BRANCH   1  20
ATOM     20  C   UNL     1       2.371   7.456  18.968  0.00  0.00    +0.000 C 
BRANCH  20  24
ATOM     21  C   UNL     1      -0.442  10.534  20.619  0.00  0.00    +0.000 A 
ATOM     22  C   UNL     1       0.031   9.464  21.376  0.00  0.00    +0.000 A 
ATOM     23  C   UNL     1       0.902   8.480  20.821  0.00  0.00    +0.000 A 
ATOM     24  C   UNL     1       1.340   8.504  19.476  0.00  0.00    +0.000 A 
ATOM     25  C   UNL     1       0.932   9.631  18.748  0.00  0.00    +0.000 A 
ATOM     26  C   UNL     1       0.053  10.617  19.306  0.00  0.00    +0.000 A 
BRANCH  21  29
ATOM     27  O   UNL     1      -0.702  11.810  23.302  0.00  0.00    +0.000 OA
ATOM     28  C   UNL     1      -1.474  12.055  22.379  0.00  0.00    +0.000 C 
ATOM     29  N   UNL     1      -1.382  11.524  21.088  0.00  0.00    +0.000 N 
ATOM     30  H   UNL     1      -2.111  11.777  20.435  0.00  0.00    +0.000 HD
BRANCH  28  31
ATOM     31  C   UNL     1      -2.638  12.971  22.702  0.00  0.00    +0.000 A 
ATOM     32  C   UNL     1      -2.581  14.031  23.630  0.00  0.00    +0.000 A 
ATOM     33  C   UNL     1      -3.717  14.807  23.903  0.00  0.00    +0.000 A 
ATOM     34  C   UNL     1      -4.926  14.536  23.267  0.00  0.00    +0.000 A 
ATOM     35  F   UNL     1      -6.002  15.278  23.524  0.00  0.00    +0.000 F 
ATOM     36  C   UNL     1      -5.015  13.482  22.362  0.00  0.00    +0.000 A 
ATOM     37  C   UNL     1      -3.887  12.708  22.092  0.00  0.00    +0.000 A 
ENDBRANCH  28  31
ENDBRANCH  21  29
ENDBRANCH  20  24
ENDBRANCH   1  20
TORSDOF 6
ENDMDL
MODEL 4
REMARK VINA RESULT:      -9.2      2.067      2.368
REMARK  Name = 
REMARK  6 active torsions:
REMARK  status: ('A' for Active; 'I' for Inactive)
REMARK    1  A    between atoms: C_2  and  C_28
REMARK    2  A    between atoms: N_3  and  C_4
REMARK    3  A    between atoms: C_7  and  C_8
REMARK    4  A    between atoms: C_8  and  N_9
REMARK    5  A    between atoms: N_9  and  C_10
REMARK    6  A    between atoms: N_13  and  C_14
REMARK                            x       y       z     vdW  Elec       q    Type
REMARK                         _______ _______ _______ _____ _____    ______ ____
ROOT
ATOM      1  N   UNL     1       2.909   6.845  19.658  0.00  0.00    +0.000 N 
ATOM      2  H   UNL     1       2.771   7.282  18.757  0.00  0.00    +0.000 HD
ENDROOT
BRANCH   1   3
ATOM      3  C   UNL     1       3.423   5.509  19.588  0.00  0.00    +0.000 A 
ATOM      4  N   UNL     1       4.754   5.427  19.417  0.00  0.00    +0.000 NA
ATOM      5  C   UNL     1       5.280   4.204  19.287  0.00  0.00    +0.000 A 
ATOM      6  N   UNL     1       5.994   3.835  18.161  0.00  0.00    +0.000 N 
ATOM      7  N   UNL     1       4.725   3.141  19.786  0.00  0.00    +0.000 NA
ATOM      8  C   UNL     1       3.451   3.108  19.529  0.00  0.00    +0.000 A 
ATOM      9  C   UNL     1       3.069   1.829  19.184  0.00  0.00    +0.000 A 
ATOM     10  C   UNL     1       1.803   1.560  18.719  0.00  0.00    +0.000 A 
ATOM     11  C   UNL     1       0.888   2.601  18.738  0.00  0.00    +0.000 A 
ATOM     12  C   UNL     1       1.290   3.929  19.099  0.00  0.00    +0.000 A 
ATOM     13  C   UNL     1       2.652   4.268  19.418  0.00  0.00    +0.000 A 
ATOM     14  H   UNL     1       5.623   2.913  17.946  0.00  0.00    +0.000 HD
BRANCH   6  15
ATOM     15  C   UNL     1       5.968   4.764  17.063  0.00  0.00    +0.000 C 
ATOM     16  C   UNL     1       7.308   4.596  16.379  0.00  0.00    +0.000 C 
ATOM     17  C   UNL     1       7.062   4.988  14.945  0.00  0.00    +0.000 C 
ATOM     18  C   UNL     1       5.577   4.751  14.677  0.00  0.00    +0.000 C 
ATOM     19  C   UNL     1       4.941   4.363  16.006  0.00  0.00    +0.000 C 
ENDBRANCH   6  15
ENDBRANCH   1   3
BRANCH   1  20
ATOM     20  C   UNL     1       1.733   7.016  20.605  0.00  0.00    +0.000 C 
BRANCH  20  24
ATOM     21  C   UNL     1      -0.033  11.078  21.311  0.00  0.00    +0.000 A 
ATOM     22  C   UNL     1       0.368  10.641  20.050  0.00  0.00    +0.000 A 
ATOM     23  C   UNL     1       0.955   9.355  19.854  0.00  0.00    +0.000 A 
ATOM     24  C   UNL     1       1.184   8.440  20.908  0.00  0.00    +0.000 A 
ATOM     25  C   UNL     1       0.698   8.852  22.157  0.00  0.00    +0.000 A 
ATOM     26  C   UNL     1       0.112  10.147  22.354  0.00  0.00    +0.000 A 
BRANCH  21  29
ATOM     27  O   UNL     1       1.386  13.666  21.734  0.00  0.00    +0.000 OA
ATOM     28  C   UNL     1       0.167  13.562  21.826  0.00  0.00    +0.000 C 
ATOM     29  N   UNL     1      -0.563  12.390  21.599  0.00  0.00    +0.000 N 
ATOM     30  H   UNL     1      -1.561  12.433  21.753  0.00  0.00    +0.000 HD
BRANCH  28  31
ATOM     31  C   UNL     1      -0.582  14.804  22.268  0.00  0.00    +0.000 A 
ATOM     32  C   UNL     1      -0.793  15.937  21.455  0.00  0.00    +0.000 A 
ATOM     33  C   UNL     1      -1.461  17.064  21.956  0.00  0.00    +0.000 A 
ATOM     34  C   UNL     1      -1.920  17.086  23.270  0.00  0.00    +0.000 A 
ATOM     35  F   UNL     1      -2.560  18.156  23.741  0.00  0.00    +0.000 F 
ATOM     36  C   UNL     1      -1.707  15.990  24.101  0.00  0.00    +0.000 A 
ATOM     37  C   UNL     1      -1.040  14.869  23.606  0.00  0.00    +0.000 A 
ENDBRANCH  28  31
ENDBRANCH  21  29
ENDBRANCH  20  24
ENDBRANCH   1  20
TORSDOF 6
ENDMDL
MODEL 5
REMARK VINA RESULT:      -9.2      2.553      3.063
REMARK  Name = 
REMARK  6 active torsions:
REMARK  status: ('A' for Active; 'I' for Inactive)
REMARK    1  A    between atoms: C_2  and  C_28
REMARK    2  A    between atoms: N_3  and  C_4
REMARK    3  A    between atoms: C_7  and  C_8
REMARK    4  A    between atoms: C_8  and  N_9
REMARK    5  A    between atoms: N_9  and  C_10
REMARK    6  A    between atoms: N_13  and  C_14
REMARK                            x       y       z     vdW  Elec       q    Type
REMARK                         _______ _______ _______ _____ _____    ______ ____
ROOT
ATOM      1  N   UNL     1       2.924   6.714  20.009  0.00  0.00    +0.000 N 
ATOM      2  H   UNL     1       3.515   7.286  20.596  0.00  0.00    +0.000 HD
ENDROOT
BRANCH   1   3
ATOM      3  C   UNL     1       3.395   5.372  19.835  0.00  0.00    +0.000 A 
ATOM      4  N   UNL     1       4.721   5.262  19.640  0.00  0.00    +0.000 NA
ATOM      5  C   UNL     1       5.207   4.037  19.414  0.00  0.00    +0.000 A 
ATOM      6  N   UNL     1       5.896   3.730  18.255  0.00  0.00    +0.000 N 
ATOM      7  N   UNL     1       4.624   2.957  19.841  0.00  0.00    +0.000 NA
ATOM      8  C   UNL     1       3.348   2.983  19.601  0.00  0.00    +0.000 A 
ATOM      9  C   UNL     1       2.922   1.744  19.169  0.00  0.00    +0.000 A 
ATOM     10  C   UNL     1       1.642   1.549  18.702  0.00  0.00    +0.000 A 
ATOM     11  C   UNL     1       0.761   2.613  18.810  0.00  0.00    +0.000 A 
ATOM     12  C   UNL     1       1.208   3.898  19.261  0.00  0.00    +0.000 A 
ATOM     13  C   UNL     1       2.584   4.171  19.586  0.00  0.00    +0.000 A 
ATOM     14  H   UNL     1       5.494   2.838  17.978  0.00  0.00    +0.000 HD
BRANCH   6  15
ATOM     15  C   UNL     1       5.887   4.737  17.228  0.00  0.00    +0.000 C 
ATOM     16  C   UNL     1       7.243   4.629  16.564  0.00  0.00    +0.000 C 
ATOM     17  C   UNL     1       7.026   5.125  15.158  0.00  0.00    +0.000 C 
ATOM     18  C   UNL     1       5.550   4.898  14.839  0.00  0.00    +0.000 C 
ATOM     19  C   UNL     1       4.887   4.409  16.120  0.00  0.00    +0.000 C 
ENDBRANCH   6  15
ENDBRANCH   1   3
BRANCH   1  20
ATOM     20  C   UNL     1       2.493   7.401  18.723  0.00  0.00    +0.000 C 
BRANCH  20  24
ATOM     21  C   UNL     1       0.476  11.387  19.122  0.00  0.00    +0.000 A 
ATOM     22  C   UNL     1       0.389  10.399  20.100  0.00  0.00    +0.000 A 
ATOM     23  C   UNL     1       1.015   9.127  19.938  0.00  0.00    +0.000 A 
ATOM     24  C   UNL     1       1.752   8.768  18.786  0.00  0.00    +0.000 A 
ATOM     25  C   UNL     1       1.909   9.797  17.847  0.00  0.00    +0.000 A 
ATOM     26  C   UNL     1       1.276  11.074  18.008  0.00  0.00    +0.000 A 
BRANCH  21  29
ATOM     27  O   UNL     1       1.614  14.127  19.417  0.00  0.00    +0.000 OA
ATOM     28  C   UNL     1       0.406  13.919  19.360  0.00  0.00    +0.000 C 
ATOM     29  N   UNL     1      -0.190  12.666  19.180  0.00  0.00    +0.000 N 
ATOM     30  H   UNL     1      -1.200  12.632  19.195  0.00  0.00    +0.000 HD
BRANCH  28  31
ATOM     31  C   UNL     1      -0.492  15.125  19.550  0.00  0.00    +0.000 A 
ATOM     32  C   UNL     1      -1.536  15.198  20.496  0.00  0.00    +0.000 A 
ATOM     33  C   UNL     1      -2.349  16.337  20.580  0.00  0.00    +0.000 A 
ATOM     34  C   UNL     1      -2.146  17.414  19.722  0.00  0.00    +0.000 A 
ATOM     35  F   UNL     1      -2.917  18.498  19.808  0.00  0.00    +0.000 F 
ATOM     36  C   UNL     1      -1.137  17.361  18.765  0.00  0.00    +0.000 A 
ATOM     37  C   UNL     1      -0.329  16.227  18.677  0.00  0.00    +0.000 A 
ENDBRANCH  28  31
ENDBRANCH  21  29
ENDBRANCH  20  24
ENDBRANCH   1  20
TORSDOF 6
ENDMDL
MODEL 6
REMARK VINA RESULT:      -9.2      1.058      1.323
REMARK  Name = 
REMARK  6 active torsions:
REMARK  status: ('A' for Active; 'I' for Inactive)
REMARK    1  A    between atoms: C_2  and  C_28
REMARK    2  A    between atoms: N_3  and  C_4
REMARK    3  A    between atoms: C_7  and  C_8
REMARK    4  A    between atoms: C_8  and  N_9
REMARK    5  A    between atoms: N_9  and  C_10
REMARK    6  A    between atoms: N_13  and  C_14
REMARK                            x       y       z     vdW  Elec       q    Type
REMARK                         _______ _______ _______ _____ _____    ______ ____
ROOT
ATOM      1  N   UNL     1       3.687   7.614  17.919  0.00  0.00    +0.000 N 
ATOM      2  H   UNL     1       4.214   8.103  17.210  0.00  0.00    +0.000 HD
ENDROOT
BRANCH   1   3
ATOM      3  C   UNL     1       4.143   6.278  18.169  0.00  0.00    +0.000 A 
ATOM      4  N   UNL     1       5.407   6.033  17.784  0.00  0.00    +0.000 NA
ATOM      5  C   UNL     1       5.865   4.787  17.941  0.00  0.00    +0.000 A 
ATOM      6  N   UNL     1       6.321   4.040  16.870  0.00  0.00    +0.000 N 
ATOM      7  N   UNL     1       5.399   3.972  18.839  0.00  0.00    +0.000 NA
ATOM      8  C   UNL     1       4.099   3.976  18.851  0.00  0.00    +0.000 A 
ATOM      9  C   UNL     1       3.623   2.690  18.996  0.00  0.00    +0.000 A 
ATOM     10  C   UNL     1       2.281   2.406  18.885  0.00  0.00    +0.000 A 
ATOM     11  C   UNL     1       1.416   3.481  18.755  0.00  0.00    +0.000 A 
ATOM     12  C   UNL     1       1.916   4.816  18.605  0.00  0.00    +0.000 A 
ATOM     13  C   UNL     1       3.323   5.115  18.540  0.00  0.00    +0.000 A 
ATOM     14  H   UNL     1       5.891   3.131  17.025  0.00  0.00    +0.000 HD
BRANCH   6  15
ATOM     15  C   UNL     1       6.092   4.598  15.565  0.00  0.00    +0.000 C 
ATOM     16  C   UNL     1       7.471   4.936  15.038  0.00  0.00    +0.000 C 
ATOM     17  C   UNL     1       7.341   4.861  13.538  0.00  0.00    +0.000 C 
ATOM     18  C   UNL     1       6.182   3.910  13.249  0.00  0.00    +0.000 C 
ATOM     19  C   UNL     1       5.550   3.555  14.589  0.00  0.00    +0.000 C 
ENDBRANCH   6  15
ENDBRANCH   1   3
BRANCH   1  20
ATOM     20  C   UNL     1       2.181   7.745  17.760  0.00  0.00    +0.000 C 
BRANCH  20  24
ATOM     21  C   UNL     1       0.115  10.648  20.482  0.00  0.00    +0.000 A 
ATOM     22  C   UNL     1       0.738   9.493  20.949  0.00  0.00    +0.000 A 
ATOM     23  C   UNL     1       1.364   8.568  20.061  0.00  0.00    +0.000 A 
ATOM     24  C   UNL     1       1.391   8.741  18.657  0.00  0.00    +0.000 A 
ATOM     25  C   UNL     1       0.840   9.948  18.204  0.00  0.00    +0.000 A 
ATOM     26  C   UNL     1       0.208  10.875  19.098  0.00  0.00    +0.000 A 
BRANCH  21  29
ATOM     27  O   UNL     1      -0.642  10.480  23.362  0.00  0.00    +0.000 OA
ATOM     28  C   UNL     1      -0.960  11.430  22.652  0.00  0.00    +0.000 C 
ATOM     29  N   UNL     1      -0.603  11.590  21.309  0.00  0.00    +0.000 N 
ATOM     30  H   UNL     1      -0.970  12.400  20.829  0.00  0.00    +0.000 HD
BRANCH  28  31
ATOM     31  C   UNL     1      -1.852  12.476  23.291  0.00  0.00    +0.000 A 
ATOM     32  C   UNL     1      -3.189  12.250  23.680  0.00  0.00    +0.000 A 
ATOM     33  C   UNL     1      -3.961  13.286  24.227  0.00  0.00    +0.000 A 
ATOM     34  C   UNL     1      -3.421  14.559  24.388  0.00  0.00    +0.000 A 
ATOM     35  F   UNL     1      -4.155  15.539  24.915  0.00  0.00    +0.000 F 
ATOM     36  C   UNL     1      -2.111  14.814  23.994  0.00  0.00    +0.000 A 
ATOM     37  C   UNL     1      -1.343  13.787  23.446  0.00  0.00    +0.000 A 
ENDBRANCH  28  31
ENDBRANCH  21  29
ENDBRANCH  20  24
ENDBRANCH   1  20
TORSDOF 6
ENDMDL
MODEL 7
REMARK VINA RESULT:      -9.2      1.439      1.835
REMARK  Name = 
REMARK  6 active torsions:
REMARK  status: ('A' for Active; 'I' for Inactive)
REMARK    1  A    between atoms: C_2  and  C_28
REMARK    2  A    between atoms: N_3  and  C_4
REMARK    3  A    between atoms: C_7  and  C_8
REMARK    4  A    between atoms: C_8  and  N_9
REMARK    5  A    between atoms: N_9  and  C_10
REMARK    6  A    between atoms: N_13  and  C_14
REMARK                            x       y       z     vdW  Elec       q    Type
REMARK                         _______ _______ _______ _____ _____    ______ ____
ROOT
ATOM      1  N   UNL     1       3.467   6.963  19.880  0.00  0.00    +0.000 N 
ATOM      2  H   UNL     1       4.211   7.590  19.609  0.00  0.00    +0.000 HD
ENDROOT
BRANCH   1   3
ATOM      3  C   UNL     1       3.780   5.575  19.708  0.00  0.00    +0.000 A 
ATOM      4  N   UNL     1       5.061   5.322  19.390  0.00  0.00    +0.000 NA
ATOM      5  C   UNL     1       5.396   4.047  19.162  0.00  0.00    +0.000 A 
ATOM      6  N   UNL     1       5.931   3.642  17.952  0.00  0.00    +0.000 N 
ATOM      7  N   UNL     1       4.753   3.046  19.681  0.00  0.00    +0.000 NA
ATOM      8  C   UNL     1       3.467   3.198  19.565  0.00  0.00    +0.000 A 
ATOM      9  C   UNL     1       2.877   2.001  19.220  0.00  0.00    +0.000 A 
ATOM     10  C   UNL     1       1.544   1.928  18.887  0.00  0.00    +0.000 A 
ATOM     11  C   UNL     1       0.790   3.081  19.042  0.00  0.00    +0.000 A 
ATOM     12  C   UNL     1       1.408   4.324  19.402  0.00  0.00    +0.000 A 
ATOM     13  C   UNL     1       2.830   4.459  19.582  0.00  0.00    +0.000 A 
ATOM     14  H   UNL     1       5.414   2.790  17.748  0.00  0.00    +0.000 HD
BRANCH   6  15
ATOM     15  C   UNL     1       5.921   4.618  16.896  0.00  0.00    +0.000 C 
ATOM     16  C   UNL     1       7.268   4.475  16.221  0.00  0.00    +0.000 C 
ATOM     17  C   UNL     1       7.040   4.932  14.803  0.00  0.00    +0.000 C 
ATOM     18  C   UNL     1       5.558   4.712  14.508  0.00  0.00    +0.000 C 
ATOM     19  C   UNL     1       4.905   4.269  15.810  0.00  0.00    +0.000 C 
ENDBRANCH   6  15
ENDBRANCH   1   3
BRANCH   1  20
ATOM     20  C   UNL     1       2.102   7.370  19.349  0.00  0.00    +0.000 C 
BRANCH  20  24
ATOM     21  C   UNL     1      -0.432  10.529  21.276  0.00  0.00    +0.000 A 
ATOM     22  C   UNL     1      -0.091  10.558  19.925  0.00  0.00    +0.000 A 
ATOM     23  C   UNL     1       0.741   9.558  19.340  0.00  0.00    +0.000 A 
ATOM     24  C   UNL     1       1.288   8.479  20.075  0.00  0.00    +0.000 A 
ATOM     25  C   UNL     1       0.869   8.408  21.411  0.00  0.00    +0.000 A 
ATOM     26  C   UNL     1       0.036   9.417  21.999  0.00  0.00    +0.000 A 
BRANCH  21  29
ATOM     27  O   UNL     1       0.351  13.273  22.142  0.00  0.00    +0.000 OA
ATOM     28  C   UNL     1      -0.761  12.803  22.368  0.00  0.00    +0.000 C 
ATOM     29  N   UNL     1      -1.204  11.542  21.954  0.00  0.00    +0.000 N 
ATOM     30  H   UNL     1      -2.130  11.262  22.247  0.00  0.00    +0.000 HD
BRANCH  28  31
ATOM     31  C   UNL     1      -1.692  13.657  23.206  0.00  0.00    +0.000 A 
ATOM     32  C   UNL     1      -3.074  13.418  23.351  0.00  0.00    +0.000 A 
ATOM     33  C   UNL     1      -3.875  14.281  24.113  0.00  0.00    +0.000 A 
ATOM     34  C   UNL     1      -3.319  15.396  24.734  0.00  0.00    +0.000 A 
ATOM     35  F   UNL     1      -4.080  16.211  25.462  0.00  0.00    +0.000 F 
ATOM     36  C   UNL     1      -1.961  15.667  24.591  0.00  0.00    +0.000 A 
ATOM     37  C   UNL     1      -1.163  14.812  23.830  0.00  0.00    +0.000 A 
ENDBRANCH  28  31
ENDBRANCH  21  29
ENDBRANCH  20  24
ENDBRANCH   1  20
TORSDOF 6
ENDMDL
MODEL 8
REMARK VINA RESULT:      -9.2      1.654      2.153
REMARK  Name = 
REMARK  6 active torsions:
REMARK  status: ('A' for Active; 'I' for Inactive)
REMARK    1  A    between atoms: C_2  and  C_28
REMARK    2  A    between atoms: N_3  and  C_4
REMARK    3  A    between atoms: C_7  and  C_8
REMARK    4  A    between atoms: C_8  and  N_9
REMARK    5  A    between atoms: N_9  and  C_10
REMARK    6  A    between atoms: N_13  and  C_14
REMARK                            x       y       z     vdW  Elec       q    Type
REMARK                         _______ _______ _______ _____ _____    ______ ____
ROOT
ATOM      1  N   UNL     1       2.863   6.852  19.654  0.00  0.00    +0.000 N 
ATOM      2  H   UNL     1       2.838   7.325  18.762  0.00  0.00    +0.000 HD
ENDROOT
BRANCH   1   3
ATOM      3  C   UNL     1       3.401   5.525  19.597  0.00  0.00    +0.000 A 
ATOM      4  N   UNL     1       4.735   5.465  19.445  0.00  0.00    +0.000 NA
ATOM      5  C   UNL     1       5.285   4.251  19.329  0.00  0.00    +0.000 A 
ATOM      6  N   UNL     1       6.021   3.890  18.215  0.00  0.00    +0.000 N 
ATOM      7  N   UNL     1       4.742   3.180  19.825  0.00  0.00    +0.000 NA
ATOM      8  C   UNL     1       3.472   3.125  19.552  0.00  0.00    +0.000 A 
ATOM      9  C   UNL     1       3.118   1.837  19.207  0.00  0.00    +0.000 A 
ATOM     10  C   UNL     1       1.863   1.544  18.726  0.00  0.00    +0.000 A 
ATOM     11  C   UNL     1       0.930   2.569  18.727  0.00  0.00    +0.000 A 
ATOM     12  C   UNL     1       1.303   3.905  19.087  0.00  0.00    +0.000 A 
ATOM     13  C   UNL     1       2.655   4.269  19.424  0.00  0.00    +0.000 A 
ATOM     14  H   UNL     1       5.669   2.960  18.000  0.00  0.00    +0.000 HD
BRANCH   6  15
ATOM     15  C   UNL     1       5.994   4.813  17.112  0.00  0.00    +0.000 C 
ATOM     16  C   UNL     1       7.300   4.585  16.381  0.00  0.00    +0.000 C 
ATOM     17  C   UNL     1       7.018   4.979  14.954  0.00  0.00    +0.000 C 
ATOM     18  C   UNL     1       5.517   4.803  14.742  0.00  0.00    +0.000 C 
ATOM     19  C   UNL     1       4.913   4.450  16.095  0.00  0.00    +0.000 C 
ENDBRANCH   6  15
ENDBRANCH   1   3
BRANCH   1  20
ATOM     20  C   UNL     1       1.570   6.972  20.445  0.00  0.00    +0.000 C 
BRANCH  20  24
ATOM     21  C   UNL     1       0.029  10.979  21.740  0.00  0.00    +0.000 A 
ATOM     22  C   UNL     1       0.395  10.704  20.425  0.00  0.00    +0.000 A 
ATOM     23  C   UNL     1       0.911   9.430  20.041  0.00  0.00    +0.000 A 
ATOM     24  C   UNL     1       1.100   8.365  20.953  0.00  0.00    +0.000 A 
ATOM     25  C   UNL     1       0.647   8.622  22.255  0.00  0.00    +0.000 A 
ATOM     26  C   UNL     1       0.132   9.904  22.640  0.00  0.00    +0.000 A 
BRANCH  21  29
ATOM     27  O   UNL     1      -2.385  11.676  23.346  0.00  0.00    +0.000 OA
ATOM     28  C   UNL     1      -1.599  12.526  22.938  0.00  0.00    +0.000 C 
ATOM     29  N   UNL     1      -0.428  12.263  22.218  0.00  0.00    +0.000 N 
ATOM     30  H   UNL     1       0.107  13.061  21.904  0.00  0.00    +0.000 HD
BRANCH  28  31
ATOM     31  C   UNL     1      -1.972  13.970  23.207  0.00  0.00    +0.000 A 
ATOM     32  C   UNL     1      -3.291  14.424  23.417  0.00  0.00    +0.000 A 
ATOM     33  C   UNL     1      -3.556  15.787  23.618  0.00  0.00    +0.000 A 
ATOM     34  C   UNL     1      -2.520  16.717  23.605  0.00  0.00    +0.000 A 
ATOM     35  F   UNL     1      -2.774  18.010  23.803  0.00  0.00    +0.000 F 
ATOM     36  C   UNL     1      -1.212  16.299  23.380  0.00  0.00    +0.000 A 
ATOM     37  C   UNL     1      -0.947  14.944  23.176  0.00  0.00    +0.000 A 
ENDBRANCH  28  31
ENDBRANCH  21  29
ENDBRANCH  20  24
ENDBRANCH   1  20
TORSDOF 6
ENDMDL
MODEL 9
REMARK VINA RESULT:      -9.2      0.293      1.184
REMARK  Name = 
REMARK  6 active torsions:
REMARK  status: ('A' for Active; 'I' for Inactive)
REMARK    1  A    between atoms: C_2  and  C_28
REMARK    2  A    between atoms: N_3  and  C_4
REMARK    3  A    between atoms: C_7  and  C_8
REMARK    4  A    between atoms: C_8  and  N_9
REMARK    5  A    between atoms: N_9  and  C_10
REMARK    6  A    between atoms: N_13  and  C_14
REMARK                            x       y       z     vdW  Elec       q    Type
REMARK                         _______ _______ _______ _____ _____    ______ ____
ROOT
ATOM      1  N   UNL     1       2.181   6.872  17.814  0.00  0.00    +0.000 N 
ATOM      2  H   UNL     1       1.208   6.667  17.993  0.00  0.00    +0.000 HD
ENDROOT
BRANCH   1   3
ATOM      3  C   UNL     1       3.084   5.848  18.251  0.00  0.00    +0.000 A 
ATOM      4  N   UNL     1       4.386   6.142  18.093  0.00  0.00    +0.000 NA
ATOM      5  C   UNL     1       5.272   5.200  18.432  0.00  0.00    +0.000 A 
ATOM      6  N   UNL     1       6.177   4.690  17.517  0.00  0.00    +0.000 N 
ATOM      7  N   UNL     1       5.022   4.280  19.314  0.00  0.00    +0.000 NA
ATOM      8  C   UNL     1       3.853   3.746  19.121  0.00  0.00    +0.000 A 
ATOM      9  C   UNL     1       3.919   2.381  19.305  0.00  0.00    +0.000 A 
ATOM     10  C   UNL     1       2.851   1.566  19.010  0.00  0.00    +0.000 A 
ATOM     11  C   UNL     1       1.664   2.184  18.649  0.00  0.00    +0.000 A 
ATOM     12  C   UNL     1       1.600   3.604  18.460  0.00  0.00    +0.000 A 
ATOM     13  C   UNL     1       2.752   4.457  18.591  0.00  0.00    +0.000 A 
ATOM     14  H   UNL     1       6.131   3.688  17.683  0.00  0.00    +0.000 HD
BRANCH   6  15
ATOM     15  C   UNL     1       5.981   5.082  16.147  0.00  0.00    +0.000 C 
ATOM     16  C   UNL     1       7.367   5.076  15.538  0.00  0.00    +0.000 C 
ATOM     17  C   UNL     1       7.144   4.805  14.073  0.00  0.00    +0.000 C 
ATOM     18  C   UNL     1       5.819   4.053  13.966  0.00  0.00    +0.000 C 
ATOM     19  C   UNL     1       5.208   4.025  15.360  0.00  0.00    +0.000 C 
ENDBRANCH   6  15
ENDBRANCH   1   3
BRANCH   1  20
ATOM     20  C   UNL     1       2.591   8.281  18.207  0.00  0.00    +0.000 C 
BRANCH  20  24
ATOM     21  C   UNL     1      -0.429  10.892  20.252  0.00  0.00    +0.000 A 
ATOM     22  C   UNL     1       0.156  11.231  19.034  0.00  0.00    +0.000 A 
ATOM     23  C   UNL     1       1.137  10.398  18.416  0.00  0.00    +0.000 A 
ATOM     24  C   UNL     1       1.596   9.188  18.987  0.00  0.00    +0.000 A 
ATOM     25  C   UNL     1       0.939   8.811  20.167  0.00  0.00    +0.000 A 
ATOM     26  C   UNL     1      -0.044   9.651  20.789  0.00  0.00    +0.000 A 
BRANCH  21  29
ATOM     27  O   UNL     1      -0.985  11.052  23.177  0.00  0.00    +0.000 OA
ATOM     28  C   UNL     1      -1.607  11.714  22.352  0.00  0.00    +0.000 C 
ATOM     29  N   UNL     1      -1.369  11.717  20.973  0.00  0.00    +0.000 N 
ATOM     30  H   UNL     1      -1.986  12.277  20.402  0.00  0.00    +0.000 HD
BRANCH  28  31
ATOM     31  C   UNL     1      -2.753  12.549  22.888  0.00  0.00    +0.000 A 
ATOM     32  C   UNL     1      -3.441  12.277  24.089  0.00  0.00    +0.000 A 
ATOM     33  C   UNL     1      -4.519  13.077  24.494  0.00  0.00    +0.000 A 
ATOM     34  C   UNL     1      -4.935  14.150  23.711  0.00  0.00    +0.000 A 
ATOM     35  F   UNL     1      -5.956  14.913  24.102  0.00  0.00    +0.000 F 
ATOM     36  C   UNL     1      -4.287  14.429  22.511  0.00  0.00    +0.000 A 
ATOM     37  C   UNL     1      -3.217  13.632  22.105  0.00  0.00    +0.000 A 
ENDBRANCH  28  31
ENDBRANCH  21  29
ENDBRANCH  20  24
ENDBRANCH   1  20
TORSDOF 6
ENDMDL
