MODEL 1
REMARK VINA RESULT:      -7.2      0.000      0.000
REMARK  Name = 
REMARK  7 active torsions:
REMARK  status: ('A' for Active; 'I' for Inactive)
REMARK    1  A    between atoms: C_1  and  C_2
REMARK    2  A    between atoms: C_5  and  S_6
REMARK    3  A    between atoms: S_6  and  C_7
REMARK    4  A    between atoms: C_7  and  C_8
REMARK    5  A    between atoms: C_8  and  C_9
REMARK    6  A    between atoms: N_10  and  N_11
REMARK    7  A    between atoms: C_16  and  C_17
REMARK                            x       y       z     vdW  Elec       q    Type
REMARK                         _______ _______ _______ _____ _____    ______ ____
ROOT
ATOM      1  C   UNL     1       3.315   2.636  19.461  0.00  0.00    +0.000 C 
ATOM      2  N   UNL     1       3.758   2.954  18.290  0.00  0.00    +0.000 NA
ENDROOT
BRANCH   2   3
ATOM      3  N   UNL     1       5.076   3.279  18.219  0.00  0.00    +0.000 N 
ATOM      4  C   UNL     1       5.570   4.313  17.468  0.00  0.00    +0.000 C 
ATOM      5  N   UNL     1       4.927   5.122  16.696  0.00  0.00    +0.000 NA
ATOM      6  C   UNL     1       5.734   6.064  16.109  0.00  0.00    +0.000 C 
ATOM      7  O   UNL     1       5.347   6.859  15.260  0.00  0.00    +0.000 OA
ATOM      8  C   UNL     1       7.160   6.085  16.633  0.00  0.00    +0.000 C 
ATOM      9  C   UNL     1       7.384   7.299  17.517  0.00  0.00    +0.000 C 
ATOM     10  S   UNL     1       7.298   4.557  17.603  0.00  0.00    +0.000 S 
ATOM     11  H   UNL     1       5.773   2.753  18.739  0.00  0.00    +0.000 HD
ENDBRANCH   2   3
BRANCH   1  12
ATOM     12  C   UNL     1       1.882   2.217  19.624  0.00  0.00    +0.000 C 
BRANCH  12  13
ATOM     13  C   UNL     1       1.043   3.441  19.967  0.00  0.00    +0.000 C 
BRANCH  13  14
ATOM     14  S   UNL     1       2.004   4.518  21.081  0.00  0.00    +0.000 S 
BRANCH  14  19
ATOM     15  C   UNL     1       1.888   9.735  17.909  0.00  0.00    +0.000 C 
ATOM     16  C   UNL     1       1.939   8.471  18.716  0.00  0.00    +0.000 A 
ATOM     17  C   UNL     1       2.402   7.279  18.153  0.00  0.00    +0.000 A 
ATOM     18  C   UNL     1       2.423   6.104  18.908  0.00  0.00    +0.000 A 
ATOM     19  C   UNL     1       1.993   6.094  20.240  0.00  0.00    +0.000 A 
ATOM     20  C   UNL     1       1.524   7.285  20.801  0.00  0.00    +0.000 A 
ATOM     21  C   UNL     1       1.501   8.465  20.046  0.00  0.00    +0.000 A 
ENDBRANCH  14  19
ENDBRANCH  13  14
ENDBRANCH  12  13
ENDBRANCH   1  12
TORSDOF 5
ENDMDL
MODEL 2
REMARK VINA RESULT:      -6.7      4.472      6.379
REMARK  Name = 
REMARK  7 active torsions:
REMARK  status: ('A' for Active; 'I' for Inactive)
REMARK    1  A    between atoms: C_1  and  C_2
REMARK    2  A    between atoms: C_5  and  S_6
REMARK    3  A    between atoms: S_6  and  C_7
REMARK    4  A    between atoms: C_7  and  C_8
REMARK    5  A    between atoms: C_8  and  C_9
REMARK    6  A    between atoms: N_10  and  N_11
REMARK    7  A    between atoms: C_16  and  C_17
REMARK                            x       y       z     vdW  Elec       q    Type
REMARK                         _______ _______ _______ _____ _____    ______ ____
ROOT
ATOM      1  C   UNL     1       7.568   7.091  17.718  0.00  0.00    +0.000 C 
ATOM      2  N   UNL     1       8.249   7.963  18.383  0.00  0.00    +0.000 NA
ENDROOT
BRANCH   2   3
ATOM      3  N   UNL     1       8.165   9.247  17.943  0.00  0.00    +0.000 N 
ATOM      4  C   UNL     1       8.829  10.298  18.520  0.00  0.00    +0.000 C 
ATOM      5  N   UNL     1       9.599  10.290  19.554  0.00  0.00    +0.000 NA
ATOM      6  C   UNL     1      10.123  11.524  19.846  0.00  0.00    +0.000 C 
ATOM      7  O   UNL     1      10.791  11.761  20.847  0.00  0.00    +0.000 OA
ATOM      8  C   UNL     1       9.854  12.587  18.794  0.00  0.00    +0.000 C 
ATOM      9  C   UNL     1      11.117  12.888  18.008  0.00  0.00    +0.000 C 
ATOM     10  S   UNL     1       8.598  11.837  17.719  0.00  0.00    +0.000 S 
ATOM     11  H   UNL     1       7.590   9.488  17.142  0.00  0.00    +0.000 HD
ENDBRANCH   2   3
BRANCH   1  12
ATOM     12  C   UNL     1       7.565   5.656  18.162  0.00  0.00    +0.000 C 
BRANCH  12  13
ATOM     13  C   UNL     1       6.877   4.809  17.099  0.00  0.00    +0.000 C 
BRANCH  13  14
ATOM     14  S   UNL     1       5.470   5.749  16.421  0.00  0.00    +0.000 S 
BRANCH  14  19
ATOM     15  C   UNL     1       0.819   2.796  19.055  0.00  0.00    +0.000 C 
ATOM     16  C   UNL     1       1.935   3.546  18.391  0.00  0.00    +0.000 A 
ATOM     17  C   UNL     1       2.866   2.882  17.587  0.00  0.00    +0.000 A 
ATOM     18  C   UNL     1       3.914   3.588  16.992  0.00  0.00    +0.000 A 
ATOM     19  C   UNL     1       4.051   4.969  17.177  0.00  0.00    +0.000 A 
ATOM     20  C   UNL     1       3.124   5.631  17.987  0.00  0.00    +0.000 A 
ATOM     21  C   UNL     1       2.072   4.925  18.585  0.00  0.00    +0.000 A 
ENDBRANCH  14  19
ENDBRANCH  13  14
ENDBRANCH  12  13
ENDBRANCH   1  12
TORSDOF 5
ENDMDL
MODEL 3
REMARK VINA RESULT:      -6.6      4.881      6.846
REMARK  Name = 
REMARK  7 active torsions:
REMARK  status: ('A' for Active; 'I' for Inactive)
REMARK    1  A    between atoms: C_1  and  C_2
REMARK    2  A    between atoms: C_5  and  S_6
REMARK    3  A    between atoms: S_6  and  C_7
REMARK    4  A    between atoms: C_7  and  C_8
REMARK    5  A    between atoms: C_8  and  C_9
REMARK    6  A    between atoms: N_10  and  N_11
REMARK    7  A    between atoms: C_16  and  C_17
REMARK                            x       y       z     vdW  Elec       q    Type
REMARK                         _______ _______ _______ _____ _____    ______ ____
ROOT
ATOM      1  C   UNL     1       7.863   7.848  17.524  0.00  0.00    +0.000 C 
ATOM      2  N   UNL     1       8.315   8.640  18.438  0.00  0.00    +0.000 NA
ENDROOT
BRANCH   2   3
ATOM      3  N   UNL     1       8.752   9.854  18.012  0.00  0.00    +0.000 N 
ATOM      4  C   UNL     1       9.199  10.843  18.849  0.00  0.00    +0.000 C 
ATOM      5  N   UNL     1       9.263  10.837  20.136  0.00  0.00    +0.000 NA
ATOM      6  C   UNL     1       9.788  11.992  20.657  0.00  0.00    +0.000 C 
ATOM      7  O   UNL     1       9.838  12.238  21.857  0.00  0.00    +0.000 OA
ATOM      8  C   UNL     1      10.360  12.945  19.622  0.00  0.00    +0.000 C 
ATOM      9  C   UNL     1      11.878  12.931  19.668  0.00  0.00    +0.000 C 
ATOM     10  S   UNL     1       9.765  12.288  18.037  0.00  0.00    +0.000 S 
ATOM     11  H   UNL     1       8.769  10.087  17.023  0.00  0.00    +0.000 HD
ENDBRANCH   2   3
BRANCH   1  12
ATOM     12  C   UNL     1       7.316   6.504  17.911  0.00  0.00    +0.000 C 
BRANCH  12  13
ATOM     13  C   UNL     1       6.484   5.956  16.758  0.00  0.00    +0.000 C 
BRANCH  13  14
ATOM     14  S   UNL     1       4.818   6.691  16.836  0.00  0.00    +0.000 S 
BRANCH  14  19
ATOM     15  C   UNL     1       1.048   2.274  18.726  0.00  0.00    +0.000 C 
ATOM     16  C   UNL     1       2.004   3.340  18.279  0.00  0.00    +0.000 A 
ATOM     17  C   UNL     1       1.772   4.684  18.584  0.00  0.00    +0.000 A 
ATOM     18  C   UNL     1       2.658   5.670  18.144  0.00  0.00    +0.000 A 
ATOM     19  C   UNL     1       3.797   5.338  17.400  0.00  0.00    +0.000 A 
ATOM     20  C   UNL     1       4.025   3.994  17.090  0.00  0.00    +0.000 A 
ATOM     21  C   UNL     1       3.137   3.003  17.530  0.00  0.00    +0.000 A 
ENDBRANCH  14  19
ENDBRANCH  13  14
ENDBRANCH  12  13
ENDBRANCH   1  12
TORSDOF 5
ENDMDL
MODEL 4
REMARK VINA RESULT:      -6.6      2.705      5.138
REMARK  Name = 
REMARK  7 active torsions:
REMARK  status: ('A' for Active; 'I' for Inactive)
REMARK    1  A    between atoms: C_1  and  C_2
REMARK    2  A    between atoms: C_5  and  S_6
REMARK    3  A    between atoms: S_6  and  C_7
REMARK    4  A    between atoms: C_7  and  C_8
REMARK    5  A    between atoms: C_8  and  C_9
REMARK    6  A    between atoms: N_10  and  N_11
REMARK    7  A    between atoms: C_16  and  C_17
REMARK                            x       y       z     vdW  Elec       q    Type
REMARK                         _______ _______ _______ _____ _____    ______ ____
ROOT
ATOM      1  C   UNL     1       2.126   4.295  21.297  0.00  0.00    +0.000 C 
ATOM      2  N   UNL     1       2.208   5.289  20.478  0.00  0.00    +0.000 NA
ENDROOT
BRANCH   2   3
ATOM      3  N   UNL     1       1.794   6.492  20.957  0.00  0.00    +0.000 N 
ATOM      4  C   UNL     1       1.712   7.630  20.199  0.00  0.00    +0.000 C 
ATOM      5  N   UNL     1       2.023   7.792  18.958  0.00  0.00    +0.000 NA
ATOM      6  C   UNL     1       1.793   9.066  18.504  0.00  0.00    +0.000 C 
ATOM      7  O   UNL     1       2.117   9.462  17.390  0.00  0.00    +0.000 OA
ATOM      8  C   UNL     1       1.046   9.956  19.484  0.00  0.00    +0.000 C 
ATOM      9  C   UNL     1      -0.386  10.166  19.026  0.00  0.00    +0.000 C 
ATOM     10  S   UNL     1       1.087   9.030  21.045  0.00  0.00    +0.000 S 
ATOM     11  H   UNL     1       1.516   6.601  21.928  0.00  0.00    +0.000 HD
ENDBRANCH   2   3
BRANCH   1  12
ATOM     12  C   UNL     1       2.607   2.938  20.868  0.00  0.00    +0.000 C 
BRANCH  12  13
ATOM     13  C   UNL     1       2.051   2.628  19.484  0.00  0.00    +0.000 C 
BRANCH  13  14
ATOM     14  S   UNL     1       3.408   2.013  18.432  0.00  0.00    +0.000 S 
BRANCH  14  19
ATOM     15  C   UNL     1       6.494   7.143  17.229  0.00  0.00    +0.000 C 
ATOM     16  C   UNL     1       5.771   5.865  17.531  0.00  0.00    +0.000 A 
ATOM     17  C   UNL     1       4.876   5.313  16.611  0.00  0.00    +0.000 A 
ATOM     18  C   UNL     1       4.191   4.134  16.913  0.00  0.00    +0.000 A 
ATOM     19  C   UNL     1       4.390   3.476  18.133  0.00  0.00    +0.000 A 
ATOM     20  C   UNL     1       5.280   4.032  19.055  0.00  0.00    +0.000 A 
ATOM     21  C   UNL     1       5.968   5.214  18.755  0.00  0.00    +0.000 A 
ENDBRANCH  14  19
ENDBRANCH  13  14
ENDBRANCH  12  13
ENDBRANCH   1  12
TORSDOF 5
ENDMDL
MODEL 5
REMARK VINA RESULT:      -6.6      2.497      5.085
REMARK  Name = 
REMARK  7 active torsions:
REMARK  status: ('A' for Active; 'I' for Inactive)
REMARK    1  A    between atoms: C_1  and  C_2
REMARK    2  A    between atoms: C_5  and  S_6
REMARK    3  A    between atoms: S_6  and  C_7
REMARK    4  A    between atoms: C_7  and  C_8
REMARK    5  A    between atoms: C_8  and  C_9
REMARK    6  A    between atoms: N_10  and  N_11
REMARK    7  A    between atoms: C_16  and  C_17
REMARK                            x       y       z     vdW  Elec       q    Type
REMARK                         _______ _______ _______ _____ _____    ______ ____
ROOT
ATOM      1  C   UNL     1       1.459   4.417  20.121  0.00  0.00    +0.000 C 
ATOM      2  N   UNL     1       2.242   5.199  20.786  0.00  0.00    +0.000 NA
ENDROOT
BRANCH   2   3
ATOM      3  N   UNL     1       1.770   6.451  21.028  0.00  0.00    +0.000 N 
ATOM      4  C   UNL     1       1.797   7.469  20.111  0.00  0.00    +0.000 C 
ATOM      5  N   UNL     1       2.277   7.458  18.914  0.00  0.00    +0.000 NA
ATOM      6  C   UNL     1       2.116   8.651  18.256  0.00  0.00    +0.000 C 
ATOM      7  O   UNL     1       2.592   8.891  17.152  0.00  0.00    +0.000 OA
ATOM      8  C   UNL     1       1.245   9.659  18.987  0.00  0.00    +0.000 C 
ATOM      9  C   UNL     1      -0.110   9.778  18.312  0.00  0.00    +0.000 C 
ATOM     10  S   UNL     1       1.067   8.964  20.655  0.00  0.00    +0.000 S 
ATOM     11  H   UNL     1       1.360   6.691  21.926  0.00  0.00    +0.000 HD
ENDBRANCH   2   3
BRANCH   1  12
ATOM     12  C   UNL     1       1.880   3.001  19.850  0.00  0.00    +0.000 C 
BRANCH  12  13
ATOM     13  C   UNL     1       3.368   2.978  19.524  0.00  0.00    +0.000 C 
BRANCH  13  14
ATOM     14  S   UNL     1       3.580   3.268  17.737  0.00  0.00    +0.000 S 
BRANCH  14  19
ATOM     15  C   UNL     1       7.696   7.778  17.596  0.00  0.00    +0.000 C 
ATOM     16  C   UNL     1       6.657   6.697  17.638  0.00  0.00    +0.000 A 
ATOM     17  C   UNL     1       6.789   5.609  18.504  0.00  0.00    +0.000 A 
ATOM     18  C   UNL     1       5.826   4.597  18.518  0.00  0.00    +0.000 A 
ATOM     19  C   UNL     1       4.708   4.654  17.677  0.00  0.00    +0.000 A 
ATOM     20  C   UNL     1       4.580   5.739  16.806  0.00  0.00    +0.000 A 
ATOM     21  C   UNL     1       5.545   6.754  16.790  0.00  0.00    +0.000 A 
ENDBRANCH  14  19
ENDBRANCH  13  14
ENDBRANCH  12  13
ENDBRANCH   1  12
TORSDOF 5
ENDMDL
MODEL 6
REMARK VINA RESULT:      -6.5      4.823      6.663
REMARK  Name = 
REMARK  7 active torsions:
REMARK  status: ('A' for Active; 'I' for Inactive)
REMARK    1  A    between atoms: C_1  and  C_2
REMARK    2  A    between atoms: C_5  and  S_6
REMARK    3  A    between atoms: S_6  and  C_7
REMARK    4  A    between atoms: C_7  and  C_8
REMARK    5  A    between atoms: C_8  and  C_9
REMARK    6  A    between atoms: N_10  and  N_11
REMARK    7  A    between atoms: C_16  and  C_17
REMARK                            x       y       z     vdW  Elec       q    Type
REMARK                         _______ _______ _______ _____ _____    ______ ____
ROOT
ATOM      1  C   UNL     1       8.109   7.590  18.409  0.00  0.00    +0.000 C 
ATOM      2  N   UNL     1       8.384   8.821  18.135  0.00  0.00    +0.000 NA
ENDROOT
BRANCH   2   3
ATOM      3  N   UNL     1       8.942   9.546  19.140  0.00  0.00    +0.000 N 
ATOM      4  C   UNL     1       9.537  10.768  18.962  0.00  0.00    +0.000 C 
ATOM      5  N   UNL     1       9.707  11.426  17.867  0.00  0.00    +0.000 NA
ATOM      6  C   UNL     1      10.324  12.637  18.054  0.00  0.00    +0.000 C 
ATOM      7  O   UNL     1      10.676  13.372  17.138  0.00  0.00    +0.000 OA
ATOM      8  C   UNL     1      10.496  13.036  19.510  0.00  0.00    +0.000 C 
ATOM      9  C   UNL     1       9.520  14.139  19.878  0.00  0.00    +0.000 C 
ATOM     10  S   UNL     1      10.119  11.519  20.433  0.00  0.00    +0.000 S 
ATOM     11  H   UNL     1       8.939   9.203  20.096  0.00  0.00    +0.000 HD
ENDBRANCH   2   3
BRANCH   1  12
ATOM     12  C   UNL     1       7.534   6.701  17.344  0.00  0.00    +0.000 C 
BRANCH  12  13
ATOM     13  C   UNL     1       6.329   5.961  17.910  0.00  0.00    +0.000 C 
BRANCH  13  14
ATOM     14  S   UNL     1       4.841   6.474  16.989  0.00  0.00    +0.000 S 
BRANCH  14  19
ATOM     15  C   UNL     1       0.841   2.260  18.869  0.00  0.00    +0.000 C 
ATOM     16  C   UNL     1       1.793   3.317  18.394  0.00  0.00    +0.000 A 
ATOM     17  C   UNL     1       2.832   3.003  17.515  0.00  0.00    +0.000 A 
ATOM     18  C   UNL     1       3.726   3.991  17.097  0.00  0.00    +0.000 A 
ATOM     19  C   UNL     1       3.598   5.314  17.539  0.00  0.00    +0.000 A 
ATOM     20  C   UNL     1       2.563   5.626  18.424  0.00  0.00    +0.000 A 
ATOM     21  C   UNL     1       1.665   4.636  18.844  0.00  0.00    +0.000 A 
ENDBRANCH  14  19
ENDBRANCH  13  14
ENDBRANCH  12  13
ENDBRANCH   1  12
TORSDOF 5
ENDMDL
MODEL 7
REMARK VINA RESULT:      -6.5      4.778      6.607
REMARK  Name = 
REMARK  7 active torsions:
REMARK  status: ('A' for Active; 'I' for Inactive)
REMARK    1  A    between atoms: C_1  and  C_2
REMARK    2  A    between atoms: C_5  and  S_6
REMARK    3  A    between atoms: S_6  and  C_7
REMARK    4  A    between atoms: C_7  and  C_8
REMARK    5  A    between atoms: C_8  and  C_9
REMARK    6  A    between atoms: N_10  and  N_11
REMARK    7  A    between atoms: C_16  and  C_17
REMARK                            x       y       z     vdW  Elec       q    Type
REMARK                         _______ _______ _______ _____ _____    ______ ____
ROOT
ATOM      1  C   UNL     1       7.527   7.773  17.591  0.00  0.00    +0.000 C 
ATOM      2  N   UNL     1       8.297   8.556  18.269  0.00  0.00    +0.000 NA
ENDROOT
BRANCH   2   3
ATOM      3  N   UNL     1       8.250   9.873  17.937  0.00  0.00    +0.000 N 
ATOM      4  C   UNL     1       9.147  10.808  18.384  0.00  0.00    +0.000 C 
ATOM      5  N   UNL     1      10.142  10.645  19.188  0.00  0.00    +0.000 NA
ATOM      6  C   UNL     1      10.855  11.796  19.407  0.00  0.00    +0.000 C 
ATOM      7  O   UNL     1      11.770  11.888  20.217  0.00  0.00    +0.000 OA
ATOM      8  C   UNL     1      10.455  12.961  18.517  0.00  0.00    +0.000 C 
ATOM      9  C   UNL     1      11.511  13.206  17.455  0.00  0.00    +0.000 C 
ATOM     10  S   UNL     1       8.898  12.422  17.754  0.00  0.00    +0.000 S 
ATOM     11  H   UNL     1       7.526  10.232  17.321  0.00  0.00    +0.000 HD
ENDBRANCH   2   3
BRANCH   1  12
ATOM     12  C   UNL     1       7.479   6.309  17.923  0.00  0.00    +0.000 C 
BRANCH  12  13
ATOM     13  C   UNL     1       6.406   5.642  17.072  0.00  0.00    +0.000 C 
BRANCH  13  14
ATOM     14  S   UNL     1       4.854   6.584  17.241  0.00  0.00    +0.000 S 
BRANCH  14  19
ATOM     15  C   UNL     1       1.349   2.815  20.527  0.00  0.00    +0.000 C 
ATOM     16  C   UNL     1       2.201   3.720  19.687  0.00  0.00    +0.000 A 
ATOM     17  C   UNL     1       3.544   3.938  20.005  0.00  0.00    +0.000 A 
ATOM     18  C   UNL     1       4.322   4.800  19.229  0.00  0.00    +0.000 A 
ATOM     19  C   UNL     1       3.781   5.455  18.116  0.00  0.00    +0.000 A 
ATOM     20  C   UNL     1       2.436   5.241  17.802  0.00  0.00    +0.000 A 
ATOM     21  C   UNL     1       1.654   4.377  18.580  0.00  0.00    +0.000 A 
ENDBRANCH  14  19
ENDBRANCH  13  14
ENDBRANCH  12  13
ENDBRANCH   1  12
TORSDOF 5
ENDMDL
MODEL 8
REMARK VINA RESULT:      -6.4      1.487      1.950
REMARK  Name = 
REMARK  7 active torsions:
REMARK  status: ('A' for Active; 'I' for Inactive)
REMARK    1  A    between atoms: C_1  and  C_2
REMARK    2  A    between atoms: C_5  and  S_6
REMARK    3  A    between atoms: S_6  and  C_7
REMARK    4  A    between atoms: C_7  and  C_8
REMARK    5  A    between atoms: C_8  and  C_9
REMARK    6  A    between atoms: N_10  and  N_11
REMARK    7  A    between atoms: C_16  and  C_17
REMARK                            x       y       z     vdW  Elec       q    Type
REMARK                         _______ _______ _______ _____ _____    ______ ____
ROOT
ATOM      1  C   UNL     1       3.509   4.028  19.876  0.00  0.00    +0.000 C 
ATOM      2  N   UNL     1       4.064   3.194  19.062  0.00  0.00    +0.000 NA
ENDROOT
BRANCH   2   3
ATOM      3  N   UNL     1       5.355   3.456  18.728  0.00  0.00    +0.000 N 
ATOM      4  C   UNL     1       5.734   4.431  17.844  0.00  0.00    +0.000 C 
ATOM      5  N   UNL     1       4.986   5.232  17.165  0.00  0.00    +0.000 NA
ATOM      6  C   UNL     1       5.700   6.109  16.387  0.00  0.00    +0.000 C 
ATOM      7  O   UNL     1       5.187   6.881  15.584  0.00  0.00    +0.000 OA
ATOM      8  C   UNL     1       7.199   6.090  16.633  0.00  0.00    +0.000 C 
ATOM      9  C   UNL     1       7.629   7.332  17.393  0.00  0.00    +0.000 C 
ATOM     10  S   UNL     1       7.464   4.603  17.640  0.00  0.00    +0.000 S 
ATOM     11  H   UNL     1       6.119   2.923  19.135  0.00  0.00    +0.000 HD
ENDBRANCH   2   3
BRANCH   1  12
ATOM     12  C   UNL     1       2.099   3.790  20.337  0.00  0.00    +0.000 C 
BRANCH  12  13
ATOM     13  C   UNL     1       1.396   5.132  20.499  0.00  0.00    +0.000 C 
BRANCH  13  14
ATOM     14  S   UNL     1       2.468   6.441  19.818  0.00  0.00    +0.000 S 
BRANCH  14  19
ATOM     15  C   UNL     1      -0.695  11.555  20.882  0.00  0.00    +0.000 C 
ATOM     16  C   UNL     1       0.108  10.310  20.648  0.00  0.00    +0.000 A 
ATOM     17  C   UNL     1       0.569   9.983  19.370  0.00  0.00    +0.000 A 
ATOM     18  C   UNL     1       1.297   8.810  19.161  0.00  0.00    +0.000 A 
ATOM     19  C   UNL     1       1.589   7.943  20.221  0.00  0.00    +0.000 A 
ATOM     20  C   UNL     1       1.122   8.267  21.498  0.00  0.00    +0.000 A 
ATOM     21  C   UNL     1       0.391   9.443  21.710  0.00  0.00    +0.000 A 
ENDBRANCH  14  19
ENDBRANCH  13  14
ENDBRANCH  12  13
ENDBRANCH   1  12
TORSDOF 5
ENDMDL
MODEL 9
REMARK VINA RESULT:      -6.4      5.129      6.971
REMARK  Name = 
REMARK  7 active torsions:
REMARK  status: ('A' for Active; 'I' for Inactive)
REMARK    1  A    between atoms: C_1  and  C_2
REMARK    2  A    between atoms: C_5  and  S_6
REMARK    3  A    between atoms: S_6  and  C_7
REMARK    4  A    between atoms: C_7  and  C_8
REMARK    5  A    between atoms: C_8  and  C_9
REMARK    6  A    between atoms: N_10  and  N_11
REMARK    7  A    between atoms: C_16  and  C_17
REMARK                            x       y       z     vdW  Elec       q    Type
REMARK                         _______ _______ _______ _____ _____    ______ ____
ROOT
ATOM      1  C   UNL     1       8.183   8.160  18.347  0.00  0.00    +0.000 C 
ATOM      2  N   UNL     1       8.470   9.398  18.117  0.00  0.00    +0.000 NA
ENDROOT
BRANCH   2   3
ATOM      3  N   UNL     1       9.074  10.069  19.132  0.00  0.00    +0.000 N 
ATOM      4  C   UNL     1      10.026  11.037  18.950  0.00  0.00    +0.000 C 
ATOM      5  N   UNL     1      10.537  11.462  17.845  0.00  0.00    +0.000 NA
ATOM      6  C   UNL     1      11.456  12.465  18.024  0.00  0.00    +0.000 C 
ATOM      7  O   UNL     1      12.136  12.936  17.120  0.00  0.00    +0.000 OA
ATOM      8  C   UNL     1      11.535  12.997  19.445  0.00  0.00    +0.000 C 
ATOM      9  C   UNL     1      10.894  14.371  19.535  0.00  0.00    +0.000 C 
ATOM     10  S   UNL     1      10.596  11.791  20.424  0.00  0.00    +0.000 S 
ATOM     11  H   UNL     1       8.836   9.877  20.101  0.00  0.00    +0.000 HD
ENDBRANCH   2   3
BRANCH   1  12
ATOM     12  C   UNL     1       7.558   7.328  17.264  0.00  0.00    +0.000 C 
BRANCH  12  13
ATOM     13  C   UNL     1       6.639   6.293  17.901  0.00  0.00    +0.000 C 
BRANCH  13  14
ATOM     14  S   UNL     1       5.015   6.364  17.074  0.00  0.00    +0.000 S 
BRANCH  14  19
ATOM     15  C   UNL     1       1.222   2.984  20.463  0.00  0.00    +0.000 C 
ATOM     16  C   UNL     1       2.167   3.832  19.664  0.00  0.00    +0.000 A 
ATOM     17  C   UNL     1       1.703   4.619  18.606  0.00  0.00    +0.000 A 
ATOM     18  C   UNL     1       2.596   5.388  17.855  0.00  0.00    +0.000 A 
ATOM     19  C   UNL     1       3.965   5.395  18.147  0.00  0.00    +0.000 A 
ATOM     20  C   UNL     1       4.429   4.602  19.200  0.00  0.00    +0.000 A 
ATOM     21  C   UNL     1       3.536   3.831  19.955  0.00  0.00    +0.000 A 
ENDBRANCH  14  19
ENDBRANCH  13  14
ENDBRANCH  12  13
ENDBRANCH   1  12
TORSDOF 5
ENDMDL
