MODEL 1
REMARK VINA RESULT:      -7.3      0.000      0.000
REMARK  Name = 
REMARK  7 active torsions:
REMARK  status: ('A' for Active; 'I' for Inactive)
REMARK    1  A    between atoms: C_1  and  C_2
REMARK    2  A    between atoms: C_4  and  N_5
REMARK    3  A    between atoms: N_9  and  C_10
REMARK    4  A    between atoms: C_10  and  C_11
REMARK    5  A    between atoms: N_13  and  C_14
REMARK    6  A    between atoms: C_14  and  N_15
REMARK    7  A    between atoms: N_18  and  C_19
REMARK                            x       y       z     vdW  Elec       q    Type
REMARK                         _______ _______ _______ _____ _____    ______ ____
ROOT
ATOM      1  C   UNL     1       4.817   4.614  19.054  0.00  0.00    +0.000 A 
ATOM      2  N   UNL     1       4.265   5.623  19.651  0.00  0.00    +0.000 NA
ATOM      3  N   UNL     1       2.919   5.322  19.581  0.00  0.00    +0.000 N 
ATOM      4  C   UNL     1       2.741   4.133  18.924  0.00  0.00    +0.000 A 
ATOM      5  S   UNL     1       1.402   3.275  18.493  0.00  0.00    +0.000 S 
ATOM      6  O   UNL     1       3.975   3.667  18.585  0.00  0.00    +0.000 OA
ENDROOT
BRANCH   1   7
ATOM      7  C   UNL     1       6.270   4.405  18.816  0.00  0.00    +0.000 C 
BRANCH   7  13
ATOM      8  C   UNL     1       7.727   7.053  18.136  0.00  0.00    +0.000 C 
ATOM      9  C   UNL     1       7.315   6.014  17.158  0.00  0.00    +0.000 A 
ATOM     10  N   UNL     1       7.483   6.099  15.851  0.00  0.00    +0.000 NA
ATOM     11  C   UNL     1       6.925   4.954  15.326  0.00  0.00    +0.000 A 
ATOM     12  C   UNL     1       6.419   4.154  16.329  0.00  0.00    +0.000 A 
ATOM     13  N   UNL     1       6.687   4.832  17.492  0.00  0.00    +0.000 N 
BRANCH  11  14
ATOM     14  N   UNL     1       6.896   4.714  13.900  0.00  0.00    +0.000 N 
ATOM     15  O   UNL     1       6.087   3.861  13.499  0.00  0.00    +0.000 OA
ATOM     16  O   UNL     1       7.666   5.368  13.184  0.00  0.00    +0.000 OA
ENDBRANCH  11  14
ENDBRANCH   7  13
ENDBRANCH   1   7
BRANCH   3  17
ATOM     17  C   UNL     1       1.915   6.174  20.202  0.00  0.00    +0.000 C 
BRANCH  17  18
ATOM     18  N   UNL     1       2.079   7.567  19.779  0.00  0.00    +0.000 NA
ATOM     19  C   UNL     1       1.155   8.445  20.529  0.00  0.00    +0.000 C 
ATOM     20  C   UNL     1       1.265   9.932  20.103  0.00  0.00    +0.000 C 
ATOM     21  N   UNL     1       1.154  10.185  18.654  0.00  0.00    +0.000 NA
ATOM     22  C   UNL     1      -0.228  10.119  18.187  0.00  0.00    +0.000 C 
ATOM     23  C   UNL     1       2.020   9.242  17.926  0.00  0.00    +0.000 C 
ATOM     24  C   UNL     1       1.854   7.760  18.334  0.00  0.00    +0.000 C 
ENDBRANCH  17  18
ENDBRANCH   3  17
TORSDOF 5
ENDMDL
MODEL 2
REMARK VINA RESULT:      -7.1      1.199      1.660
REMARK  Name = 
REMARK  7 active torsions:
REMARK  status: ('A' for Active; 'I' for Inactive)
REMARK    1  A    between atoms: C_1  and  C_2
REMARK    2  A    between atoms: C_4  and  N_5
REMARK    3  A    between atoms: N_9  and  C_10
REMARK    4  A    between atoms: C_10  and  C_11
REMARK    5  A    between atoms: N_13  and  C_14
REMARK    6  A    between atoms: C_14  and  N_15
REMARK    7  A    between atoms: N_18  and  C_19
REMARK                            x       y       z     vdW  Elec       q    Type
REMARK                         _______ _______ _______ _____ _____    ______ ____
ROOT
ATOM      1  C   UNL     1       4.581   5.318  19.154  0.00  0.00    +0.000 A 
ATOM      2  N   UNL     1       4.000   6.382  18.698  0.00  0.00    +0.000 NA
ATOM      3  N   UNL     1       2.683   6.198  19.071  0.00  0.00    +0.000 N 
ATOM      4  C   UNL     1       2.549   5.006  19.732  0.00  0.00    +0.000 A 
ATOM      5  S   UNL     1       1.254   4.216  20.376  0.00  0.00    +0.000 S 
ATOM      6  O   UNL     1       3.784   4.434  19.794  0.00  0.00    +0.000 OA
ENDROOT
BRANCH   1   7
ATOM      7  C   UNL     1       6.019   4.964  19.029  0.00  0.00    +0.000 C 
BRANCH   7  13
ATOM      8  C   UNL     1       7.824   7.331  18.169  0.00  0.00    +0.000 C 
ATOM      9  C   UNL     1       7.324   6.253  17.278  0.00  0.00    +0.000 A 
ATOM     10  N   UNL     1       7.552   6.181  15.980  0.00  0.00    +0.000 NA
ATOM     11  C   UNL     1       6.876   5.063  15.542  0.00  0.00    +0.000 A 
ATOM     12  C   UNL     1       6.234   4.439  16.590  0.00  0.00    +0.000 A 
ATOM     13  N   UNL     1       6.539   5.197  17.693  0.00  0.00    +0.000 N 
BRANCH  11  14
ATOM     14  N   UNL     1       6.874   4.682  14.146  0.00  0.00    +0.000 N 
ATOM     15  O   UNL     1       7.587   5.358  13.387  0.00  0.00    +0.000 OA
ATOM     16  O   UNL     1       6.175   3.718  13.807  0.00  0.00    +0.000 OA
ENDBRANCH  11  14
ENDBRANCH   7  13
ENDBRANCH   1   7
BRANCH   3  17
ATOM     17  C   UNL     1       1.670   7.210  18.811  0.00  0.00    +0.000 C 
BRANCH  17  18
ATOM     18  N   UNL     1       1.816   8.344  19.727  0.00  0.00    +0.000 NA
ATOM     19  C   UNL     1       1.341   7.979  21.079  0.00  0.00    +0.000 C 
ATOM     20  C   UNL     1       1.447   9.151  22.087  0.00  0.00    +0.000 C 
ATOM     21  N   UNL     1       0.834  10.420  21.650  0.00  0.00    +0.000 NA
ATOM     22  C   UNL     1      -0.621  10.402  21.775  0.00  0.00    +0.000 C 
ATOM     23  C   UNL     1       1.259  10.718  20.271  0.00  0.00    +0.000 C 
ATOM     24  C   UNL     1       1.094   9.547  19.275  0.00  0.00    +0.000 C 
ENDBRANCH  17  18
ENDBRANCH   3  17
TORSDOF 5
ENDMDL
MODEL 3
REMARK VINA RESULT:      -6.6      1.884      2.588
REMARK  Name = 
REMARK  7 active torsions:
REMARK  status: ('A' for Active; 'I' for Inactive)
REMARK    1  A    between atoms: C_1  and  C_2
REMARK    2  A    between atoms: C_4  and  N_5
REMARK    3  A    between atoms: N_9  and  C_10
REMARK    4  A    between atoms: C_10  and  C_11
REMARK    5  A    between atoms: N_13  and  C_14
REMARK    6  A    between atoms: C_14  and  N_15
REMARK    7  A    between atoms: N_18  and  C_19
REMARK                            x       y       z     vdW  Elec       q    Type
REMARK                         _______ _______ _______ _____ _____    ______ ____
ROOT
ATOM      1  C   UNL     1       3.434   5.894  18.634  0.00  0.00    +0.000 A 
ATOM      2  N   UNL     1       3.265   6.822  17.745  0.00  0.00    +0.000 NA
ATOM      3  N   UNL     1       2.515   7.764  18.421  0.00  0.00    +0.000 N 
ATOM      4  C   UNL     1       2.266   7.331  19.697  0.00  0.00    +0.000 A 
ATOM      5  S   UNL     1       1.410   7.968  20.953  0.00  0.00    +0.000 S 
ATOM      6  O   UNL     1       2.867   6.117  19.840  0.00  0.00    +0.000 OA
ENDROOT
BRANCH   1   7
ATOM      7  C   UNL     1       4.163   4.611  18.456  0.00  0.00    +0.000 C 
BRANCH   7  13
ATOM      8  C   UNL     1       7.011   5.568  19.213  0.00  0.00    +0.000 C 
ATOM      9  C   UNL     1       6.561   5.174  17.852  0.00  0.00    +0.000 A 
ATOM     10  N   UNL     1       7.311   5.216  16.768  0.00  0.00    +0.000 NA
ATOM     11  C   UNL     1       6.497   4.812  15.733  0.00  0.00    +0.000 A 
ATOM     12  C   UNL     1       5.234   4.510  16.195  0.00  0.00    +0.000 A 
ATOM     13  N   UNL     1       5.291   4.729  17.548  0.00  0.00    +0.000 N 
BRANCH  11  14
ATOM     14  N   UNL     1       6.978   4.764  14.369  0.00  0.00    +0.000 N 
ATOM     15  O   UNL     1       6.438   3.931  13.622  0.00  0.00    +0.000 OA
ATOM     16  O   UNL     1       7.880   5.546  14.042  0.00  0.00    +0.000 OA
ENDBRANCH  11  14
ENDBRANCH   7  13
ENDBRANCH   1   7
BRANCH   3  17
ATOM     17  C   UNL     1       2.148   9.030  17.805  0.00  0.00    +0.000 C 
BRANCH  17  18
ATOM     18  N   UNL     1       1.189   9.759  18.639  0.00  0.00    +0.000 NA
ATOM     19  C   UNL     1      -0.137   9.795  17.985  0.00  0.00    +0.000 C 
ATOM     20  C   UNL     1      -1.189  10.578  18.812  0.00  0.00    +0.000 C 
ATOM     21  N   UNL     1      -0.783  11.933  19.232  0.00  0.00    +0.000 NA
ATOM     22  C   UNL     1      -0.873  12.899  18.140  0.00  0.00    +0.000 C 
ATOM     23  C   UNL     1       0.574  11.882  19.803  0.00  0.00    +0.000 C 
ATOM     24  C   UNL     1       1.615  11.139  18.934  0.00  0.00    +0.000 C 
ENDBRANCH  17  18
ENDBRANCH   3  17
TORSDOF 5
ENDMDL
MODEL 4
REMARK VINA RESULT:      -6.5      3.574      5.296
REMARK  Name = 
REMARK  7 active torsions:
REMARK  status: ('A' for Active; 'I' for Inactive)
REMARK    1  A    between atoms: C_1  and  C_2
REMARK    2  A    between atoms: C_4  and  N_5
REMARK    3  A    between atoms: N_9  and  C_10
REMARK    4  A    between atoms: C_10  and  C_11
REMARK    5  A    between atoms: N_13  and  C_14
REMARK    6  A    between atoms: C_14  and  N_15
REMARK    7  A    between atoms: N_18  and  C_19
REMARK                            x       y       z     vdW  Elec       q    Type
REMARK                         _______ _______ _______ _____ _____    ______ ____
ROOT
ATOM      1  C   UNL     1       2.524   8.097  18.223  0.00  0.00    +0.000 A 
ATOM      2  N   UNL     1       1.996   9.127  17.640  0.00  0.00    +0.000 NA
ATOM      3  N   UNL     1       1.200   9.667  18.630  0.00  0.00    +0.000 N 
ATOM      4  C   UNL     1       1.291   8.908  19.766  0.00  0.00    +0.000 A 
ATOM      5  S   UNL     1       0.568   9.003  21.244  0.00  0.00    +0.000 S 
ATOM      6  O   UNL     1       2.157   7.889  19.507  0.00  0.00    +0.000 OA
ENDROOT
BRANCH   1   7
ATOM      7  C   UNL     1       3.467   7.118  17.622  0.00  0.00    +0.000 C 
BRANCH   7  13
ATOM      8  C   UNL     1       5.621   5.597  19.248  0.00  0.00    +0.000 C 
ATOM      9  C   UNL     1       4.275   5.077  18.891  0.00  0.00    +0.000 A 
ATOM     10  N   UNL     1       3.829   3.871  19.190  0.00  0.00    +0.000 NA
ATOM     11  C   UNL     1       2.569   3.792  18.639  0.00  0.00    +0.000 A 
ATOM     12  C   UNL     1       2.238   4.970  18.005  0.00  0.00    +0.000 A 
ATOM     13  N   UNL     1       3.326   5.787  18.185  0.00  0.00    +0.000 N 
BRANCH  11  14
ATOM     14  N   UNL     1       1.776   2.586  18.741  0.00  0.00    +0.000 N 
ATOM     15  O   UNL     1       0.546   2.738  18.831  0.00  0.00    +0.000 OA
ATOM     16  O   UNL     1       2.366   1.498  18.727  0.00  0.00    +0.000 OA
ENDBRANCH  11  14
ENDBRANCH   7  13
ENDBRANCH   1   7
BRANCH   3  17
ATOM     17  C   UNL     1       0.459  10.903  18.422  0.00  0.00    +0.000 C 
BRANCH  17  18
ATOM     18  N   UNL     1      -0.980  10.683  18.584  0.00  0.00    +0.000 NA
ATOM     19  C   UNL     1      -1.498   9.835  17.489  0.00  0.00    +0.000 C 
ATOM     20  C   UNL     1      -3.025   9.590  17.593  0.00  0.00    +0.000 C 
ATOM     21  N   UNL     1      -3.852  10.803  17.741  0.00  0.00    +0.000 NA
ATOM     22  C   UNL     1      -4.019  11.514  16.477  0.00  0.00    +0.000 C 
ATOM     23  C   UNL     1      -3.267  11.668  18.780  0.00  0.00    +0.000 C 
ATOM     24  C   UNL     1      -1.753  11.938  18.623  0.00  0.00    +0.000 C 
ENDBRANCH  17  18
ENDBRANCH   3  17
TORSDOF 5
ENDMDL
MODEL 5
REMARK VINA RESULT:      -6.5      3.086      4.445
REMARK  Name = 
REMARK  7 active torsions:
REMARK  status: ('A' for Active; 'I' for Inactive)
REMARK    1  A    between atoms: C_1  and  C_2
REMARK    2  A    between atoms: C_4  and  N_5
REMARK    3  A    between atoms: N_9  and  C_10
REMARK    4  A    between atoms: C_10  and  C_11
REMARK    5  A    between atoms: N_13  and  C_14
REMARK    6  A    between atoms: C_14  and  N_15
REMARK    7  A    between atoms: N_18  and  C_19
REMARK                            x       y       z     vdW  Elec       q    Type
REMARK                         _______ _______ _______ _____ _____    ______ ____
ROOT
ATOM      1  C   UNL     1       3.149   7.567  17.935  0.00  0.00    +0.000 A 
ATOM      2  N   UNL     1       2.468   8.551  17.438  0.00  0.00    +0.000 NA
ATOM      3  N   UNL     1       1.655   8.926  18.489  0.00  0.00    +0.000 N 
ATOM      4  C   UNL     1       1.895   8.122  19.572  0.00  0.00    +0.000 A 
ATOM      5  S   UNL     1       1.234   8.038  21.079  0.00  0.00    +0.000 S 
ATOM      6  O   UNL     1       2.871   7.240  19.217  0.00  0.00    +0.000 OA
ENDROOT
BRANCH   1   7
ATOM      7  C   UNL     1       4.181   6.755  17.240  0.00  0.00    +0.000 C 
BRANCH   7  13
ATOM      8  C   UNL     1       7.049   6.236  18.291  0.00  0.00    +0.000 C 
ATOM      9  C   UNL     1       5.880   5.337  18.478  0.00  0.00    +0.000 A 
ATOM     10  N   UNL     1       5.918   4.168  19.090  0.00  0.00    +0.000 NA
ATOM     11  C   UNL     1       4.643   3.656  18.999  0.00  0.00    +0.000 A 
ATOM     12  C   UNL     1       3.812   4.531  18.331  0.00  0.00    +0.000 A 
ATOM     13  N   UNL     1       4.607   5.605  18.018  0.00  0.00    +0.000 N 
BRANCH  11  14
ATOM     14  N   UNL     1       4.311   2.357  19.540  0.00  0.00    +0.000 N 
ATOM     15  O   UNL     1       3.371   1.754  18.995  0.00  0.00    +0.000 OA
ATOM     16  O   UNL     1       4.979   1.935  20.493  0.00  0.00    +0.000 OA
ENDBRANCH  11  14
ENDBRANCH   7  13
ENDBRANCH   1   7
BRANCH   3  17
ATOM     17  C   UNL     1       0.754  10.064  18.386  0.00  0.00    +0.000 C 
BRANCH  17  18
ATOM     18  N   UNL     1       1.243  11.191  19.184  0.00  0.00    +0.000 NA
ATOM     19  C   UNL     1       0.111  11.916  19.800  0.00  0.00    +0.000 C 
ATOM     20  C   UNL     1       0.568  13.139  20.636  0.00  0.00    +0.000 C 
ATOM     21  N   UNL     1       1.467  14.080  19.943  0.00  0.00    +0.000 NA
ATOM     22  C   UNL     1       0.748  14.945  19.011  0.00  0.00    +0.000 C 
ATOM     23  C   UNL     1       2.538  13.326  19.269  0.00  0.00    +0.000 C 
ATOM     24  C   UNL     1       2.051  12.143  18.400  0.00  0.00    +0.000 C 
ENDBRANCH  17  18
ENDBRANCH   3  17
TORSDOF 5
ENDMDL
MODEL 6
REMARK VINA RESULT:      -6.5      2.478      3.760
REMARK  Name = 
REMARK  7 active torsions:
REMARK  status: ('A' for Active; 'I' for Inactive)
REMARK    1  A    between atoms: C_1  and  C_2
REMARK    2  A    between atoms: C_4  and  N_5
REMARK    3  A    between atoms: N_9  and  C_10
REMARK    4  A    between atoms: C_10  and  C_11
REMARK    5  A    between atoms: N_13  and  C_14
REMARK    6  A    between atoms: C_14  and  N_15
REMARK    7  A    between atoms: N_18  and  C_19
REMARK                            x       y       z     vdW  Elec       q    Type
REMARK                         _______ _______ _______ _____ _____    ______ ____
ROOT
ATOM      1  C   UNL     1       2.622   6.268  19.685  0.00  0.00    +0.000 A 
ATOM      2  N   UNL     1       2.575   7.091  18.685  0.00  0.00    +0.000 NA
ATOM      3  N   UNL     1       1.865   8.159  19.197  0.00  0.00    +0.000 N 
ATOM      4  C   UNL     1       1.513   7.902  20.496  0.00  0.00    +0.000 A 
ATOM      5  S   UNL     1       0.643   8.746  21.613  0.00  0.00    +0.000 S 
ATOM      6  O   UNL     1       2.009   6.676  20.818  0.00  0.00    +0.000 OA
ENDROOT
BRANCH   1   7
ATOM      7  C   UNL     1       3.258   4.925  19.706  0.00  0.00    +0.000 C 
BRANCH   7  13
ATOM      8  C   UNL     1       2.588   3.275  17.170  0.00  0.00    +0.000 C 
ATOM      9  C   UNL     1       3.879   3.958  17.445  0.00  0.00    +0.000 A 
ATOM     10  N   UNL     1       4.936   3.919  16.655  0.00  0.00    +0.000 NA
ATOM     11  C   UNL     1       5.914   4.640  17.303  0.00  0.00    +0.000 A 
ATOM     12  C   UNL     1       5.444   5.134  18.502  0.00  0.00    +0.000 A 
ATOM     13  N   UNL     1       4.142   4.706  18.574  0.00  0.00    +0.000 N 
BRANCH  11  14
ATOM     14  N   UNL     1       7.239   4.789  16.741  0.00  0.00    +0.000 N 
ATOM     15  O   UNL     1       7.337   5.526  15.746  0.00  0.00    +0.000 OA
ATOM     16  O   UNL     1       8.173   4.184  17.283  0.00  0.00    +0.000 OA
ENDBRANCH  11  14
ENDBRANCH   7  13
ENDBRANCH   1   7
BRANCH   3  17
ATOM     17  C   UNL     1       1.631   9.363  18.415  0.00  0.00    +0.000 C 
BRANCH  17  18
ATOM     18  N   UNL     1       0.826  10.328  19.168  0.00  0.00    +0.000 NA
ATOM     19  C   UNL     1      -0.432  10.622  18.448  0.00  0.00    +0.000 C 
ATOM     20  C   UNL     1      -1.315  11.659  19.187  0.00  0.00    +0.000 C 
ATOM     21  N   UNL     1      -0.635  12.911  19.570  0.00  0.00    +0.000 NA
ATOM     22  C   UNL     1      -0.464  13.816  18.436  0.00  0.00    +0.000 C 
ATOM     23  C   UNL     1       0.653  12.591  20.210  0.00  0.00    +0.000 C 
ATOM     24  C   UNL     1       1.536  11.594  19.427  0.00  0.00    +0.000 C 
ENDBRANCH  17  18
ENDBRANCH   3  17
TORSDOF 5
ENDMDL
MODEL 7
REMARK VINA RESULT:      -6.5      2.493      3.882
REMARK  Name = 
REMARK  7 active torsions:
REMARK  status: ('A' for Active; 'I' for Inactive)
REMARK    1  A    between atoms: C_1  and  C_2
REMARK    2  A    between atoms: C_4  and  N_5
REMARK    3  A    between atoms: N_9  and  C_10
REMARK    4  A    between atoms: C_10  and  C_11
REMARK    5  A    between atoms: N_13  and  C_14
REMARK    6  A    between atoms: C_14  and  N_15
REMARK    7  A    between atoms: N_18  and  C_19
REMARK                            x       y       z     vdW  Elec       q    Type
REMARK                         _______ _______ _______ _____ _____    ______ ____
ROOT
ATOM      1  C   UNL     1       2.402   6.224  19.828  0.00  0.00    +0.000 A 
ATOM      2  N   UNL     1       1.783   6.855  20.776  0.00  0.00    +0.000 NA
ATOM      3  N   UNL     1       1.535   8.091  20.213  0.00  0.00    +0.000 N 
ATOM      4  C   UNL     1       2.039   8.132  18.940  0.00  0.00    +0.000 A 
ATOM      5  S   UNL     1       2.100   9.312  17.791  0.00  0.00    +0.000 S 
ATOM      6  O   UNL     1       2.599   6.917  18.684  0.00  0.00    +0.000 OA
ENDROOT
BRANCH   1   7
ATOM      7  C   UNL     1       2.931   4.836  19.878  0.00  0.00    +0.000 C 
BRANCH   7  13
ATOM      8  C   UNL     1       2.727   3.399  17.140  0.00  0.00    +0.000 C 
ATOM      9  C   UNL     1       3.967   3.964  17.733  0.00  0.00    +0.000 A 
ATOM     10  N   UNL     1       5.165   3.893  17.184  0.00  0.00    +0.000 NA
ATOM     11  C   UNL     1       6.022   4.497  18.078  0.00  0.00    +0.000 A 
ATOM     12  C   UNL     1       5.335   4.951  19.183  0.00  0.00    +0.000 A 
ATOM     13  N   UNL     1       4.025   4.620  18.945  0.00  0.00    +0.000 N 
BRANCH  11  14
ATOM     14  N   UNL     1       7.444   4.578  17.822  0.00  0.00    +0.000 N 
ATOM     15  O   UNL     1       7.802   4.430  16.641  0.00  0.00    +0.000 OA
ATOM     16  O   UNL     1       8.197   4.792  18.780  0.00  0.00    +0.000 OA
ENDBRANCH  11  14
ENDBRANCH   7  13
ENDBRANCH   1   7
BRANCH   3  17
ATOM     17  C   UNL     1       0.783   9.114  20.923  0.00  0.00    +0.000 C 
BRANCH  17  18
ATOM     18  N   UNL     1       0.520  10.266  20.057  0.00  0.00    +0.000 NA
ATOM     19  C   UNL     1       0.926  11.519  20.730  0.00  0.00    +0.000 C 
ATOM     20  C   UNL     1       0.646  12.777  19.869  0.00  0.00    +0.000 C 
ATOM     21  N   UNL     1      -0.729  12.894  19.346  0.00  0.00    +0.000 NA
ATOM     22  C   UNL     1      -1.671  13.343  20.368  0.00  0.00    +0.000 C 
ATOM     23  C   UNL     1      -1.138  11.608  18.756  0.00  0.00    +0.000 C 
ATOM     24  C   UNL     1      -0.895  10.375  19.657  0.00  0.00    +0.000 C 
ENDBRANCH  17  18
ENDBRANCH   3  17
TORSDOF 5
ENDMDL
MODEL 8
REMARK VINA RESULT:      -6.4      2.342      4.138
REMARK  Name = 
REMARK  7 active torsions:
REMARK  status: ('A' for Active; 'I' for Inactive)
REMARK    1  A    between atoms: C_1  and  C_2
REMARK    2  A    between atoms: C_4  and  N_5
REMARK    3  A    between atoms: N_9  and  C_10
REMARK    4  A    between atoms: C_10  and  C_11
REMARK    5  A    between atoms: N_13  and  C_14
REMARK    6  A    between atoms: C_14  and  N_15
REMARK    7  A    between atoms: N_18  and  C_19
REMARK                            x       y       z     vdW  Elec       q    Type
REMARK                         _______ _______ _______ _____ _____    ______ ____
ROOT
ATOM      1  C   UNL     1       4.850   5.952  18.479  0.00  0.00    +0.000 A 
ATOM      2  N   UNL     1       4.145   5.566  19.494  0.00  0.00    +0.000 NA
ATOM      3  N   UNL     1       3.040   6.393  19.434  0.00  0.00    +0.000 N 
ATOM      4  C   UNL     1       3.158   7.249  18.372  0.00  0.00    +0.000 A 
ATOM      5  S   UNL     1       2.213   8.474  17.805  0.00  0.00    +0.000 S 
ATOM      6  O   UNL     1       4.332   6.961  17.744  0.00  0.00    +0.000 OA
ENDROOT
BRANCH   1   7
ATOM      7  C   UNL     1       6.171   5.417  18.055  0.00  0.00    +0.000 C 
BRANCH   7  13
ATOM      8  C   UNL     1       4.316   3.372  16.649  0.00  0.00    +0.000 C 
ATOM      9  C   UNL     1       5.410   4.141  16.000  0.00  0.00    +0.000 A 
ATOM     10  N   UNL     1       5.765   4.024  14.734  0.00  0.00    +0.000 NA
ATOM     11  C   UNL     1       6.835   4.875  14.566  0.00  0.00    +0.000 A 
ATOM     12  C   UNL     1       7.131   5.527  15.744  0.00  0.00    +0.000 A 
ATOM     13  N   UNL     1       6.206   5.063  16.646  0.00  0.00    +0.000 N 
BRANCH  11  14
ATOM     14  N   UNL     1       7.515   4.990  13.294  0.00  0.00    +0.000 N 
ATOM     15  O   UNL     1       8.451   5.805  13.239  0.00  0.00    +0.000 OA
ATOM     16  O   UNL     1       7.128   4.276  12.360  0.00  0.00    +0.000 OA
ENDBRANCH  11  14
ENDBRANCH   7  13
ENDBRANCH   1   7
BRANCH   3  17
ATOM     17  C   UNL     1       1.934   6.254  20.370  0.00  0.00    +0.000 C 
BRANCH  17  18
ATOM     18  N   UNL     1       1.386   4.896  20.333  0.00  0.00    +0.000 NA
ATOM     19  C   UNL     1       2.145   4.009  21.240  0.00  0.00    +0.000 C 
ATOM     20  C   UNL     1       1.625   2.549  21.222  0.00  0.00    +0.000 C 
ATOM     21  N   UNL     1       1.502   1.937  19.885  0.00  0.00    +0.000 NA
ATOM     22  C   UNL     1       2.794   1.518  19.349  0.00  0.00    +0.000 C 
ATOM     23  C   UNL     1       0.815   2.875  18.980  0.00  0.00    +0.000 C 
ATOM     24  C   UNL     1       1.387   4.311  18.980  0.00  0.00    +0.000 C 
ENDBRANCH  17  18
ENDBRANCH   3  17
TORSDOF 5
ENDMDL
MODEL 9
REMARK VINA RESULT:      -6.3      3.323      7.843
REMARK  Name = 
REMARK  7 active torsions:
REMARK  status: ('A' for Active; 'I' for Inactive)
REMARK    1  A    between atoms: C_1  and  C_2
REMARK    2  A    between atoms: C_4  and  N_5
REMARK    3  A    between atoms: N_9  and  C_10
REMARK    4  A    between atoms: C_10  and  C_11
REMARK    5  A    between atoms: N_13  and  C_14
REMARK    6  A    between atoms: C_14  and  N_15
REMARK    7  A    between atoms: N_18  and  C_19
REMARK                            x       y       z     vdW  Elec       q    Type
REMARK                         _______ _______ _______ _____ _____    ______ ____
ROOT
ATOM      1  C   UNL     1       2.301   7.674  18.735  0.00  0.00    +0.000 A 
ATOM      2  N   UNL     1       2.814   6.948  17.793  0.00  0.00    +0.000 NA
ATOM      3  N   UNL     1       2.876   5.695  18.370  0.00  0.00    +0.000 N 
ATOM      4  C   UNL     1       2.397   5.748  19.652  0.00  0.00    +0.000 A 
ATOM      5  S   UNL     1       2.250   4.622  20.846  0.00  0.00    +0.000 S 
ATOM      6  O   UNL     1       2.016   7.034  19.891  0.00  0.00    +0.000 OA
ENDROOT
BRANCH   1   7
ATOM      7  C   UNL     1       2.015   9.132  18.682  0.00  0.00    +0.000 C 
BRANCH   7  13
ATOM      8  C   UNL     1      -0.844  10.147  18.056  0.00  0.00    +0.000 C 
ATOM      9  C   UNL     1      -0.245  10.023  19.410  0.00  0.00    +0.000 A 
ATOM     10  N   UNL     1      -0.843  10.368  20.535  0.00  0.00    +0.000 NA
ATOM     11  C   UNL     1       0.074  10.131  21.535  0.00  0.00    +0.000 A 
ATOM     12  C   UNL     1       1.245   9.624  21.014  0.00  0.00    +0.000 A 
ATOM     13  N   UNL     1       1.025   9.545  19.661  0.00  0.00    +0.000 N 
BRANCH  11  14
ATOM     14  N   UNL     1      -0.227  10.426  22.919  0.00  0.00    +0.000 N 
ATOM     15  O   UNL     1      -0.699  11.551  23.155  0.00  0.00    +0.000 OA
ATOM     16  O   UNL     1      -0.002   9.549  23.763  0.00  0.00    +0.000 OA
ENDBRANCH  11  14
ENDBRANCH   7  13
ENDBRANCH   1   7
BRANCH   3  17
ATOM     17  C   UNL     1       3.339   4.535  17.622  0.00  0.00    +0.000 C 
BRANCH  17  18
ATOM     18  N   UNL     1       4.791   4.576  17.438  0.00  0.00    +0.000 NA
ATOM     19  C   UNL     1       5.449   5.102  18.653  0.00  0.00    +0.000 C 
ATOM     20  C   UNL     1       6.990   5.195  18.507  0.00  0.00    +0.000 C 
ATOM     21  N   UNL     1       7.470   5.911  17.310  0.00  0.00    +0.000 NA
ATOM     22  C   UNL     1       7.364   7.360  17.454  0.00  0.00    +0.000 C 
ATOM     23  C   UNL     1       6.740   5.427  16.126  0.00  0.00    +0.000 C 
ATOM     24  C   UNL     1       5.202   5.393  16.281  0.00  0.00    +0.000 C 
ENDBRANCH  17  18
ENDBRANCH   3  17
TORSDOF 5
ENDMDL
