MODEL 1
REMARK VINA RESULT:      -7.3      0.000      0.000
REMARK  Name = 
REMARK  7 active torsions:
REMARK  status: ('A' for Active; 'I' for Inactive)
REMARK    1  A    between atoms: C_1  and  O_2
REMARK    2  A    between atoms: O_2  and  C_3
REMARK    3  A    between atoms: C_3  and  C_4
REMARK    4  A    between atoms: C_4  and  C_5
REMARK    5  A    between atoms: C_11  and  C_12
REMARK    6  A    between atoms: C_16  and  C_17
REMARK    7  A    between atoms: C_18  and  C_19
REMARK                            x       y       z     vdW  Elec       q    Type
REMARK                         _______ _______ _______ _____ _____    ______ ____
ROOT
ATOM      1  C   UNL     1       5.116   4.729  16.282  0.00  0.00    +0.000 C 
ATOM      2  O   UNL     1       4.374   3.746  16.412  0.00  0.00    +0.000 OA
ATOM      3  N   UNL     1       5.718   5.338  17.362  0.00  0.00    +0.000 N 
ATOM      4  C   UNL     1       6.587   6.500  17.366  0.00  0.00    +0.000 C 
ATOM      5  C   UNL     1       7.576   6.199  18.474  0.00  0.00    +0.000 C 
ATOM      6  C   UNL     1       6.753   5.430  19.508  0.00  0.00    +0.000 C 
ATOM      7  C   UNL     1       5.643   4.736  18.696  0.00  0.00    +0.000 C 
ENDROOT
BRANCH   7   8
ATOM      8  C   UNL     1       4.265   4.851  19.343  0.00  0.00    +0.000 A 
ATOM      9  C   UNL     1       3.613   6.101  19.347  0.00  0.00    +0.000 A 
ATOM     10  C   UNL     1       2.337   6.250  19.878  0.00  0.00    +0.000 A 
ATOM     11  C   UNL     1       1.684   5.151  20.418  0.00  0.00    +0.000 A 
ATOM     12  C   UNL     1       2.297   3.890  20.447  0.00  0.00    +0.000 A 
ATOM     13  C   UNL     1       1.520   2.738  21.026  0.00  0.00    +0.000 C 
ATOM     14  C   UNL     1       3.605   3.732  19.920  0.00  0.00    +0.000 A 
ATOM     15  C   UNL     1       4.288   2.384  19.949  0.00  0.00    +0.000 C 
ENDBRANCH   7   8
BRANCH   1  16
ATOM     16  C   UNL     1       5.489   5.229  14.908  0.00  0.00    +0.000 C 
BRANCH  16  17
ATOM     17  C   UNL     1       6.697   4.483  14.362  0.00  0.00    +0.000 C 
BRANCH  17  19
ATOM     18  C   UNL     1       8.105   5.488  12.770  0.00  0.00    +0.000 C 
ATOM     19  O   UNL     1       7.764   5.412  14.150  0.00  0.00    +0.000 OA
ENDBRANCH  17  19
ENDBRANCH  16  17
ENDBRANCH   1  16
TORSDOF 4
ENDMDL
MODEL 2
REMARK VINA RESULT:      -6.9      1.774      2.803
REMARK  Name = 
REMARK  7 active torsions:
REMARK  status: ('A' for Active; 'I' for Inactive)
REMARK    1  A    between atoms: C_1  and  O_2
REMARK    2  A    between atoms: O_2  and  C_3
REMARK    3  A    between atoms: C_3  and  C_4
REMARK    4  A    between atoms: C_4  and  C_5
REMARK    5  A    between atoms: C_11  and  C_12
REMARK    6  A    between atoms: C_16  and  C_17
REMARK    7  A    between atoms: C_18  and  C_19
REMARK                            x       y       z     vdW  Elec       q    Type
REMARK                         _______ _______ _______ _____ _____    ______ ____
ROOT
ATOM      1  C   UNL     1       5.966   5.370  18.419  0.00  0.00    +0.000 C 
ATOM      2  O   UNL     1       5.993   4.707  19.465  0.00  0.00    +0.000 OA
ATOM      3  N   UNL     1       4.813   5.976  17.968  0.00  0.00    +0.000 N 
ATOM      4  C   UNL     1       4.626   6.758  16.760  0.00  0.00    +0.000 C 
ATOM      5  C   UNL     1       3.623   7.816  17.176  0.00  0.00    +0.000 C 
ATOM      6  C   UNL     1       2.721   7.099  18.180  0.00  0.00    +0.000 C 
ATOM      7  C   UNL     1       3.610   6.006  18.803  0.00  0.00    +0.000 C 
ENDROOT
BRANCH   7   8
ATOM      8  C   UNL     1       2.909   4.653  18.914  0.00  0.00    +0.000 A 
ATOM      9  C   UNL     1       2.847   3.819  17.780  0.00  0.00    +0.000 A 
ATOM     10  C   UNL     1       2.265   2.558  17.841  0.00  0.00    +0.000 A 
ATOM     11  C   UNL     1       1.730   2.104  19.037  0.00  0.00    +0.000 A 
ATOM     12  C   UNL     1       1.757   2.904  20.189  0.00  0.00    +0.000 A 
ATOM     13  C   UNL     1       1.179   2.336  21.459  0.00  0.00    +0.000 C 
ATOM     14  C   UNL     1       2.336   4.197  20.134  0.00  0.00    +0.000 A 
ATOM     15  C   UNL     1       2.368   5.079  21.360  0.00  0.00    +0.000 C 
ENDBRANCH   7   8
BRANCH   1  16
ATOM     16  C   UNL     1       7.238   5.643  17.653  0.00  0.00    +0.000 C 
BRANCH  16  17
ATOM     17  C   UNL     1       7.443   4.618  16.548  0.00  0.00    +0.000 C 
BRANCH  17  19
ATOM     18  C   UNL     1       6.725   4.642  14.309  0.00  0.00    +0.000 C 
ATOM     19  O   UNL     1       7.522   5.296  15.291  0.00  0.00    +0.000 OA
ENDBRANCH  17  19
ENDBRANCH  16  17
ENDBRANCH   1  16
TORSDOF 4
ENDMDL
MODEL 3
REMARK VINA RESULT:      -6.9      2.020      3.675
REMARK  Name = 
REMARK  7 active torsions:
REMARK  status: ('A' for Active; 'I' for Inactive)
REMARK    1  A    between atoms: C_1  and  O_2
REMARK    2  A    between atoms: O_2  and  C_3
REMARK    3  A    between atoms: C_3  and  C_4
REMARK    4  A    between atoms: C_4  and  C_5
REMARK    5  A    between atoms: C_11  and  C_12
REMARK    6  A    between atoms: C_16  and  C_17
REMARK    7  A    between atoms: C_18  and  C_19
REMARK                            x       y       z     vdW  Elec       q    Type
REMARK                         _______ _______ _______ _____ _____    ______ ____
ROOT
ATOM      1  C   UNL     1       6.465   5.355  18.707  0.00  0.00    +0.000 C 
ATOM      2  O   UNL     1       5.618   5.731  19.530  0.00  0.00    +0.000 OA
ATOM      3  N   UNL     1       6.111   4.844  17.477  0.00  0.00    +0.000 N 
ATOM      4  C   UNL     1       6.983   4.348  16.429  0.00  0.00    +0.000 C 
ATOM      5  C   UNL     1       6.274   4.758  15.154  0.00  0.00    +0.000 C 
ATOM      6  C   UNL     1       4.790   4.648  15.502  0.00  0.00    +0.000 C 
ATOM      7  C   UNL     1       4.719   4.889  17.022  0.00  0.00    +0.000 C 
ENDROOT
BRANCH   7   8
ATOM      8  C   UNL     1       3.807   3.900  17.745  0.00  0.00    +0.000 A 
ATOM      9  C   UNL     1       4.099   2.523  17.675  0.00  0.00    +0.000 A 
ATOM     10  C   UNL     1       3.331   1.585  18.355  0.00  0.00    +0.000 A 
ATOM     11  C   UNL     1       2.252   2.003  19.120  0.00  0.00    +0.000 A 
ATOM     12  C   UNL     1       1.915   3.362  19.210  0.00  0.00    +0.000 A 
ATOM     13  C   UNL     1       0.746   3.746  20.077  0.00  0.00    +0.000 C 
ATOM     14  C   UNL     1       2.685   4.325  18.508  0.00  0.00    +0.000 A 
ATOM     15  C   UNL     1       2.335   5.793  18.584  0.00  0.00    +0.000 C 
ENDBRANCH   7   8
BRANCH   1  16
ATOM     16  C   UNL     1       7.936   5.556  18.977  0.00  0.00    +0.000 C 
BRANCH  16  17
ATOM     17  C   UNL     1       8.305   7.031  18.929  0.00  0.00    +0.000 C 
BRANCH  17  19
ATOM     18  C   UNL     1       7.966   9.010  17.705  0.00  0.00    +0.000 C 
ATOM     19  O   UNL     1       7.829   7.592  17.703  0.00  0.00    +0.000 OA
ENDBRANCH  17  19
ENDBRANCH  16  17
ENDBRANCH   1  16
TORSDOF 4
ENDMDL
MODEL 4
REMARK VINA RESULT:      -6.8      1.058      1.145
REMARK  Name = 
REMARK  7 active torsions:
REMARK  status: ('A' for Active; 'I' for Inactive)
REMARK    1  A    between atoms: C_1  and  O_2
REMARK    2  A    between atoms: O_2  and  C_3
REMARK    3  A    between atoms: C_3  and  C_4
REMARK    4  A    between atoms: C_4  and  C_5
REMARK    5  A    between atoms: C_11  and  C_12
REMARK    6  A    between atoms: C_16  and  C_17
REMARK    7  A    between atoms: C_18  and  C_19
REMARK                            x       y       z     vdW  Elec       q    Type
REMARK                         _______ _______ _______ _____ _____    ______ ____
ROOT
ATOM      1  C   UNL     1       5.661   4.437  16.297  0.00  0.00    +0.000 C 
ATOM      2  O   UNL     1       4.943   3.438  16.446  0.00  0.00    +0.000 OA
ATOM      3  N   UNL     1       6.117   5.174  17.368  0.00  0.00    +0.000 N 
ATOM      4  C   UNL     1       6.941   6.369  17.347  0.00  0.00    +0.000 C 
ATOM      5  C   UNL     1       7.809   6.222  18.580  0.00  0.00    +0.000 C 
ATOM      6  C   UNL     1       6.903   5.521  19.592  0.00  0.00    +0.000 C 
ATOM      7  C   UNL     1       5.915   4.702  18.740  0.00  0.00    +0.000 C 
ENDROOT
BRANCH   7   8
ATOM      8  C   UNL     1       4.470   4.818  19.220  0.00  0.00    +0.000 A 
ATOM      9  C   UNL     1       3.826   6.070  19.158  0.00  0.00    +0.000 A 
ATOM     10  C   UNL     1       2.496   6.220  19.534  0.00  0.00    +0.000 A 
ATOM     11  C   UNL     1       1.781   5.119  19.983  0.00  0.00    +0.000 A 
ATOM     12  C   UNL     1       2.382   3.855  20.074  0.00  0.00    +0.000 A 
ATOM     13  C   UNL     1       1.538   2.702  20.547  0.00  0.00    +0.000 C 
ATOM     14  C   UNL     1       3.743   3.696  19.705  0.00  0.00    +0.000 A 
ATOM     15  C   UNL     1       4.413   2.346  19.803  0.00  0.00    +0.000 C 
ENDBRANCH   7   8
BRANCH   1  16
ATOM     16  C   UNL     1       6.168   4.817  14.927  0.00  0.00    +0.000 C 
BRANCH  16  17
ATOM     17  C   UNL     1       5.447   4.036  13.840  0.00  0.00    +0.000 C 
BRANCH  17  19
ATOM     18  C   UNL     1       5.852   2.736  11.922  0.00  0.00    +0.000 C 
ATOM     19  O   UNL     1       6.368   3.745  12.784  0.00  0.00    +0.000 OA
ENDBRANCH  17  19
ENDBRANCH  16  17
ENDBRANCH   1  16
TORSDOF 4
ENDMDL
MODEL 5
REMARK VINA RESULT:      -6.7      2.328      3.419
REMARK  Name = 
REMARK  7 active torsions:
REMARK  status: ('A' for Active; 'I' for Inactive)
REMARK    1  A    between atoms: C_1  and  O_2
REMARK    2  A    between atoms: O_2  and  C_3
REMARK    3  A    between atoms: C_3  and  C_4
REMARK    4  A    between atoms: C_4  and  C_5
REMARK    5  A    between atoms: C_11  and  C_12
REMARK    6  A    between atoms: C_16  and  C_17
REMARK    7  A    between atoms: C_18  and  C_19
REMARK                            x       y       z     vdW  Elec       q    Type
REMARK                         _______ _______ _______ _____ _____    ______ ____
ROOT
ATOM      1  C   UNL     1       6.004   5.398  18.561  0.00  0.00    +0.000 C 
ATOM      2  O   UNL     1       5.979   4.805  19.648  0.00  0.00    +0.000 OA
ATOM      3  N   UNL     1       4.869   5.939  17.998  0.00  0.00    +0.000 N 
ATOM      4  C   UNL     1       4.741   6.636  16.732  0.00  0.00    +0.000 C 
ATOM      5  C   UNL     1       3.688   7.689  17.011  0.00  0.00    +0.000 C 
ATOM      6  C   UNL     1       2.740   7.013  18.001  0.00  0.00    +0.000 C 
ATOM      7  C   UNL     1       3.612   5.988  18.751  0.00  0.00    +0.000 C 
ENDROOT
BRANCH   7   8
ATOM      8  C   UNL     1       2.939   4.626  18.907  0.00  0.00    +0.000 A 
ATOM      9  C   UNL     1       2.922   3.742  17.810  0.00  0.00    +0.000 A 
ATOM     10  C   UNL     1       2.367   2.471  17.914  0.00  0.00    +0.000 A 
ATOM     11  C   UNL     1       1.815   2.058  19.118  0.00  0.00    +0.000 A 
ATOM     12  C   UNL     1       1.798   2.908  20.234  0.00  0.00    +0.000 A 
ATOM     13  C   UNL     1       1.205   2.384  21.514  0.00  0.00    +0.000 C 
ATOM     14  C   UNL     1       2.350   4.211  20.133  0.00  0.00    +0.000 A 
ATOM     15  C   UNL     1       2.335   5.146  21.320  0.00  0.00    +0.000 C 
ENDBRANCH   7   8
BRANCH   1  16
ATOM     16  C   UNL     1       7.316   5.657  17.861  0.00  0.00    +0.000 C 
BRANCH  16  17
ATOM     17  C   UNL     1       7.969   6.931  18.375  0.00  0.00    +0.000 C 
BRANCH  17  19
ATOM     18  C   UNL     1       8.189   9.228  17.923  0.00  0.00    +0.000 C 
ATOM     19  O   UNL     1       7.827   7.959  17.390  0.00  0.00    +0.000 OA
ENDBRANCH  17  19
ENDBRANCH  16  17
ENDBRANCH   1  16
TORSDOF 4
ENDMDL
MODEL 6
REMARK VINA RESULT:      -6.2      1.891      3.155
REMARK  Name = 
REMARK  7 active torsions:
REMARK  status: ('A' for Active; 'I' for Inactive)
REMARK    1  A    between atoms: C_1  and  O_2
REMARK    2  A    between atoms: O_2  and  C_3
REMARK    3  A    between atoms: C_3  and  C_4
REMARK    4  A    between atoms: C_4  and  C_5
REMARK    5  A    between atoms: C_11  and  C_12
REMARK    6  A    between atoms: C_16  and  C_17
REMARK    7  A    between atoms: C_18  and  C_19
REMARK                            x       y       z     vdW  Elec       q    Type
REMARK                         _______ _______ _______ _____ _____    ______ ____
ROOT
ATOM      1  C   UNL     1       5.420   5.625  18.709  0.00  0.00    +0.000 C 
ATOM      2  O   UNL     1       5.709   5.060  19.773  0.00  0.00    +0.000 OA
ATOM      3  N   UNL     1       4.186   6.200  18.500  0.00  0.00    +0.000 N 
ATOM      4  C   UNL     1       3.701   6.871  17.308  0.00  0.00    +0.000 C 
ATOM      5  C   UNL     1       2.818   7.973  17.857  0.00  0.00    +0.000 C 
ATOM      6  C   UNL     1       2.195   7.361  19.112  0.00  0.00    +0.000 C 
ATOM      7  C   UNL     1       3.221   6.319  19.597  0.00  0.00    +0.000 C 
ENDROOT
BRANCH   7   8
ATOM      8  C   UNL     1       2.584   4.990  19.997  0.00  0.00    +0.000 A 
ATOM      9  C   UNL     1       2.647   4.579  21.344  0.00  0.00    +0.000 A 
ATOM     10  C   UNL     1       2.041   3.403  21.771  0.00  0.00    +0.000 A 
ATOM     11  C   UNL     1       1.358   2.611  20.859  0.00  0.00    +0.000 A 
ATOM     12  C   UNL     1       1.279   2.973  19.506  0.00  0.00    +0.000 A 
ATOM     13  C   UNL     1       0.501   2.078  18.578  0.00  0.00    +0.000 C 
ATOM     14  C   UNL     1       1.907   4.164  19.059  0.00  0.00    +0.000 A 
ATOM     15  C   UNL     1       1.841   4.568  17.605  0.00  0.00    +0.000 C 
ENDBRANCH   7   8
BRANCH   1  16
ATOM     16  C   UNL     1       6.464   5.813  17.636  0.00  0.00    +0.000 C 
BRANCH  16  17
ATOM     17  C   UNL     1       7.513   4.714  17.692  0.00  0.00    +0.000 C 
BRANCH  17  19
ATOM     18  C   UNL     1       6.945   4.832  15.414  0.00  0.00    +0.000 C 
ATOM     19  O   UNL     1       7.904   4.371  16.359  0.00  0.00    +0.000 OA
ENDBRANCH  17  19
ENDBRANCH  16  17
ENDBRANCH   1  16
TORSDOF 4
ENDMDL
MODEL 7
REMARK VINA RESULT:      -6.1      2.137      3.585
REMARK  Name = 
REMARK  7 active torsions:
REMARK  status: ('A' for Active; 'I' for Inactive)
REMARK    1  A    between atoms: C_1  and  O_2
REMARK    2  A    between atoms: O_2  and  C_3
REMARK    3  A    between atoms: C_3  and  C_4
REMARK    4  A    between atoms: C_4  and  C_5
REMARK    5  A    between atoms: C_11  and  C_12
REMARK    6  A    between atoms: C_16  and  C_17
REMARK    7  A    between atoms: C_18  and  C_19
REMARK                            x       y       z     vdW  Elec       q    Type
REMARK                         _______ _______ _______ _____ _____    ______ ____
ROOT
ATOM      1  C   UNL     1       5.761   6.451  17.465  0.00  0.00    +0.000 C 
ATOM      2  O   UNL     1       4.754   6.914  18.018  0.00  0.00    +0.000 OA
ATOM      3  N   UNL     1       5.760   5.211  16.865  0.00  0.00    +0.000 N 
ATOM      4  C   UNL     1       6.861   4.535  16.203  0.00  0.00    +0.000 C 
ATOM      5  C   UNL     1       6.188   3.787  15.070  0.00  0.00    +0.000 C 
ATOM      6  C   UNL     1       4.829   3.386  15.644  0.00  0.00    +0.000 C 
ATOM      7  C   UNL     1       4.512   4.461  16.702  0.00  0.00    +0.000 C 
ENDROOT
BRANCH   7   8
ATOM      8  C   UNL     1       3.974   3.878  18.007  0.00  0.00    +0.000 A 
ATOM      9  C   UNL     1       4.805   3.039  18.776  0.00  0.00    +0.000 A 
ATOM     10  C   UNL     1       4.383   2.523  19.996  0.00  0.00    +0.000 A 
ATOM     11  C   UNL     1       3.118   2.834  20.473  0.00  0.00    +0.000 A 
ATOM     12  C   UNL     1       2.251   3.656  19.738  0.00  0.00    +0.000 A 
ATOM     13  C   UNL     1       0.903   3.971  20.329  0.00  0.00    +0.000 C 
ATOM     14  C   UNL     1       2.668   4.175  18.485  0.00  0.00    +0.000 A 
ATOM     15  C   UNL     1       1.747   5.055  17.673  0.00  0.00    +0.000 C 
ENDBRANCH   7   8
BRANCH   1  16
ATOM     16  C   UNL     1       7.008   7.290  17.322  0.00  0.00    +0.000 C 
BRANCH  16  17
ATOM     17  C   UNL     1       7.967   7.047  18.477  0.00  0.00    +0.000 C 
BRANCH  17  19
ATOM     18  C   UNL     1       8.191   9.329  17.958  0.00  0.00    +0.000 C 
ATOM     19  O   UNL     1       8.683   8.255  18.752  0.00  0.00    +0.000 OA
ENDBRANCH  17  19
ENDBRANCH  16  17
ENDBRANCH   1  16
TORSDOF 4
ENDMDL
MODEL 8
REMARK VINA RESULT:      -6.0      2.182      5.885
REMARK  Name = 
REMARK  7 active torsions:
REMARK  status: ('A' for Active; 'I' for Inactive)
REMARK    1  A    between atoms: C_1  and  O_2
REMARK    2  A    between atoms: O_2  and  C_3
REMARK    3  A    between atoms: C_3  and  C_4
REMARK    4  A    between atoms: C_4  and  C_5
REMARK    5  A    between atoms: C_11  and  C_12
REMARK    6  A    between atoms: C_16  and  C_17
REMARK    7  A    between atoms: C_18  and  C_19
REMARK                            x       y       z     vdW  Elec       q    Type
REMARK                         _______ _______ _______ _____ _____    ______ ____
ROOT
ATOM      1  C   UNL     1       2.216   4.208  18.122  0.00  0.00    +0.000 C 
ATOM      2  O   UNL     1       2.676   3.655  17.113  0.00  0.00    +0.000 OA
ATOM      3  N   UNL     1       2.605   5.473  18.504  0.00  0.00    +0.000 N 
ATOM      4  C   UNL     1       2.173   6.232  19.662  0.00  0.00    +0.000 C 
ATOM      5  C   UNL     1       2.149   7.662  19.160  0.00  0.00    +0.000 C 
ATOM      6  C   UNL     1       3.308   7.726  18.166  0.00  0.00    +0.000 C 
ATOM      7  C   UNL     1       3.452   6.289  17.629  0.00  0.00    +0.000 C 
ENDROOT
BRANCH   7   8
ATOM      8  C   UNL     1       4.902   5.815  17.566  0.00  0.00    +0.000 A 
ATOM      9  C   UNL     1       5.568   5.485  18.763  0.00  0.00    +0.000 A 
ATOM     10  C   UNL     1       6.871   5.001  18.757  0.00  0.00    +0.000 A 
ATOM     11  C   UNL     1       7.538   4.837  17.552  0.00  0.00    +0.000 A 
ATOM     12  C   UNL     1       6.921   5.163  16.335  0.00  0.00    +0.000 A 
ATOM     13  C   UNL     1       7.696   4.936  15.065  0.00  0.00    +0.000 C 
ATOM     14  C   UNL     1       5.596   5.671  16.333  0.00  0.00    +0.000 A 
ATOM     15  C   UNL     1       4.915   6.037  15.035  0.00  0.00    +0.000 C 
ENDBRANCH   7   8
BRANCH   1  16
ATOM     16  C   UNL     1       1.110   3.554  18.914  0.00  0.00    +0.000 C 
BRANCH  16  17
ATOM     17  C   UNL     1       1.566   2.229  19.503  0.00  0.00    +0.000 C 
BRANCH  17  19
ATOM     18  C   UNL     1       1.933   3.065  21.670  0.00  0.00    +0.000 C 
ATOM     19  O   UNL     1       2.538   2.480  20.522  0.00  0.00    +0.000 OA
ENDBRANCH  17  19
ENDBRANCH  16  17
ENDBRANCH   1  16
TORSDOF 4
ENDMDL
MODEL 9
REMARK VINA RESULT:      -6.0      2.767      5.993
REMARK  Name = 
REMARK  7 active torsions:
REMARK  status: ('A' for Active; 'I' for Inactive)
REMARK    1  A    between atoms: C_1  and  O_2
REMARK    2  A    between atoms: O_2  and  C_3
REMARK    3  A    between atoms: C_3  and  C_4
REMARK    4  A    between atoms: C_4  and  C_5
REMARK    5  A    between atoms: C_11  and  C_12
REMARK    6  A    between atoms: C_16  and  C_17
REMARK    7  A    between atoms: C_18  and  C_19
REMARK                            x       y       z     vdW  Elec       q    Type
REMARK                         _______ _______ _______ _____ _____    ______ ____
ROOT
ATOM      1  C   UNL     1       4.191   2.645  19.967  0.00  0.00    +0.000 C 
ATOM      2  O   UNL     1       5.146   2.909  19.223  0.00  0.00    +0.000 OA
ATOM      3  N   UNL     1       2.889   2.922  19.612  0.00  0.00    +0.000 N 
ATOM      4  C   UNL     1       1.682   2.691  20.382  0.00  0.00    +0.000 C 
ATOM      5  C   UNL     1       0.655   2.323  19.331  0.00  0.00    +0.000 C 
ATOM      6  C   UNL     1       1.048   3.165  18.117  0.00  0.00    +0.000 C 
ATOM      7  C   UNL     1       2.567   3.383  18.258  0.00  0.00    +0.000 C 
ENDROOT
BRANCH   7   8
ATOM      8  C   UNL     1       2.995   4.823  17.984  0.00  0.00    +0.000 A 
ATOM      9  C   UNL     1       2.352   5.871  18.673  0.00  0.00    +0.000 A 
ATOM     10  C   UNL     1       2.738   7.195  18.497  0.00  0.00    +0.000 A 
ATOM     11  C   UNL     1       3.774   7.500  17.627  0.00  0.00    +0.000 A 
ATOM     12  C   UNL     1       4.436   6.492  16.911  0.00  0.00    +0.000 A 
ATOM     13  C   UNL     1       5.568   6.894  16.003  0.00  0.00    +0.000 C 
ATOM     14  C   UNL     1       4.040   5.139  17.073  0.00  0.00    +0.000 A 
ATOM     15  C   UNL     1       4.732   4.038  16.305  0.00  0.00    +0.000 C 
ENDBRANCH   7   8
BRANCH   1  16
ATOM     16  C   UNL     1       4.413   1.890  21.255  0.00  0.00    +0.000 C 
BRANCH  16  17
ATOM     17  C   UNL     1       5.440   0.784  21.073  0.00  0.00    +0.000 C 
BRANCH  17  19
ATOM     18  C   UNL     1       6.670  -0.687  22.435  0.00  0.00    +0.000 C 
ATOM     19  O   UNL     1       6.199   0.648  22.278  0.00  0.00    +0.000 OA
ENDBRANCH  17  19
ENDBRANCH  16  17
ENDBRANCH   1  16
TORSDOF 4
ENDMDL
