MODEL 1
REMARK VINA RESULT:      -6.6      0.000      0.000
REMARK  Name = 
REMARK  3 active torsions:
REMARK  status: ('A' for Active; 'I' for Inactive)
REMARK    1  A    between atoms: N_1  and  C_2
REMARK    2  A    between atoms: C_2  and  N_4
REMARK    3  A    between atoms: N_4  and  N_5
REMARK                            x       y       z     vdW  Elec       q    Type
REMARK                         _______ _______ _______ _____ _____    ______ ____
ROOT
ATOM      1  N   UNL     1       5.785   3.951  19.298  0.00  0.00    +0.000 NA
ATOM      2  C   UNL     1       4.589   4.122  18.807  0.00  0.00    +0.000 C 
ATOM      3  C   UNL     1       4.269   4.703  17.440  0.00  0.00    +0.000 C 
ATOM      4  C   UNL     1       3.280   5.841  17.577  0.00  0.00    +0.000 C 
ATOM      5  S   UNL     1       1.648   5.193  18.014  0.00  0.00    +0.000 S 
ATOM      6  C   UNL     1       2.105   4.107  19.357  0.00  0.00    +0.000 A 
ATOM      7  C   UNL     1       1.052   3.654  20.168  0.00  0.00    +0.000 A 
ATOM      8  C   UNL     1       1.294   2.811  21.253  0.00  0.00    +0.000 A 
ATOM      9  C   UNL     1       2.593   2.408  21.541  0.00  0.00    +0.000 A 
ATOM     10  C   UNL     1       3.649   2.846  20.740  0.00  0.00    +0.000 A 
ATOM     11  C   UNL     1       3.416   3.693  19.643  0.00  0.00    +0.000 A 
ENDROOT
BRANCH   1  12
ATOM     12  N   UNL     1       6.885   4.314  18.580  0.00  0.00    +0.000 N 
ATOM     13  H   UNL     1       7.257   3.742  17.835  0.00  0.00    +0.000 HD
BRANCH  12  14
ATOM     14  C   UNL     1       7.543   5.485  18.832  0.00  0.00    +0.000 C 
ATOM     15  S   UNL     1       7.477   6.773  17.788  0.00  0.00    +0.000 S 
BRANCH  14  16
ATOM     16  N   UNL     1       8.250   5.531  19.983  0.00  0.00    +0.000 N 
ATOM     17  H   UNL     1       9.190   5.171  20.042  0.00  0.00    +0.000 HD
ATOM     18  H   UNL     1       7.799   5.954  20.785  0.00  0.00    +0.000 HD
ENDBRANCH  14  16
ENDBRANCH  12  14
ENDBRANCH   1  12
TORSDOF 3
ENDMDL
MODEL 2
REMARK VINA RESULT:      -6.2      2.791      3.391
REMARK  Name = 
REMARK  3 active torsions:
REMARK  status: ('A' for Active; 'I' for Inactive)
REMARK    1  A    between atoms: N_1  and  C_2
REMARK    2  A    between atoms: C_2  and  N_4
REMARK    3  A    between atoms: N_4  and  N_5
REMARK                            x       y       z     vdW  Elec       q    Type
REMARK                         _______ _______ _______ _____ _____    ______ ____
ROOT
ATOM      1  N   UNL     1       5.896   4.106  16.273  0.00  0.00    +0.000 NA
ATOM      2  C   UNL     1       4.914   4.887  16.626  0.00  0.00    +0.000 C 
ATOM      3  C   UNL     1       4.857   6.390  16.404  0.00  0.00    +0.000 C 
ATOM      4  C   UNL     1       4.554   7.096  17.708  0.00  0.00    +0.000 C 
ATOM      5  S   UNL     1       2.835   6.801  18.188  0.00  0.00    +0.000 S 
ATOM      6  C   UNL     1       2.764   5.028  17.979  0.00  0.00    +0.000 A 
ATOM      7  C   UNL     1       1.661   4.383  18.560  0.00  0.00    +0.000 A 
ATOM      8  C   UNL     1       1.511   2.998  18.471  0.00  0.00    +0.000 A 
ATOM      9  C   UNL     1       2.461   2.240  17.795  0.00  0.00    +0.000 A 
ATOM     10  C   UNL     1       3.560   2.869  17.207  0.00  0.00    +0.000 A 
ATOM     11  C   UNL     1       3.720   4.263  17.290  0.00  0.00    +0.000 A 
ENDROOT
BRANCH   1  12
ATOM     12  N   UNL     1       7.001   4.617  15.659  0.00  0.00    +0.000 N 
ATOM     13  H   UNL     1       7.796   4.961  16.177  0.00  0.00    +0.000 HD
BRANCH  12  14
ATOM     14  C   UNL     1       7.089   4.682  14.297  0.00  0.00    +0.000 C 
ATOM     15  S   UNL     1       6.140   3.746  13.308  0.00  0.00    +0.000 S 
BRANCH  14  16
ATOM     16  N   UNL     1       7.996   5.554  13.804  0.00  0.00    +0.000 N 
ATOM     17  H   UNL     1       8.986   5.435  13.960  0.00  0.00    +0.000 HD
ATOM     18  H   UNL     1       7.641   6.330  13.259  0.00  0.00    +0.000 HD
ENDBRANCH  14  16
ENDBRANCH  12  14
ENDBRANCH   1  12
TORSDOF 3
ENDMDL
MODEL 3
REMARK VINA RESULT:      -6.1      2.442      3.033
REMARK  Name = 
REMARK  3 active torsions:
REMARK  status: ('A' for Active; 'I' for Inactive)
REMARK    1  A    between atoms: N_1  and  C_2
REMARK    2  A    between atoms: C_2  and  N_4
REMARK    3  A    between atoms: N_4  and  N_5
REMARK                            x       y       z     vdW  Elec       q    Type
REMARK                         _______ _______ _______ _____ _____    ______ ____
ROOT
ATOM      1  N   UNL     1       4.506   5.167  16.934  0.00  0.00    +0.000 NA
ATOM      2  C   UNL     1       3.877   4.341  17.722  0.00  0.00    +0.000 C 
ATOM      3  C   UNL     1       3.991   2.826  17.686  0.00  0.00    +0.000 C 
ATOM      4  C   UNL     1       2.615   2.203  17.596  0.00  0.00    +0.000 C 
ATOM      5  S   UNL     1       1.742   2.399  19.169  0.00  0.00    +0.000 S 
ATOM      6  C   UNL     1       2.028   4.138  19.458  0.00  0.00    +0.000 A 
ATOM      7  C   UNL     1       1.229   4.738  20.444  0.00  0.00    +0.000 A 
ATOM      8  C   UNL     1       1.357   6.095  20.744  0.00  0.00    +0.000 A 
ATOM      9  C   UNL     1       2.289   6.870  20.062  0.00  0.00    +0.000 A 
ATOM     10  C   UNL     1       3.094   6.286  19.083  0.00  0.00    +0.000 A 
ATOM     11  C   UNL     1       2.974   4.919  18.775  0.00  0.00    +0.000 A 
ENDROOT
BRANCH   1  12
ATOM     12  N   UNL     1       5.344   4.699  15.966  0.00  0.00    +0.000 N 
ATOM     13  H   UNL     1       5.005   4.220  15.144  0.00  0.00    +0.000 HD
BRANCH  12  14
ATOM     14  C   UNL     1       6.697   4.862  16.060  0.00  0.00    +0.000 C 
ATOM     15  S   UNL     1       7.505   4.698  17.500  0.00  0.00    +0.000 S 
BRANCH  14  16
ATOM     16  N   UNL     1       7.338   5.166  14.910  0.00  0.00    +0.000 N 
ATOM     17  H   UNL     1       7.499   4.474  14.194  0.00  0.00    +0.000 HD
ATOM     18  H   UNL     1       7.641   6.124  14.790  0.00  0.00    +0.000 HD
ENDBRANCH  14  16
ENDBRANCH  12  14
ENDBRANCH   1  12
TORSDOF 3
ENDMDL
MODEL 4
REMARK VINA RESULT:      -6.0      2.572      3.289
REMARK  Name = 
REMARK  3 active torsions:
REMARK  status: ('A' for Active; 'I' for Inactive)
REMARK    1  A    between atoms: N_1  and  C_2
REMARK    2  A    between atoms: C_2  and  N_4
REMARK    3  A    between atoms: N_4  and  N_5
REMARK                            x       y       z     vdW  Elec       q    Type
REMARK                         _______ _______ _______ _____ _____    ______ ____
ROOT
ATOM      1  N   UNL     1       4.631   4.344  17.209  0.00  0.00    +0.000 NA
ATOM      2  C   UNL     1       3.981   3.843  18.221  0.00  0.00    +0.000 C 
ATOM      3  C   UNL     1       4.038   2.394  18.678  0.00  0.00    +0.000 C 
ATOM      4  C   UNL     1       2.638   1.829  18.792  0.00  0.00    +0.000 C 
ATOM      5  S   UNL     1       1.791   2.557  20.215  0.00  0.00    +0.000 S 
ATOM      6  C   UNL     1       2.145   4.284  19.926  0.00  0.00    +0.000 A 
ATOM      7  C   UNL     1       1.380   5.201  20.665  0.00  0.00    +0.000 A 
ATOM      8  C   UNL     1       1.562   6.576  20.509  0.00  0.00    +0.000 A 
ATOM      9  C   UNL     1       2.515   7.052  19.615  0.00  0.00    +0.000 A 
ATOM     10  C   UNL     1       3.286   6.151  18.879  0.00  0.00    +0.000 A 
ATOM     11  C   UNL     1       3.112   4.765  19.029  0.00  0.00    +0.000 A 
ENDROOT
BRANCH   1  12
ATOM     12  N   UNL     1       5.440   3.556  16.447  0.00  0.00    +0.000 N 
ATOM     13  H   UNL     1       5.373   2.549  16.451  0.00  0.00    +0.000 HD
BRANCH  12  14
ATOM     14  C   UNL     1       6.389   4.098  15.624  0.00  0.00    +0.000 C 
ATOM     15  S   UNL     1       6.247   4.055  13.971  0.00  0.00    +0.000 S 
BRANCH  14  16
ATOM     16  N   UNL     1       7.448   4.668  16.238  0.00  0.00    +0.000 N 
ATOM     17  H   UNL     1       8.145   4.117  16.715  0.00  0.00    +0.000 HD
ATOM     18  H   UNL     1       7.520   5.677  16.190  0.00  0.00    +0.000 HD
ENDBRANCH  14  16
ENDBRANCH  12  14
ENDBRANCH   1  12
TORSDOF 3
ENDMDL
MODEL 5
REMARK VINA RESULT:      -6.0      3.365      5.408
REMARK  Name = 
REMARK  3 active torsions:
REMARK  status: ('A' for Active; 'I' for Inactive)
REMARK    1  A    between atoms: N_1  and  C_2
REMARK    2  A    between atoms: C_2  and  N_4
REMARK    3  A    between atoms: N_4  and  N_5
REMARK                            x       y       z     vdW  Elec       q    Type
REMARK                         _______ _______ _______ _____ _____    ______ ____
ROOT
ATOM      1  N   UNL     1       2.616   6.971  19.620  0.00  0.00    +0.000 NA
ATOM      2  C   UNL     1       2.651   5.799  19.049  0.00  0.00    +0.000 C 
ATOM      3  C   UNL     1       1.784   4.609  19.423  0.00  0.00    +0.000 C 
ATOM      4  C   UNL     1       2.650   3.393  19.676  0.00  0.00    +0.000 C 
ATOM      5  S   UNL     1       3.334   2.785  18.116  0.00  0.00    +0.000 S 
ATOM      6  C   UNL     1       3.949   4.320  17.437  0.00  0.00    +0.000 A 
ATOM      7  C   UNL     1       4.836   4.203  16.356  0.00  0.00    +0.000 A 
ATOM      8  C   UNL     1       5.389   5.335  15.756  0.00  0.00    +0.000 A 
ATOM      9  C   UNL     1       5.058   6.601  16.229  0.00  0.00    +0.000 A 
ATOM     10  C   UNL     1       4.173   6.732  17.300  0.00  0.00    +0.000 A 
ATOM     11  C   UNL     1       3.609   5.598  17.910  0.00  0.00    +0.000 A 
ENDROOT
BRANCH   1  12
ATOM     12  N   UNL     1       1.760   7.213  20.652  0.00  0.00    +0.000 N 
ATOM     13  H   UNL     1       1.358   6.470  21.206  0.00  0.00    +0.000 HD
BRANCH  12  14
ATOM     14  C   UNL     1       1.406   8.488  20.997  0.00  0.00    +0.000 C 
ATOM     15  S   UNL     1       0.757   9.548  19.897  0.00  0.00    +0.000 S 
BRANCH  14  16
ATOM     16  N   UNL     1       1.617   8.832  22.286  0.00  0.00    +0.000 N 
ATOM     17  H   UNL     1       1.025   8.494  23.029  0.00  0.00    +0.000 HD
ATOM     18  H   UNL     1       2.405   9.438  22.478  0.00  0.00    +0.000 HD
ENDBRANCH  14  16
ENDBRANCH  12  14
ENDBRANCH   1  12
TORSDOF 3
ENDMDL
MODEL 6
REMARK VINA RESULT:      -5.9      2.621      5.338
REMARK  Name = 
REMARK  3 active torsions:
REMARK  status: ('A' for Active; 'I' for Inactive)
REMARK    1  A    between atoms: N_1  and  C_2
REMARK    2  A    between atoms: C_2  and  N_4
REMARK    3  A    between atoms: N_4  and  N_5
REMARK                            x       y       z     vdW  Elec       q    Type
REMARK                         _______ _______ _______ _____ _____    ______ ____
ROOT
ATOM      1  N   UNL     1       4.048   2.814  18.618  0.00  0.00    +0.000 NA
ATOM      2  C   UNL     1       4.202   4.095  18.424  0.00  0.00    +0.000 C 
ATOM      3  C   UNL     1       3.843   5.188  19.416  0.00  0.00    +0.000 C 
ATOM      4  C   UNL     1       2.952   6.218  18.757  0.00  0.00    +0.000 C 
ATOM      5  S   UNL     1       3.907   7.194  17.570  0.00  0.00    +0.000 S 
ATOM      6  C   UNL     1       4.726   5.876  16.685  0.00  0.00    +0.000 A 
ATOM      7  C   UNL     1       5.325   6.232  15.466  0.00  0.00    +0.000 A 
ATOM      8  C   UNL     1       5.982   5.281  14.685  0.00  0.00    +0.000 A 
ATOM      9  C   UNL     1       6.050   3.960  15.113  0.00  0.00    +0.000 A 
ATOM     10  C   UNL     1       5.463   3.593  16.326  0.00  0.00    +0.000 A 
ATOM     11  C   UNL     1       4.802   4.544  17.122  0.00  0.00    +0.000 A 
ENDROOT
BRANCH   1  12
ATOM     12  N   UNL     1       3.517   2.350  19.784  0.00  0.00    +0.000 N 
ATOM     13  H   UNL     1       4.092   2.055  20.560  0.00  0.00    +0.000 HD
BRANCH  12  14
ATOM     14  C   UNL     1       2.165   2.267  19.964  0.00  0.00    +0.000 C 
ATOM     15  S   UNL     1       1.425   2.831  21.339  0.00  0.00    +0.000 S 
BRANCH  14  16
ATOM     16  N   UNL     1       1.467   1.698  18.957  0.00  0.00    +0.000 N 
ATOM     17  H   UNL     1       1.729   0.804  18.570  0.00  0.00    +0.000 HD
ATOM     18  H   UNL     1       0.660   2.202  18.612  0.00  0.00    +0.000 HD
ENDBRANCH  14  16
ENDBRANCH  12  14
ENDBRANCH   1  12
TORSDOF 3
ENDMDL
MODEL 7
REMARK VINA RESULT:      -5.9      2.322      2.446
REMARK  Name = 
REMARK  3 active torsions:
REMARK  status: ('A' for Active; 'I' for Inactive)
REMARK    1  A    between atoms: N_1  and  C_2
REMARK    2  A    between atoms: C_2  and  N_4
REMARK    3  A    between atoms: N_4  and  N_5
REMARK                            x       y       z     vdW  Elec       q    Type
REMARK                         _______ _______ _______ _____ _____    ______ ____
ROOT
ATOM      1  N   UNL     1       4.516   4.086  16.685  0.00  0.00    +0.000 NA
ATOM      2  C   UNL     1       3.718   4.818  17.411  0.00  0.00    +0.000 C 
ATOM      3  C   UNL     1       3.626   6.334  17.367  0.00  0.00    +0.000 C 
ATOM      4  C   UNL     1       3.775   6.905  18.761  0.00  0.00    +0.000 C 
ATOM      5  S   UNL     1       2.296   6.545  19.739  0.00  0.00    +0.000 S 
ATOM      6  C   UNL     1       2.123   4.801  19.392  0.00  0.00    +0.000 A 
ATOM      7  C   UNL     1       1.252   4.089  20.234  0.00  0.00    +0.000 A 
ATOM      8  C   UNL     1       1.051   2.719  20.063  0.00  0.00    +0.000 A 
ATOM      9  C   UNL     1       1.715   2.042  19.047  0.00  0.00    +0.000 A 
ATOM     10  C   UNL     1       2.579   2.738  18.199  0.00  0.00    +0.000 A 
ATOM     11  C   UNL     1       2.788   4.119  18.361  0.00  0.00    +0.000 A 
ENDROOT
BRANCH   1  12
ATOM     12  N   UNL     1       5.375   4.667  15.800  0.00  0.00    +0.000 N 
ATOM     13  H   UNL     1       5.077   4.987  14.890  0.00  0.00    +0.000 HD
BRANCH  12  14
ATOM     14  C   UNL     1       6.694   4.852  16.108  0.00  0.00    +0.000 C 
ATOM     15  S   UNL     1       7.268   4.681  17.656  0.00  0.00    +0.000 S 
BRANCH  14  16
ATOM     16  N   UNL     1       7.501   5.184  15.077  0.00  0.00    +0.000 N 
ATOM     17  H   UNL     1       8.130   5.971  15.128  0.00  0.00    +0.000 HD
ATOM     18  H   UNL     1       7.457   4.601  14.251  0.00  0.00    +0.000 HD
ENDBRANCH  14  16
ENDBRANCH  12  14
ENDBRANCH   1  12
TORSDOF 3
ENDMDL
MODEL 8
REMARK VINA RESULT:      -5.8      2.801      5.905
REMARK  Name = 
REMARK  3 active torsions:
REMARK  status: ('A' for Active; 'I' for Inactive)
REMARK    1  A    between atoms: N_1  and  C_2
REMARK    2  A    between atoms: C_2  and  N_4
REMARK    3  A    between atoms: N_4  and  N_5
REMARK                            x       y       z     vdW  Elec       q    Type
REMARK                         _______ _______ _______ _____ _____    ______ ____
ROOT
ATOM      1  N   UNL     1       3.131   4.249  17.611  0.00  0.00    +0.000 NA
ATOM      2  C   UNL     1       4.419   4.316  17.804  0.00  0.00    +0.000 C 
ATOM      3  C   UNL     1       5.113   4.257  19.154  0.00  0.00    +0.000 C 
ATOM      4  C   UNL     1       6.045   5.440  19.311  0.00  0.00    +0.000 C 
ATOM      5  S   UNL     1       7.481   5.244  18.229  0.00  0.00    +0.000 S 
ATOM      6  C   UNL     1       6.653   4.827  16.702  0.00  0.00    +0.000 A 
ATOM      7  C   UNL     1       7.433   4.906  15.537  0.00  0.00    +0.000 A 
ATOM      8  C   UNL     1       6.886   4.615  14.286  0.00  0.00    +0.000 A 
ATOM      9  C   UNL     1       5.552   4.239  14.184  0.00  0.00    +0.000 A 
ATOM     10  C   UNL     1       4.766   4.152  15.335  0.00  0.00    +0.000 A 
ATOM     11  C   UNL     1       5.307   4.440  16.599  0.00  0.00    +0.000 A 
ENDROOT
BRANCH   1  12
ATOM     12  N   UNL     1       2.278   4.126  18.667  0.00  0.00    +0.000 N 
ATOM     13  H   UNL     1       1.859   4.927  19.119  0.00  0.00    +0.000 HD
BRANCH  12  14
ATOM     14  C   UNL     1       1.938   2.900  19.167  0.00  0.00    +0.000 C 
ATOM     15  S   UNL     1       1.632   2.663  20.780  0.00  0.00    +0.000 S 
BRANCH  14  16
ATOM     16  N   UNL     1       1.868   1.894  18.268  0.00  0.00    +0.000 N 
ATOM     17  H   UNL     1       2.134   0.950  18.507  0.00  0.00    +0.000 HD
ATOM     18  H   UNL     1       1.526   2.124  17.343  0.00  0.00    +0.000 HD
ENDBRANCH  14  16
ENDBRANCH  12  14
ENDBRANCH   1  12
TORSDOF 3
ENDMDL
MODEL 9
REMARK VINA RESULT:      -5.8      2.809      4.065
REMARK  Name = 
REMARK  3 active torsions:
REMARK  status: ('A' for Active; 'I' for Inactive)
REMARK    1  A    between atoms: N_1  and  C_2
REMARK    2  A    between atoms: C_2  and  N_4
REMARK    3  A    between atoms: N_4  and  N_5
REMARK                            x       y       z     vdW  Elec       q    Type
REMARK                         _______ _______ _______ _____ _____    ______ ____
ROOT
ATOM      1  N   UNL     1       4.831   5.132  16.505  0.00  0.00    +0.000 NA
ATOM      2  C   UNL     1       4.422   5.042  17.740  0.00  0.00    +0.000 C 
ATOM      3  C   UNL     1       4.785   3.931  18.712  0.00  0.00    +0.000 C 
ATOM      4  C   UNL     1       3.530   3.335  19.313  0.00  0.00    +0.000 C 
ATOM      5  S   UNL     1       2.780   4.508  20.468  0.00  0.00    +0.000 S 
ATOM      6  C   UNL     1       2.795   5.980  19.456  0.00  0.00    +0.000 A 
ATOM      7  C   UNL     1       1.997   7.044  19.905  0.00  0.00    +0.000 A 
ATOM      8  C   UNL     1       1.922   8.238  19.186  0.00  0.00    +0.000 A 
ATOM      9  C   UNL     1       2.647   8.384  18.008  0.00  0.00    +0.000 A 
ATOM     10  C   UNL     1       3.448   7.335  17.552  0.00  0.00    +0.000 A 
ATOM     11  C   UNL     1       3.533   6.130  18.270  0.00  0.00    +0.000 A 
ENDROOT
BRANCH   1  12
ATOM     12  N   UNL     1       5.647   4.178  15.975  0.00  0.00    +0.000 N 
ATOM     13  H   UNL     1       5.680   3.235  16.334  0.00  0.00    +0.000 HD
BRANCH  12  14
ATOM     14  C   UNL     1       6.464   4.453  14.914  0.00  0.00    +0.000 C 
ATOM     15  S   UNL     1       6.173   3.842  13.399  0.00  0.00    +0.000 S 
BRANCH  14  16
ATOM     16  N   UNL     1       7.523   5.251  15.174  0.00  0.00    +0.000 N 
ATOM     17  H   UNL     1       8.089   5.129  15.999  0.00  0.00    +0.000 HD
ATOM     18  H   UNL     1       7.733   5.974  14.497  0.00  0.00    +0.000 HD
ENDBRANCH  14  16
ENDBRANCH  12  14
ENDBRANCH   1  12
TORSDOF 3
ENDMDL
