MODEL 1
REMARK VINA RESULT:      -6.5      0.000      0.000
REMARK  Name = 
REMARK  8 active torsions:
REMARK  status: ('A' for Active; 'I' for Inactive)
REMARK    1  A    between atoms: C_4  and  C_5
REMARK    2  A    between atoms: C_5  and  C_6
REMARK    3  A    between atoms: C_6  and  C_7
REMARK    4  A    between atoms: C_7  and  C_8
REMARK    5  A    between atoms: C_8  and  C_9
REMARK    6  A    between atoms: C_9  and  N_10
REMARK    7  A    between atoms: N_10  and  C_11
REMARK    8  A    between atoms: C_11  and  C_12
REMARK                            x       y       z     vdW  Elec       q    Type
REMARK                         _______ _______ _______ _____ _____    ______ ____
ROOT
ATOM      1  C   UNL     1       1.869   3.389  18.490  0.00  0.00    +0.000 C 
ENDROOT
BRANCH   1   2
ATOM      2  C   UNL     1       2.115   3.480  19.998  0.00  0.00    +0.000 C 
BRANCH   2   3
ATOM      3  C   UNL     1       1.986   4.928  20.480  0.00  0.00    +0.000 C 
BRANCH   3   4
ATOM      4  C   UNL     1       2.960   5.853  19.749  0.00  0.00    +0.000 C 
BRANCH   4   8
ATOM      5  C   UNL     1       1.177   9.666  18.804  0.00  0.00    +0.000 A 
ATOM      6  C   UNL     1       1.865   8.953  17.823  0.00  0.00    +0.000 A 
ATOM      7  C   UNL     1       2.439   7.718  18.130  0.00  0.00    +0.000 A 
ATOM      8  C   UNL     1       2.324   7.180  19.418  0.00  0.00    +0.000 A 
ATOM      9  C   UNL     1       1.635   7.908  20.398  0.00  0.00    +0.000 A 
ATOM     10  C   UNL     1       1.061   9.143  20.090  0.00  0.00    +0.000 A 
ENDBRANCH   4   8
ENDBRANCH   3   4
ENDBRANCH   2   3
ENDBRANCH   1   2
BRANCH   1  11
ATOM     11  C   UNL     1       2.852   2.437  17.808  0.00  0.00    +0.000 C 
BRANCH  11  12
ATOM     12  N   UNL     1       4.201   2.986  17.930  0.00  0.00    +0.000 NA
ATOM     13  H   UNL     1       4.882   2.229  17.979  0.00  0.00    +0.000 HD
BRANCH  12  14
ATOM     14  C   UNL     1       4.538   3.847  16.798  0.00  0.00    +0.000 C 
BRANCH  14  15
ATOM     15  C   UNL     1       5.557   4.890  17.199  0.00  0.00    +0.000 A 
ATOM     16  C   UNL     1       5.422   6.219  16.772  0.00  0.00    +0.000 A 
ATOM     17  C   UNL     1       6.368   7.180  17.138  0.00  0.00    +0.000 A 
ATOM     18  C   UNL     1       7.456   6.822  17.931  0.00  0.00    +0.000 A 
ATOM     19  C   UNL     1       7.598   5.507  18.367  0.00  0.00    +0.000 A 
ATOM     20  C   UNL     1       6.653   4.546  18.005  0.00  0.00    +0.000 A 
ENDBRANCH  14  15
ENDBRANCH  12  14
ENDBRANCH  11  12
ENDBRANCH   1  11
TORSDOF 8
ENDMDL
MODEL 2
REMARK VINA RESULT:      -6.4      1.306      2.397
REMARK  Name = 
REMARK  8 active torsions:
REMARK  status: ('A' for Active; 'I' for Inactive)
REMARK    1  A    between atoms: C_4  and  C_5
REMARK    2  A    between atoms: C_5  and  C_6
REMARK    3  A    between atoms: C_6  and  C_7
REMARK    4  A    between atoms: C_7  and  C_8
REMARK    5  A    between atoms: C_8  and  C_9
REMARK    6  A    between atoms: C_9  and  N_10
REMARK    7  A    between atoms: N_10  and  C_11
REMARK    8  A    between atoms: C_11  and  C_12
REMARK                            x       y       z     vdW  Elec       q    Type
REMARK                         _______ _______ _______ _____ _____    ______ ____
ROOT
ATOM      1  C   UNL     1       1.583   2.733  20.426  0.00  0.00    +0.000 C 
ENDROOT
BRANCH   1   2
ATOM      2  C   UNL     1       1.279   4.164  20.878  0.00  0.00    +0.000 C 
BRANCH   2   3
ATOM      3  C   UNL     1       1.445   5.145  19.714  0.00  0.00    +0.000 C 
BRANCH   3   4
ATOM      4  C   UNL     1       2.498   6.211  20.022  0.00  0.00    +0.000 C 
BRANCH   4   8
ATOM      5  C   UNL     1       1.235  10.091  18.623  0.00  0.00    +0.000 A 
ATOM      6  C   UNL     1       0.867   9.652  19.894  0.00  0.00    +0.000 A 
ATOM      7  C   UNL     1       1.279   8.398  20.346  0.00  0.00    +0.000 A 
ATOM      8  C   UNL     1       2.069   7.573  19.535  0.00  0.00    +0.000 A 
ATOM      9  C   UNL     1       2.428   8.021  18.256  0.00  0.00    +0.000 A 
ATOM     10  C   UNL     1       2.014   9.276  17.805  0.00  0.00    +0.000 A 
ENDBRANCH   4   8
ENDBRANCH   3   4
ENDBRANCH   2   3
ENDBRANCH   1   2
BRANCH   1  11
ATOM     11  C   UNL     1       0.928   2.409  19.082  0.00  0.00    +0.000 C 
BRANCH  11  12
ATOM     12  N   UNL     1       1.947   1.886  18.176  0.00  0.00    +0.000 NA
ATOM     13  H   UNL     1       1.965   2.434  17.317  0.00  0.00    +0.000 HD
BRANCH  12  14
ATOM     14  C   UNL     1       3.277   1.920  18.781  0.00  0.00    +0.000 C 
BRANCH  14  15
ATOM     15  C   UNL     1       4.021   3.173  18.379  0.00  0.00    +0.000 A 
ATOM     16  C   UNL     1       5.005   3.717  19.217  0.00  0.00    +0.000 A 
ATOM     17  C   UNL     1       5.687   4.879  18.847  0.00  0.00    +0.000 A 
ATOM     18  C   UNL     1       5.393   5.507  17.639  0.00  0.00    +0.000 A 
ATOM     19  C   UNL     1       4.422   4.973  16.794  0.00  0.00    +0.000 A 
ATOM     20  C   UNL     1       3.741   3.812  17.161  0.00  0.00    +0.000 A 
ENDBRANCH  14  15
ENDBRANCH  12  14
ENDBRANCH  11  12
ENDBRANCH   1  11
TORSDOF 8
ENDMDL
MODEL 3
REMARK VINA RESULT:      -6.3      1.280      4.942
REMARK  Name = 
REMARK  8 active torsions:
REMARK  status: ('A' for Active; 'I' for Inactive)
REMARK    1  A    between atoms: C_4  and  C_5
REMARK    2  A    between atoms: C_5  and  C_6
REMARK    3  A    between atoms: C_6  and  C_7
REMARK    4  A    between atoms: C_7  and  C_8
REMARK    5  A    between atoms: C_8  and  C_9
REMARK    6  A    between atoms: C_9  and  N_10
REMARK    7  A    between atoms: N_10  and  C_11
REMARK    8  A    between atoms: C_11  and  C_12
REMARK                            x       y       z     vdW  Elec       q    Type
REMARK                         _______ _______ _______ _____ _____    ______ ____
ROOT
ATOM      1  C   UNL     1       2.078   3.044  19.637  0.00  0.00    +0.000 C 
ENDROOT
BRANCH   1   2
ATOM      2  C   UNL     1       1.637   2.714  18.209  0.00  0.00    +0.000 C 
BRANCH   2   3
ATOM      3  C   UNL     1       2.710   3.136  17.202  0.00  0.00    +0.000 C 
BRANCH   3   4
ATOM      4  C   UNL     1       4.115   3.023  17.796  0.00  0.00    +0.000 C 
BRANCH   4   8
ATOM      5  C   UNL     1       6.427   6.592  17.070  0.00  0.00    +0.000 A 
ATOM      6  C   UNL     1       6.634   5.849  18.230  0.00  0.00    +0.000 A 
ATOM      7  C   UNL     1       5.888   4.692  18.462  0.00  0.00    +0.000 A 
ATOM      8  C   UNL     1       4.931   4.265  17.533  0.00  0.00    +0.000 A 
ATOM      9  C   UNL     1       4.726   5.023  16.372  0.00  0.00    +0.000 A 
ATOM     10  C   UNL     1       5.474   6.180  16.142  0.00  0.00    +0.000 A 
ENDBRANCH   4   8
ENDBRANCH   3   4
ENDBRANCH   2   3
ENDBRANCH   1   2
BRANCH   1  11
ATOM     11  C   UNL     1       1.044   3.901  20.369  0.00  0.00    +0.000 C 
BRANCH  11  12
ATOM     12  N   UNL     1       1.730   5.018  21.015  0.00  0.00    +0.000 NA
ATOM     13  H   UNL     1       2.158   4.708  21.886  0.00  0.00    +0.000 HD
BRANCH  12  14
ATOM     14  C   UNL     1       2.771   5.581  20.156  0.00  0.00    +0.000 C 
BRANCH  14  15
ATOM     15  C   UNL     1       2.339   6.914  19.589  0.00  0.00    +0.000 A 
ATOM     16  C   UNL     1       1.641   7.834  20.385  0.00  0.00    +0.000 A 
ATOM     17  C   UNL     1       1.236   9.063  19.857  0.00  0.00    +0.000 A 
ATOM     18  C   UNL     1       1.526   9.385  18.533  0.00  0.00    +0.000 A 
ATOM     19  C   UNL     1       2.225   8.483  17.734  0.00  0.00    +0.000 A 
ATOM     20  C   UNL     1       2.632   7.255  18.260  0.00  0.00    +0.000 A 
ENDBRANCH  14  15
ENDBRANCH  12  14
ENDBRANCH  11  12
ENDBRANCH   1  11
TORSDOF 8
ENDMDL
MODEL 4
REMARK VINA RESULT:      -6.3      1.486      3.955
REMARK  Name = 
REMARK  8 active torsions:
REMARK  status: ('A' for Active; 'I' for Inactive)
REMARK    1  A    between atoms: C_4  and  C_5
REMARK    2  A    between atoms: C_5  and  C_6
REMARK    3  A    between atoms: C_6  and  C_7
REMARK    4  A    between atoms: C_7  and  C_8
REMARK    5  A    between atoms: C_8  and  C_9
REMARK    6  A    between atoms: C_9  and  N_10
REMARK    7  A    between atoms: N_10  and  C_11
REMARK    8  A    between atoms: C_11  and  C_12
REMARK                            x       y       z     vdW  Elec       q    Type
REMARK                         _______ _______ _______ _____ _____    ______ ____
ROOT
ATOM      1  C   UNL     1       4.578   4.732  16.869  0.00  0.00    +0.000 C 
ENDROOT
BRANCH   1   2
ATOM      2  C   UNL     1       5.015   5.062  18.298  0.00  0.00    +0.000 C 
BRANCH   2   3
ATOM      3  C   UNL     1       3.912   5.825  19.037  0.00  0.00    +0.000 C 
BRANCH   3   4
ATOM      4  C   UNL     1       3.093   6.696  18.082  0.00  0.00    +0.000 C 
BRANCH   4   8
ATOM      5  C   UNL     1       0.687   9.572  20.215  0.00  0.00    +0.000 A 
ATOM      6  C   UNL     1       1.146   8.427  20.863  0.00  0.00    +0.000 A 
ATOM      7  C   UNL     1       1.928   7.499  20.173  0.00  0.00    +0.000 A 
ATOM      8  C   UNL     1       2.263   7.710  18.829  0.00  0.00    +0.000 A 
ATOM      9  C   UNL     1       1.790   8.862  18.185  0.00  0.00    +0.000 A 
ATOM     10  C   UNL     1       1.008   9.789  18.877  0.00  0.00    +0.000 A 
ENDBRANCH   4   8
ENDBRANCH   3   4
ENDBRANCH   2   3
ENDBRANCH   1   2
BRANCH   1  11
ATOM     11  C   UNL     1       3.725   3.463  16.812  0.00  0.00    +0.000 C 
BRANCH  11  12
ATOM     12  N   UNL     1       4.426   2.392  17.516  0.00  0.00    +0.000 NA
ATOM     13  H   UNL     1       5.093   2.788  18.178  0.00  0.00    +0.000 HD
BRANCH  12  14
ATOM     14  C   UNL     1       3.499   1.529  18.246  0.00  0.00    +0.000 C 
BRANCH  14  15
ATOM     15  C   UNL     1       2.700   2.326  19.253  0.00  0.00    +0.000 A 
ATOM     16  C   UNL     1       1.428   2.818  18.924  0.00  0.00    +0.000 A 
ATOM     17  C   UNL     1       0.694   3.560  19.852  0.00  0.00    +0.000 A 
ATOM     18  C   UNL     1       1.221   3.815  21.116  0.00  0.00    +0.000 A 
ATOM     19  C   UNL     1       2.480   3.326  21.458  0.00  0.00    +0.000 A 
ATOM     20  C   UNL     1       3.214   2.583  20.532  0.00  0.00    +0.000 A 
ENDBRANCH  14  15
ENDBRANCH  12  14
ENDBRANCH  11  12
ENDBRANCH   1  11
TORSDOF 8
ENDMDL
MODEL 5
REMARK VINA RESULT:      -6.3      1.607      2.713
REMARK  Name = 
REMARK  8 active torsions:
REMARK  status: ('A' for Active; 'I' for Inactive)
REMARK    1  A    between atoms: C_4  and  C_5
REMARK    2  A    between atoms: C_5  and  C_6
REMARK    3  A    between atoms: C_6  and  C_7
REMARK    4  A    between atoms: C_7  and  C_8
REMARK    5  A    between atoms: C_8  and  C_9
REMARK    6  A    between atoms: C_9  and  N_10
REMARK    7  A    between atoms: N_10  and  C_11
REMARK    8  A    between atoms: C_11  and  C_12
REMARK                            x       y       z     vdW  Elec       q    Type
REMARK                         _______ _______ _______ _____ _____    ______ ____
ROOT
ATOM      1  C   UNL     1       3.328   1.883  18.793  0.00  0.00    +0.000 C 
ENDROOT
BRANCH   1   2
ATOM      2  C   UNL     1       1.861   1.800  19.224  0.00  0.00    +0.000 C 
BRANCH   2   3
ATOM      3  C   UNL     1       1.629   2.602  20.507  0.00  0.00    +0.000 C 
BRANCH   3   4
ATOM      4  C   UNL     1       0.669   3.769  20.274  0.00  0.00    +0.000 C 
BRANCH   4   8
ATOM      5  C   UNL     1       2.667   7.216  18.621  0.00  0.00    +0.000 A 
ATOM      6  C   UNL     1       2.387   7.158  19.985  0.00  0.00    +0.000 A 
ATOM      7  C   UNL     1       1.743   6.041  20.519  0.00  0.00    +0.000 A 
ATOM      8  C   UNL     1       1.379   4.968  19.695  0.00  0.00    +0.000 A 
ATOM      9  C   UNL     1       1.660   5.039  18.324  0.00  0.00    +0.000 A 
ATOM     10  C   UNL     1       2.304   6.158  17.791  0.00  0.00    +0.000 A 
ENDBRANCH   4   8
ENDBRANCH   3   4
ENDBRANCH   2   3
ENDBRANCH   1   2
BRANCH   1  11
ATOM     11  C   UNL     1       4.209   2.493  19.883  0.00  0.00    +0.000 C 
BRANCH  11  12
ATOM     12  N   UNL     1       5.420   3.029  19.266  0.00  0.00    +0.000 NA
ATOM     13  H   UNL     1       5.705   2.438  18.487  0.00  0.00    +0.000 HD
BRANCH  12  14
ATOM     14  C   UNL     1       5.216   4.390  18.772  0.00  0.00    +0.000 C 
BRANCH  14  15
ATOM     15  C   UNL     1       5.702   4.523  17.346  0.00  0.00    +0.000 A 
ATOM     16  C   UNL     1       4.872   4.162  16.275  0.00  0.00    +0.000 A 
ATOM     17  C   UNL     1       5.325   4.279  14.958  0.00  0.00    +0.000 A 
ATOM     18  C   UNL     1       6.606   4.760  14.700  0.00  0.00    +0.000 A 
ATOM     19  C   UNL     1       7.438   5.129  15.755  0.00  0.00    +0.000 A 
ATOM     20  C   UNL     1       6.987   5.014  17.071  0.00  0.00    +0.000 A 
ENDBRANCH  14  15
ENDBRANCH  12  14
ENDBRANCH  11  12
ENDBRANCH   1  11
TORSDOF 8
ENDMDL
MODEL 6
REMARK VINA RESULT:      -6.2      0.665      1.288
REMARK  Name = 
REMARK  8 active torsions:
REMARK  status: ('A' for Active; 'I' for Inactive)
REMARK    1  A    between atoms: C_4  and  C_5
REMARK    2  A    between atoms: C_5  and  C_6
REMARK    3  A    between atoms: C_6  and  C_7
REMARK    4  A    between atoms: C_7  and  C_8
REMARK    5  A    between atoms: C_8  and  C_9
REMARK    6  A    between atoms: C_9  and  N_10
REMARK    7  A    between atoms: N_10  and  C_11
REMARK    8  A    between atoms: C_11  and  C_12
REMARK                            x       y       z     vdW  Elec       q    Type
REMARK                         _______ _______ _______ _____ _____    ______ ____
ROOT
ATOM      1  C   UNL     1       1.808   3.670  17.999  0.00  0.00    +0.000 C 
ENDROOT
BRANCH   1   2
ATOM      2  C   UNL     1       1.566   3.833  19.501  0.00  0.00    +0.000 C 
BRANCH   2   3
ATOM      3  C   UNL     1       2.655   4.705  20.132  0.00  0.00    +0.000 C 
BRANCH   3   4
ATOM      4  C   UNL     1       2.070   5.976  20.750  0.00  0.00    +0.000 C 
BRANCH   4   8
ATOM      5  C   UNL     1       2.108   9.263  17.957  0.00  0.00    +0.000 A 
ATOM      6  C   UNL     1       2.841   8.109  17.687  0.00  0.00    +0.000 A 
ATOM      7  C   UNL     1       2.825   7.044  18.591  0.00  0.00    +0.000 A 
ATOM      8  C   UNL     1       2.071   7.122  19.769  0.00  0.00    +0.000 A 
ATOM      9  C   UNL     1       1.342   8.290  20.033  0.00  0.00    +0.000 A 
ATOM     10  C   UNL     1       1.360   9.354  19.128  0.00  0.00    +0.000 A 
ENDBRANCH   4   8
ENDBRANCH   3   4
ENDBRANCH   2   3
ENDBRANCH   1   2
BRANCH   1  11
ATOM     11  C   UNL     1       2.629   2.418  17.686  0.00  0.00    +0.000 C 
BRANCH  11  12
ATOM     12  N   UNL     1       4.044   2.778  17.659  0.00  0.00    +0.000 NA
ATOM     13  H   UNL     1       4.604   1.969  17.390  0.00  0.00    +0.000 HD
BRANCH  12  14
ATOM     14  C   UNL     1       4.307   3.863  16.716  0.00  0.00    +0.000 C 
BRANCH  14  15
ATOM     15  C   UNL     1       5.363   4.802  17.255  0.00  0.00    +0.000 A 
ATOM     16  C   UNL     1       5.919   4.594  18.525  0.00  0.00    +0.000 A 
ATOM     17  C   UNL     1       6.890   5.466  19.025  0.00  0.00    +0.000 A 
ATOM     18  C   UNL     1       7.313   6.551  18.261  0.00  0.00    +0.000 A 
ATOM     19  C   UNL     1       6.773   6.765  16.995  0.00  0.00    +0.000 A 
ATOM     20  C   UNL     1       5.805   5.894  16.493  0.00  0.00    +0.000 A 
ENDBRANCH  14  15
ENDBRANCH  12  14
ENDBRANCH  11  12
ENDBRANCH   1  11
TORSDOF 8
ENDMDL
MODEL 7
REMARK VINA RESULT:      -6.2      0.972      1.826
REMARK  Name = 
REMARK  8 active torsions:
REMARK  status: ('A' for Active; 'I' for Inactive)
REMARK    1  A    between atoms: C_4  and  C_5
REMARK    2  A    between atoms: C_5  and  C_6
REMARK    3  A    between atoms: C_6  and  C_7
REMARK    4  A    between atoms: C_7  and  C_8
REMARK    5  A    between atoms: C_8  and  C_9
REMARK    6  A    between atoms: C_9  and  N_10
REMARK    7  A    between atoms: N_10  and  C_11
REMARK    8  A    between atoms: C_11  and  C_12
REMARK                            x       y       z     vdW  Elec       q    Type
REMARK                         _______ _______ _______ _____ _____    ______ ____
ROOT
ATOM      1  C   UNL     1       0.924   2.625  19.525  0.00  0.00    +0.000 C 
ENDROOT
BRANCH   1   2
ATOM      2  C   UNL     1       1.869   3.393  20.451  0.00  0.00    +0.000 C 
BRANCH   2   3
ATOM      3  C   UNL     1       1.445   4.859  20.562  0.00  0.00    +0.000 C 
BRANCH   3   4
ATOM      4  C   UNL     1       2.640   5.803  20.421  0.00  0.00    +0.000 C 
BRANCH   4   8
ATOM      5  C   UNL     1       1.508   9.452  18.416  0.00  0.00    +0.000 A 
ATOM      6  C   UNL     1       1.158   9.249  19.750  0.00  0.00    +0.000 A 
ATOM      7  C   UNL     1       1.528   8.070  20.398  0.00  0.00    +0.000 A 
ATOM      8  C   UNL     1       2.257   7.084  19.721  0.00  0.00    +0.000 A 
ATOM      9  C   UNL     1       2.598   7.295  18.378  0.00  0.00    +0.000 A 
ATOM     10  C   UNL     1       2.228   8.476  17.731  0.00  0.00    +0.000 A 
ENDBRANCH   4   8
ENDBRANCH   3   4
ENDBRANCH   2   3
ENDBRANCH   1   2
BRANCH   1  11
ATOM     11  C   UNL     1       1.615   2.201  18.228  0.00  0.00    +0.000 C 
BRANCH  11  12
ATOM     12  N   UNL     1       2.371   3.336  17.704  0.00  0.00    +0.000 NA
ATOM     13  H   UNL     1       2.367   4.099  18.380  0.00  0.00    +0.000 HD
BRANCH  12  14
ATOM     14  C   UNL     1       3.757   2.974  17.414  0.00  0.00    +0.000 C 
BRANCH  14  15
ATOM     15  C   UNL     1       4.666   4.176  17.542  0.00  0.00    +0.000 A 
ATOM     16  C   UNL     1       5.381   4.405  18.726  0.00  0.00    +0.000 A 
ATOM     17  C   UNL     1       6.216   5.519  18.846  0.00  0.00    +0.000 A 
ATOM     18  C   UNL     1       6.344   6.412  17.785  0.00  0.00    +0.000 A 
ATOM     19  C   UNL     1       5.645   6.193  16.600  0.00  0.00    +0.000 A 
ATOM     20  C   UNL     1       4.812   5.079  16.478  0.00  0.00    +0.000 A 
ENDBRANCH  14  15
ENDBRANCH  12  14
ENDBRANCH  11  12
ENDBRANCH   1  11
TORSDOF 8
ENDMDL
MODEL 8
REMARK VINA RESULT:      -6.2      1.183      4.163
REMARK  Name = 
REMARK  8 active torsions:
REMARK  status: ('A' for Active; 'I' for Inactive)
REMARK    1  A    between atoms: C_4  and  C_5
REMARK    2  A    between atoms: C_5  and  C_6
REMARK    3  A    between atoms: C_6  and  C_7
REMARK    4  A    between atoms: C_7  and  C_8
REMARK    5  A    between atoms: C_8  and  C_9
REMARK    6  A    between atoms: C_9  and  N_10
REMARK    7  A    between atoms: N_10  and  C_11
REMARK    8  A    between atoms: C_11  and  C_12
REMARK                            x       y       z     vdW  Elec       q    Type
REMARK                         _______ _______ _______ _____ _____    ______ ____
ROOT
ATOM      1  C   UNL     1       6.126   5.483  16.850  0.00  0.00    +0.000 C 
ENDROOT
BRANCH   1   2
ATOM      2  C   UNL     1       4.998   6.443  16.464  0.00  0.00    +0.000 C 
BRANCH   2   3
ATOM      3  C   UNL     1       4.304   6.990  17.714  0.00  0.00    +0.000 C 
BRANCH   3   4
ATOM      4  C   UNL     1       2.962   7.641  17.373  0.00  0.00    +0.000 C 
BRANCH   4   8
ATOM      5  C   UNL     1       0.786   8.782  20.919  0.00  0.00    +0.000 A 
ATOM      6  C   UNL     1       1.526   7.601  20.902  0.00  0.00    +0.000 A 
ATOM      7  C   UNL     1       2.232   7.235  19.755  0.00  0.00    +0.000 A 
ATOM      8  C   UNL     1       2.211   8.049  18.616  0.00  0.00    +0.000 A 
ATOM      9  C   UNL     1       1.459   9.232  18.641  0.00  0.00    +0.000 A 
ATOM     10  C   UNL     1       0.752   9.596  19.789  0.00  0.00    +0.000 A 
ENDBRANCH   4   8
ENDBRANCH   3   4
ENDBRANCH   2   3
ENDBRANCH   1   2
BRANCH   1  11
ATOM     11  C   UNL     1       6.127   5.176  18.348  0.00  0.00    +0.000 C 
BRANCH  11  12
ATOM     12  N   UNL     1       5.797   3.766  18.540  0.00  0.00    +0.000 NA
ATOM     13  H   UNL     1       5.629   3.578  19.527  0.00  0.00    +0.000 HD
BRANCH  12  14
ATOM     14  C   UNL     1       4.608   3.381  17.781  0.00  0.00    +0.000 C 
BRANCH  14  15
ATOM     15  C   UNL     1       3.363   3.506  18.630  0.00  0.00    +0.000 A 
ATOM     16  C   UNL     1       3.445   3.441  20.028  0.00  0.00    +0.000 A 
ATOM     17  C   UNL     1       2.293   3.550  20.811  0.00  0.00    +0.000 A 
ATOM     18  C   UNL     1       1.051   3.724  20.205  0.00  0.00    +0.000 A 
ATOM     19  C   UNL     1       0.956   3.797  18.817  0.00  0.00    +0.000 A 
ATOM     20  C   UNL     1       2.106   3.691  18.033  0.00  0.00    +0.000 A 
ENDBRANCH  14  15
ENDBRANCH  12  14
ENDBRANCH  11  12
ENDBRANCH   1  11
TORSDOF 8
ENDMDL
MODEL 9
REMARK VINA RESULT:      -6.2      3.546      7.141
REMARK  Name = 
REMARK  8 active torsions:
REMARK  status: ('A' for Active; 'I' for Inactive)
REMARK    1  A    between atoms: C_4  and  C_5
REMARK    2  A    between atoms: C_5  and  C_6
REMARK    3  A    between atoms: C_6  and  C_7
REMARK    4  A    between atoms: C_7  and  C_8
REMARK    5  A    between atoms: C_8  and  C_9
REMARK    6  A    between atoms: C_9  and  N_10
REMARK    7  A    between atoms: N_10  and  C_11
REMARK    8  A    between atoms: C_11  and  C_12
REMARK                            x       y       z     vdW  Elec       q    Type
REMARK                         _______ _______ _______ _____ _____    ______ ____
ROOT
ATOM      1  C   UNL     1       7.400   6.441  17.147  0.00  0.00    +0.000 C 
ENDROOT
BRANCH   1   2
ATOM      2  C   UNL     1       7.101   7.889  17.541  0.00  0.00    +0.000 C 
BRANCH   2   3
ATOM      3  C   UNL     1       8.360   8.574  18.080  0.00  0.00    +0.000 C 
BRANCH   3   4
ATOM      4  C   UNL     1       8.235  10.098  18.034  0.00  0.00    +0.000 C 
BRANCH   4   8
ATOM      5  C   UNL     1      11.665  12.061  19.765  0.00  0.00    +0.000 A 
ATOM      6  C   UNL     1      10.626  11.617  20.582  0.00  0.00    +0.000 A 
ATOM      7  C   UNL     1       9.519  10.979  20.021  0.00  0.00    +0.000 A 
ATOM      8  C   UNL     1       9.442  10.773  18.638  0.00  0.00    +0.000 A 
ATOM      9  C   UNL     1      10.488  11.228  17.824  0.00  0.00    +0.000 A 
ATOM     10  C   UNL     1      11.596  11.866  18.387  0.00  0.00    +0.000 A 
ENDBRANCH   4   8
ENDBRANCH   3   4
ENDBRANCH   2   3
ENDBRANCH   1   2
BRANCH   1  11
ATOM     11  C   UNL     1       7.029   5.459  18.259  0.00  0.00    +0.000 C 
BRANCH  11  12
ATOM     12  N   UNL     1       5.575   5.411  18.379  0.00  0.00    +0.000 NA
ATOM     13  H   UNL     1       5.199   6.356  18.445  0.00  0.00    +0.000 HD
BRANCH  12  14
ATOM     14  C   UNL     1       4.960   4.741  17.235  0.00  0.00    +0.000 C 
BRANCH  14  15
ATOM     15  C   UNL     1       3.718   3.987  17.653  0.00  0.00    +0.000 A 
ATOM     16  C   UNL     1       3.784   2.619  17.957  0.00  0.00    +0.000 A 
ATOM     17  C   UNL     1       2.635   1.922  18.338  0.00  0.00    +0.000 A 
ATOM     18  C   UNL     1       1.411   2.584  18.419  0.00  0.00    +0.000 A 
ATOM     19  C   UNL     1       1.334   3.944  18.127  0.00  0.00    +0.000 A 
ATOM     20  C   UNL     1       2.481   4.642  17.748  0.00  0.00    +0.000 A 
ENDBRANCH  14  15
ENDBRANCH  12  14
ENDBRANCH  11  12
ENDBRANCH   1  11
TORSDOF 8
ENDMDL
