MODEL 1
REMARK VINA RESULT:      -7.6      0.000      0.000
REMARK  Name = 
REMARK  7 active torsions:
REMARK  status: ('A' for Active; 'I' for Inactive)
REMARK    1  A    between atoms: C_1  and  O_2
REMARK    2  A    between atoms: O_2  and  C_3
REMARK    3  A    between atoms: C_3  and  C_4
REMARK    4  A    between atoms: C_7  and  C_8
REMARK    5  A    between atoms: C_8  and  N_9
REMARK    6  A    between atoms: C_12  and  C_13
REMARK    7  A    between atoms: C_17  and  C_18
REMARK                            x       y       z     vdW  Elec       q    Type
REMARK                         _______ _______ _______ _____ _____    ______ ____
ROOT
ATOM      1  N   UNL     1       6.309   5.819  16.181  0.00  0.00    +0.000 NA
ATOM      2  C   UNL     1       6.864   6.546  17.338  0.00  0.00    +0.000 C 
ATOM      3  C   UNL     1       6.342   5.852  18.580  0.00  0.00    +0.000 C 
ATOM      4  C   UNL     1       4.966   5.392  18.133  0.00  0.00    +0.000 C 
ATOM      5  C   UNL     1       5.210   4.965  16.686  0.00  0.00    +0.000 C 
ENDROOT
BRANCH   4   6
ATOM      6  C   UNL     1       4.371   4.327  19.013  0.00  0.00    +0.000 A 
ATOM      7  N   UNL     1       5.166   3.297  19.351  0.00  0.00    +0.000 NA
ATOM      8  C   UNL     1       4.622   2.328  20.106  0.00  0.00    +0.000 A 
ATOM      9  C   UNL     1       3.320   2.347  20.543  0.00  0.00    +0.000 A 
ATOM     10  C   UNL     1       2.560   3.436  20.155  0.00  0.00    +0.000 A 
ATOM     11  N   UNL     1       3.082   4.434  19.387  0.00  0.00    +0.000 NA
BRANCH  10  12
ATOM     12  C   UNL     1       1.105   3.530  20.590  0.00  0.00    +0.000 C 
ATOM     13  F   UNL     1       0.241   2.948  19.703  0.00  0.00    +0.000 F 
ATOM     14  F   UNL     1       0.864   2.917  21.783  0.00  0.00    +0.000 F 
ATOM     15  F   UNL     1       0.671   4.815  20.728  0.00  0.00    +0.000 F 
ENDBRANCH  10  12
ENDBRANCH   4   6
BRANCH   1  16
ATOM     16  C   UNL     1       7.324   5.030  15.436  0.00  0.00    +0.000 C 
BRANCH  16  20
ATOM     17  C   UNL     1       6.054   3.758  12.354  0.00  0.00    +0.000 A 
ATOM     18  N   UNL     1       7.133   4.400  11.880  0.00  0.00    +0.000 NA
ATOM     19  O   UNL     1       7.676   5.001  13.020  0.00  0.00    +0.000 OA
ATOM     20  C   UNL     1       6.867   4.654  14.063  0.00  0.00    +0.000 A 
ATOM     21  N   UNL     1       5.831   3.927  13.699  0.00  0.00    +0.000 NA
BRANCH  17  22
ATOM     22  C   UNL     1       5.266   2.794  11.532  0.00  0.00    +0.000 C 
BRANCH  22  24
ATOM     23  C   UNL     1       3.350   3.171  10.215  0.00  0.00    +0.000 C 
ATOM     24  O   UNL     1       3.861   3.072  11.538  0.00  0.00    +0.000 OA
ENDBRANCH  22  24
ENDBRANCH  17  22
ENDBRANCH  16  20
ENDBRANCH   1  16
TORSDOF 6
ENDMDL
MODEL 2
REMARK VINA RESULT:      -7.4      1.395      1.919
REMARK  Name = 
REMARK  7 active torsions:
REMARK  status: ('A' for Active; 'I' for Inactive)
REMARK    1  A    between atoms: C_1  and  O_2
REMARK    2  A    between atoms: O_2  and  C_3
REMARK    3  A    between atoms: C_3  and  C_4
REMARK    4  A    between atoms: C_7  and  C_8
REMARK    5  A    between atoms: C_8  and  N_9
REMARK    6  A    between atoms: C_12  and  C_13
REMARK    7  A    between atoms: C_17  and  C_18
REMARK                            x       y       z     vdW  Elec       q    Type
REMARK                         _______ _______ _______ _____ _____    ______ ____
ROOT
ATOM      1  N   UNL     1       6.462   5.917  15.981  0.00  0.00    +0.000 NA
ATOM      2  C   UNL     1       7.192   6.509  17.117  0.00  0.00    +0.000 C 
ATOM      3  C   UNL     1       6.329   6.299  18.346  0.00  0.00    +0.000 C 
ATOM      4  C   UNL     1       4.928   6.400  17.772  0.00  0.00    +0.000 C 
ATOM      5  C   UNL     1       5.066   5.694  16.423  0.00  0.00    +0.000 C 
ENDROOT
BRANCH   4   6
ATOM      6  C   UNL     1       3.865   5.835  18.673  0.00  0.00    +0.000 A 
ATOM      7  N   UNL     1       2.947   6.692  19.151  0.00  0.00    +0.000 NA
ATOM      8  C   UNL     1       2.020   6.193  19.986  0.00  0.00    +0.000 A 
ATOM      9  C   UNL     1       1.967   4.872  20.357  0.00  0.00    +0.000 A 
ATOM     10  C   UNL     1       2.944   4.048  19.829  0.00  0.00    +0.000 A 
ATOM     11  N   UNL     1       3.900   4.524  18.982  0.00  0.00    +0.000 NA
BRANCH  10  12
ATOM     12  C   UNL     1       2.961   2.571  20.198  0.00  0.00    +0.000 C 
ATOM     13  F   UNL     1       3.603   1.794  19.273  0.00  0.00    +0.000 F 
ATOM     14  F   UNL     1       3.592   2.322  21.379  0.00  0.00    +0.000 F 
ATOM     15  F   UNL     1       1.712   2.036  20.313  0.00  0.00    +0.000 F 
ENDBRANCH  10  12
ENDBRANCH   4   6
BRANCH   1  16
ATOM     16  C   UNL     1       7.083   4.669  15.465  0.00  0.00    +0.000 C 
BRANCH  16  20
ATOM     17  C   UNL     1       5.896   3.525  12.301  0.00  0.00    +0.000 A 
ATOM     18  N   UNL     1       6.975   4.201  11.881  0.00  0.00    +0.000 NA
ATOM     19  O   UNL     1       7.486   4.756  13.058  0.00  0.00    +0.000 OA
ATOM     20  C   UNL     1       6.660   4.351  14.067  0.00  0.00    +0.000 A 
ATOM     21  N   UNL     1       5.642   3.629  13.647  0.00  0.00    +0.000 NA
BRANCH  17  22
ATOM     22  C   UNL     1       5.137   2.590  11.419  0.00  0.00    +0.000 C 
BRANCH  22  24
ATOM     23  C   UNL     1       3.507   3.789  10.214  0.00  0.00    +0.000 C 
ATOM     24  O   UNL     1       3.748   2.922  11.315  0.00  0.00    +0.000 OA
ENDBRANCH  22  24
ENDBRANCH  17  22
ENDBRANCH  16  20
ENDBRANCH   1  16
TORSDOF 6
ENDMDL
MODEL 3
REMARK VINA RESULT:      -7.4      1.921      2.244
REMARK  Name = 
REMARK  7 active torsions:
REMARK  status: ('A' for Active; 'I' for Inactive)
REMARK    1  A    between atoms: C_1  and  O_2
REMARK    2  A    between atoms: O_2  and  C_3
REMARK    3  A    between atoms: C_3  and  C_4
REMARK    4  A    between atoms: C_7  and  C_8
REMARK    5  A    between atoms: C_8  and  N_9
REMARK    6  A    between atoms: C_12  and  C_13
REMARK    7  A    between atoms: C_17  and  C_18
REMARK                            x       y       z     vdW  Elec       q    Type
REMARK                         _______ _______ _______ _____ _____    ______ ____
ROOT
ATOM      1  N   UNL     1       6.249   5.784  16.849  0.00  0.00    +0.000 NA
ATOM      2  C   UNL     1       6.808   6.169  18.158  0.00  0.00    +0.000 C 
ATOM      3  C   UNL     1       5.763   5.819  19.198  0.00  0.00    +0.000 C 
ATOM      4  C   UNL     1       4.469   6.065  18.445  0.00  0.00    +0.000 C 
ATOM      5  C   UNL     1       4.797   5.560  17.040  0.00  0.00    +0.000 C 
ENDROOT
BRANCH   4   6
ATOM      6  C   UNL     1       3.268   5.420  19.081  0.00  0.00    +0.000 A 
ATOM      7  N   UNL     1       2.676   6.087  20.087  0.00  0.00    +0.000 NA
ATOM      8  C   UNL     1       1.626   5.493  20.680  0.00  0.00    +0.000 A 
ATOM      9  C   UNL     1       1.140   4.264  20.306  0.00  0.00    +0.000 A 
ATOM     10  C   UNL     1       1.800   3.635  19.266  0.00  0.00    +0.000 A 
ATOM     11  N   UNL     1       2.869   4.210  18.646  0.00  0.00    +0.000 NA
BRANCH  10  12
ATOM     12  C   UNL     1       1.328   2.266  18.796  0.00  0.00    +0.000 C 
ATOM     13  F   UNL     1       1.896   1.880  17.613  0.00  0.00    +0.000 F 
ATOM     14  F   UNL     1       1.619   1.269  19.678  0.00  0.00    +0.000 F 
ATOM     15  F   UNL     1      -0.018   2.209  18.586  0.00  0.00    +0.000 F 
ENDBRANCH  10  12
ENDBRANCH   4   6
BRANCH   1  16
ATOM     16  C   UNL     1       6.915   4.600  16.247  0.00  0.00    +0.000 C 
BRANCH  16  20
ATOM     17  C   UNL     1       6.949   4.295  12.692  0.00  0.00    +0.000 A 
ATOM     18  N   UNL     1       7.804   5.321  12.817  0.00  0.00    +0.000 NA
ATOM     19  O   UNL     1       7.810   5.569  14.193  0.00  0.00    +0.000 OA
ATOM     20  C   UNL     1       6.960   4.661  14.754  0.00  0.00    +0.000 A 
ATOM     21  N   UNL     1       6.371   3.884  13.869  0.00  0.00    +0.000 NA
BRANCH  17  22
ATOM     22  C   UNL     1       6.776   3.541  11.416  0.00  0.00    +0.000 C 
BRANCH  22  24
ATOM     23  C   UNL     1       6.527   1.214  11.140  0.00  0.00    +0.000 C 
ATOM     24  O   UNL     1       7.437   2.269  11.424  0.00  0.00    +0.000 OA
ENDBRANCH  22  24
ENDBRANCH  17  22
ENDBRANCH  16  20
ENDBRANCH   1  16
TORSDOF 6
ENDMDL
MODEL 4
REMARK VINA RESULT:      -7.3      4.413      7.780
REMARK  Name = 
REMARK  7 active torsions:
REMARK  status: ('A' for Active; 'I' for Inactive)
REMARK    1  A    between atoms: C_1  and  O_2
REMARK    2  A    between atoms: O_2  and  C_3
REMARK    3  A    between atoms: C_3  and  C_4
REMARK    4  A    between atoms: C_7  and  C_8
REMARK    5  A    between atoms: C_8  and  N_9
REMARK    6  A    between atoms: C_12  and  C_13
REMARK    7  A    between atoms: C_17  and  C_18
REMARK                            x       y       z     vdW  Elec       q    Type
REMARK                         _______ _______ _______ _____ _____    ______ ____
ROOT
ATOM      1  N   UNL     1       5.441   5.240  18.061  0.00  0.00    +0.000 NA
ATOM      2  C   UNL     1       6.683   6.030  18.160  0.00  0.00    +0.000 C 
ATOM      3  C   UNL     1       7.276   6.087  16.766  0.00  0.00    +0.000 C 
ATOM      4  C   UNL     1       6.879   4.738  16.196  0.00  0.00    +0.000 C 
ATOM      5  C   UNL     1       5.471   4.538  16.757  0.00  0.00    +0.000 C 
ENDROOT
BRANCH   4   6
ATOM      6  C   UNL     1       6.976   4.665  14.697  0.00  0.00    +0.000 A 
ATOM      7  N   UNL     1       7.973   5.351  14.113  0.00  0.00    +0.000 NA
ATOM      8  C   UNL     1       8.037   5.315  12.771  0.00  0.00    +0.000 A 
ATOM      9  C   UNL     1       7.150   4.618  11.989  0.00  0.00    +0.000 A 
ATOM     10  C   UNL     1       6.147   3.937  12.657  0.00  0.00    +0.000 A 
ATOM     11  N   UNL     1       6.054   3.956  14.016  0.00  0.00    +0.000 NA
BRANCH  10  12
ATOM     12  C   UNL     1       5.119   3.146  11.861  0.00  0.00    +0.000 C 
ATOM     13  F   UNL     1       3.916   3.034  12.503  0.00  0.00    +0.000 F 
ATOM     14  F   UNL     1       4.832   3.705  10.653  0.00  0.00    +0.000 F 
ATOM     15  F   UNL     1       5.512   1.866  11.605  0.00  0.00    +0.000 F 
ENDBRANCH  10  12
ENDBRANCH   4   6
BRANCH   1  16
ATOM     16  C   UNL     1       4.209   6.054  18.220  0.00  0.00    +0.000 C 
BRANCH  16  20
ATOM     17  C   UNL     1       2.310   4.557  20.844  0.00  0.00    +0.000 A 
ATOM     18  N   UNL     1       1.562   5.653  20.652  0.00  0.00    +0.000 NA
ATOM     19  O   UNL     1       2.268   6.357  19.671  0.00  0.00    +0.000 OA
ATOM     20  C   UNL     1       3.367   5.605  19.373  0.00  0.00    +0.000 A 
ATOM     21  N   UNL     1       3.463   4.511  20.098  0.00  0.00    +0.000 NA
BRANCH  17  22
ATOM     22  C   UNL     1       1.845   3.397  21.660  0.00  0.00    +0.000 C 
BRANCH  22  24
ATOM     23  C   UNL     1       0.840   2.792  19.617  0.00  0.00    +0.000 C 
ATOM     24  O   UNL     1       1.335   2.321  20.863  0.00  0.00    +0.000 OA
ENDBRANCH  22  24
ENDBRANCH  17  22
ENDBRANCH  16  20
ENDBRANCH   1  16
TORSDOF 6
ENDMDL
MODEL 5
REMARK VINA RESULT:      -7.2      3.298      5.357
REMARK  Name = 
REMARK  7 active torsions:
REMARK  status: ('A' for Active; 'I' for Inactive)
REMARK    1  A    between atoms: C_1  and  O_2
REMARK    2  A    between atoms: O_2  and  C_3
REMARK    3  A    between atoms: C_3  and  C_4
REMARK    4  A    between atoms: C_7  and  C_8
REMARK    5  A    between atoms: C_8  and  N_9
REMARK    6  A    between atoms: C_12  and  C_13
REMARK    7  A    between atoms: C_17  and  C_18
REMARK                            x       y       z     vdW  Elec       q    Type
REMARK                         _______ _______ _______ _____ _____    ______ ____
ROOT
ATOM      1  N   UNL     1       5.751   4.808  15.982  0.00  0.00    +0.000 NA
ATOM      2  C   UNL     1       5.169   6.115  15.623  0.00  0.00    +0.000 C 
ATOM      3  C   UNL     1       4.203   6.481  16.733  0.00  0.00    +0.000 C 
ATOM      4  C   UNL     1       3.672   5.124  17.154  0.00  0.00    +0.000 C 
ATOM      5  C   UNL     1       4.911   4.234  17.058  0.00  0.00    +0.000 C 
ENDROOT
BRANCH   4   6
ATOM      6  C   UNL     1       3.003   5.129  18.500  0.00  0.00    +0.000 A 
ATOM      7  N   UNL     1       2.692   6.327  19.026  0.00  0.00    +0.000 NA
ATOM      8  C   UNL     1       2.128   6.332  20.245  0.00  0.00    +0.000 A 
ATOM      9  C   UNL     1       1.855   5.191  20.959  0.00  0.00    +0.000 A 
ATOM     10  C   UNL     1       2.204   3.995  20.359  0.00  0.00    +0.000 A 
ATOM     11  N   UNL     1       2.780   3.956  19.124  0.00  0.00    +0.000 NA
BRANCH  10  12
ATOM     12  C   UNL     1       1.943   2.684  21.088  0.00  0.00    +0.000 C 
ATOM     13  F   UNL     1       0.860   2.742  21.922  0.00  0.00    +0.000 F 
ATOM     14  F   UNL     1       1.694   1.644  20.244  0.00  0.00    +0.000 F 
ATOM     15  F   UNL     1       2.985   2.295  21.876  0.00  0.00    +0.000 F 
ENDBRANCH  10  12
ENDBRANCH   4   6
BRANCH   1  16
ATOM     16  C   UNL     1       7.180   4.888  16.381  0.00  0.00    +0.000 C 
BRANCH  16  20
ATOM     17  C   UNL     1       8.023   7.929  18.046  0.00  0.00    +0.000 A 
ATOM     18  N   UNL     1       8.263   7.074  19.050  0.00  0.00    +0.000 NA
ATOM     19  O   UNL     1       7.894   5.836  18.515  0.00  0.00    +0.000 OA
ATOM     20  C   UNL     1       7.472   6.077  17.239  0.00  0.00    +0.000 A 
ATOM     21  N   UNL     1       7.490   7.354  16.918  0.00  0.00    +0.000 NA
BRANCH  17  22
ATOM     22  C   UNL     1       8.463   9.355  18.079  0.00  0.00    +0.000 C 
BRANCH  22  24
ATOM     23  C   UNL     1       9.803  10.960  19.164  0.00  0.00    +0.000 C 
ATOM     24  O   UNL     1       9.160   9.698  19.283  0.00  0.00    +0.000 OA
ENDBRANCH  22  24
ENDBRANCH  17  22
ENDBRANCH  16  20
ENDBRANCH   1  16
TORSDOF 6
ENDMDL
MODEL 6
REMARK VINA RESULT:      -7.2      4.461      7.821
REMARK  Name = 
REMARK  7 active torsions:
REMARK  status: ('A' for Active; 'I' for Inactive)
REMARK    1  A    between atoms: C_1  and  O_2
REMARK    2  A    between atoms: O_2  and  C_3
REMARK    3  A    between atoms: C_3  and  C_4
REMARK    4  A    between atoms: C_7  and  C_8
REMARK    5  A    between atoms: C_8  and  N_9
REMARK    6  A    between atoms: C_12  and  C_13
REMARK    7  A    between atoms: C_17  and  C_18
REMARK                            x       y       z     vdW  Elec       q    Type
REMARK                         _______ _______ _______ _____ _____    ______ ____
ROOT
ATOM      1  N   UNL     1       4.879   5.235  17.629  0.00  0.00    +0.000 NA
ATOM      2  C   UNL     1       5.972   6.214  17.773  0.00  0.00    +0.000 C 
ATOM      3  C   UNL     1       6.702   6.250  16.445  0.00  0.00    +0.000 C 
ATOM      4  C   UNL     1       6.574   4.814  15.971  0.00  0.00    +0.000 C 
ATOM      5  C   UNL     1       5.157   4.442  16.409  0.00  0.00    +0.000 C 
ENDROOT
BRANCH   4   6
ATOM      6  C   UNL     1       6.847   4.636  14.504  0.00  0.00    +0.000 A 
ATOM      7  N   UNL     1       7.749   5.460  13.943  0.00  0.00    +0.000 NA
ATOM      8  C   UNL     1       7.965   5.325  12.624  0.00  0.00    +0.000 A 
ATOM      9  C   UNL     1       7.323   4.396  11.842  0.00  0.00    +0.000 A 
ATOM     10  C   UNL     1       6.407   3.583  12.485  0.00  0.00    +0.000 A 
ATOM     11  N   UNL     1       6.163   3.697  13.821  0.00  0.00    +0.000 NA
BRANCH  10  12
ATOM     12  C   UNL     1       5.646   2.533  11.687  0.00  0.00    +0.000 C 
ATOM     13  F   UNL     1       4.315   2.819  11.556  0.00  0.00    +0.000 F 
ATOM     14  F   UNL     1       6.112   2.387  10.415  0.00  0.00    +0.000 F 
ATOM     15  F   UNL     1       5.695   1.294  12.255  0.00  0.00    +0.000 F 
ENDBRANCH  10  12
ENDBRANCH   4   6
BRANCH   1  16
ATOM     16  C   UNL     1       3.530   5.856  17.588  0.00  0.00    +0.000 C 
BRANCH  16  20
ATOM     17  C   UNL     1       1.244   3.752  19.340  0.00  0.00    +0.000 A 
ATOM     18  N   UNL     1       1.073   3.255  18.106  0.00  0.00    +0.000 NA
ATOM     19  O   UNL     1       1.889   4.069  17.315  0.00  0.00    +0.000 OA
ATOM     20  C   UNL     1       2.470   4.970  18.160  0.00  0.00    +0.000 A 
ATOM     21  N   UNL     1       2.072   4.846  19.408  0.00  0.00    +0.000 NA
BRANCH  17  22
ATOM     22  C   UNL     1       0.728   3.068  20.562  0.00  0.00    +0.000 C 
BRANCH  22  24
ATOM     23  C   UNL     1       2.746   2.384  21.567  0.00  0.00    +0.000 C 
ATOM     24  O   UNL     1       1.596   3.211  21.692  0.00  0.00    +0.000 OA
ENDBRANCH  22  24
ENDBRANCH  17  22
ENDBRANCH  16  20
ENDBRANCH   1  16
TORSDOF 6
ENDMDL
MODEL 7
REMARK VINA RESULT:      -7.1      3.781      5.252
REMARK  Name = 
REMARK  7 active torsions:
REMARK  status: ('A' for Active; 'I' for Inactive)
REMARK    1  A    between atoms: C_1  and  O_2
REMARK    2  A    between atoms: O_2  and  C_3
REMARK    3  A    between atoms: C_3  and  C_4
REMARK    4  A    between atoms: C_7  and  C_8
REMARK    5  A    between atoms: C_8  and  N_9
REMARK    6  A    between atoms: C_12  and  C_13
REMARK    7  A    between atoms: C_17  and  C_18
REMARK                            x       y       z     vdW  Elec       q    Type
REMARK                         _______ _______ _______ _____ _____    ______ ____
ROOT
ATOM      1  N   UNL     1       4.038   4.263  19.382  0.00  0.00    +0.000 NA
ATOM      2  C   UNL     1       2.839   3.901  20.161  0.00  0.00    +0.000 C 
ATOM      3  C   UNL     1       1.882   5.073  20.058  0.00  0.00    +0.000 C 
ATOM      4  C   UNL     1       2.832   6.255  19.996  0.00  0.00    +0.000 C 
ATOM      5  C   UNL     1       3.974   5.721  19.132  0.00  0.00    +0.000 C 
ENDROOT
BRANCH   4   6
ATOM      6  C   UNL     1       2.192   7.516  19.486  0.00  0.00    +0.000 A 
ATOM      7  N   UNL     1       2.446   7.860  18.211  0.00  0.00    +0.000 NA
ATOM      8  C   UNL     1       1.904   9.007  17.768  0.00  0.00    +0.000 A 
ATOM      9  C   UNL     1       1.114   9.821  18.542  0.00  0.00    +0.000 A 
ATOM     10  C   UNL     1       0.897   9.406  19.844  0.00  0.00    +0.000 A 
ATOM     11  N   UNL     1       1.435   8.250  20.324  0.00  0.00    +0.000 NA
BRANCH  10  12
ATOM     12  C   UNL     1       0.039  10.257  20.769  0.00  0.00    +0.000 C 
ATOM     13  F   UNL     1       0.736  11.272  21.365  0.00  0.00    +0.000 F 
ATOM     14  F   UNL     1      -1.002  10.859  20.129  0.00  0.00    +0.000 F 
ATOM     15  F   UNL     1      -0.507   9.543  21.796  0.00  0.00    +0.000 F 
ENDBRANCH  10  12
ENDBRANCH   4   6
BRANCH   1  16
ATOM     16  C   UNL     1       4.177   3.492  18.120  0.00  0.00    +0.000 C 
BRANCH  16  20
ATOM     17  C   UNL     1       6.455   4.616  15.614  0.00  0.00    +0.000 A 
ATOM     18  N   UNL     1       7.290   4.618  16.664  0.00  0.00    +0.000 NA
ATOM     19  O   UNL     1       6.466   4.250  17.732  0.00  0.00    +0.000 OA
ATOM     20  C   UNL     1       5.219   4.061  17.210  0.00  0.00    +0.000 A 
ATOM     21  N   UNL     1       5.149   4.316  15.920  0.00  0.00    +0.000 NA
BRANCH  17  22
ATOM     22  C   UNL     1       6.931   4.746  14.206  0.00  0.00    +0.000 C 
BRANCH  22  24
ATOM     23  C   UNL     1       6.929   3.852  12.026  0.00  0.00    +0.000 C 
ATOM     24  O   UNL     1       6.380   3.751  13.334  0.00  0.00    +0.000 OA
ENDBRANCH  22  24
ENDBRANCH  17  22
ENDBRANCH  16  20
ENDBRANCH   1  16
TORSDOF 6
ENDMDL
MODEL 8
REMARK VINA RESULT:      -7.1      0.967      1.285
REMARK  Name = 
REMARK  7 active torsions:
REMARK  status: ('A' for Active; 'I' for Inactive)
REMARK    1  A    between atoms: C_1  and  O_2
REMARK    2  A    between atoms: O_2  and  C_3
REMARK    3  A    between atoms: C_3  and  C_4
REMARK    4  A    between atoms: C_7  and  C_8
REMARK    5  A    between atoms: C_8  and  N_9
REMARK    6  A    between atoms: C_12  and  C_13
REMARK    7  A    between atoms: C_17  and  C_18
REMARK                            x       y       z     vdW  Elec       q    Type
REMARK                         _______ _______ _______ _____ _____    ______ ____
ROOT
ATOM      1  N   UNL     1       6.389   5.924  16.068  0.00  0.00    +0.000 NA
ATOM      2  C   UNL     1       6.804   6.357  17.416  0.00  0.00    +0.000 C 
ATOM      3  C   UNL     1       6.022   5.514  18.404  0.00  0.00    +0.000 C 
ATOM      4  C   UNL     1       4.706   5.308  17.676  0.00  0.00    +0.000 C 
ATOM      5  C   UNL     1       5.150   5.128  16.225  0.00  0.00    +0.000 C 
ENDROOT
BRANCH   4   6
ATOM      6  C   UNL     1       3.881   4.179  18.228  0.00  0.00    +0.000 A 
ATOM      7  N   UNL     1       3.917   3.011  17.562  0.00  0.00    +0.000 NA
ATOM      8  C   UNL     1       3.151   2.014  18.035  0.00  0.00    +0.000 A 
ATOM      9  C   UNL     1       2.355   2.131  19.148  0.00  0.00    +0.000 A 
ATOM     10  C   UNL     1       2.366   3.361  19.781  0.00  0.00    +0.000 A 
ATOM     11  N   UNL     1       3.130   4.393  19.325  0.00  0.00    +0.000 NA
BRANCH  10  12
ATOM     12  C   UNL     1       1.506   3.576  21.019  0.00  0.00    +0.000 C 
ATOM     13  F   UNL     1       2.220   4.014  22.099  0.00  0.00    +0.000 F 
ATOM     14  F   UNL     1       0.525   4.503  20.833  0.00  0.00    +0.000 F 
ATOM     15  F   UNL     1       0.880   2.439  21.437  0.00  0.00    +0.000 F 
ENDBRANCH  10  12
ENDBRANCH   4   6
BRANCH   1  16
ATOM     16  C   UNL     1       7.441   5.171  15.340  0.00  0.00    +0.000 C 
BRANCH  16  20
ATOM     17  C   UNL     1       6.190   3.570  12.406  0.00  0.00    +0.000 A 
ATOM     18  N   UNL     1       7.169   4.293  11.842  0.00  0.00    +0.000 NA
ATOM     19  O   UNL     1       7.690   5.023  12.915  0.00  0.00    +0.000 OA
ATOM     20  C   UNL     1       6.970   4.658  14.016  0.00  0.00    +0.000 A 
ATOM     21  N   UNL     1       6.008   3.801  13.748  0.00  0.00    +0.000 NA
BRANCH  17  22
ATOM     22  C   UNL     1       5.480   2.475  11.684  0.00  0.00    +0.000 C 
BRANCH  22  24
ATOM     23  C   UNL     1       3.295   3.016  10.988  0.00  0.00    +0.000 C 
ATOM     24  O   UNL     1       4.663   2.951  10.608  0.00  0.00    +0.000 OA
ENDBRANCH  22  24
ENDBRANCH  17  22
ENDBRANCH  16  20
ENDBRANCH   1  16
TORSDOF 6
ENDMDL
MODEL 9
REMARK VINA RESULT:      -7.0      6.285      7.926
REMARK  Name = 
REMARK  7 active torsions:
REMARK  status: ('A' for Active; 'I' for Inactive)
REMARK    1  A    between atoms: C_1  and  O_2
REMARK    2  A    between atoms: O_2  and  C_3
REMARK    3  A    between atoms: C_3  and  C_4
REMARK    4  A    between atoms: C_7  and  C_8
REMARK    5  A    between atoms: C_8  and  N_9
REMARK    6  A    between atoms: C_12  and  C_13
REMARK    7  A    between atoms: C_17  and  C_18
REMARK                            x       y       z     vdW  Elec       q    Type
REMARK                         _______ _______ _______ _____ _____    ______ ____
ROOT
ATOM      1  N   UNL     1       1.312   9.396  19.732  0.00  0.00    +0.000 NA
ATOM      2  C   UNL     1       1.572   9.708  18.314  0.00  0.00    +0.000 C 
ATOM      3  C   UNL     1       1.925   8.398  17.638  0.00  0.00    +0.000 C 
ATOM      4  C   UNL     1       2.646   7.652  18.745  0.00  0.00    +0.000 C 
ATOM      5  C   UNL     1       1.843   8.037  19.987  0.00  0.00    +0.000 C 
ENDROOT
BRANCH   4   6
ATOM      6  C   UNL     1       2.758   6.172  18.501  0.00  0.00    +0.000 A 
ATOM      7  N   UNL     1       3.609   5.772  17.540  0.00  0.00    +0.000 NA
ATOM      8  C   UNL     1       3.681   4.452  17.298  0.00  0.00    +0.000 A 
ATOM      9  C   UNL     1       2.944   3.515  17.979  0.00  0.00    +0.000 A 
ATOM     10  C   UNL     1       2.087   3.999  18.951  0.00  0.00    +0.000 A 
ATOM     11  N   UNL     1       1.989   5.331  19.219  0.00  0.00    +0.000 NA
BRANCH  10  12
ATOM     12  C   UNL     1       1.229   3.025  19.746  0.00  0.00    +0.000 C 
ATOM     13  F   UNL     1       1.936   1.961  20.235  0.00  0.00    +0.000 F 
ATOM     14  F   UNL     1       0.640   3.597  20.834  0.00  0.00    +0.000 F 
ATOM     15  F   UNL     1       0.219   2.479  19.010  0.00  0.00    +0.000 F 
ENDBRANCH  10  12
ENDBRANCH   4   6
BRANCH   1  16
ATOM     16  C   UNL     1      -0.121   9.508  20.108  0.00  0.00    +0.000 C 
BRANCH  16  20
ATOM     17  C   UNL     1      -1.986  11.176  17.564  0.00  0.00    +0.000 A 
ATOM     18  N   UNL     1      -1.324  12.233  18.057  0.00  0.00    +0.000 NA
ATOM     19  O   UNL     1      -0.600  11.691  19.124  0.00  0.00    +0.000 OA
ATOM     20  C   UNL     1      -0.901  10.360  19.158  0.00  0.00    +0.000 A 
ATOM     21  N   UNL     1      -1.782  10.002  18.248  0.00  0.00    +0.000 NA
BRANCH  17  22
ATOM     22  C   UNL     1      -2.736  11.225  16.275  0.00  0.00    +0.000 C 
BRANCH  22  24
ATOM     23  C   UNL     1      -4.939  11.744  16.929  0.00  0.00    +0.000 C 
ATOM     24  O   UNL     1      -4.081  10.746  16.392  0.00  0.00    +0.000 OA
ENDBRANCH  22  24
ENDBRANCH  17  22
ENDBRANCH  16  20
ENDBRANCH   1  16
TORSDOF 6
ENDMDL
