MODEL 1
REMARK VINA RESULT:      -7.8      0.000      0.000
REMARK  Name = 
REMARK  14 active torsions:
REMARK  status: ('A' for Active; 'I' for Inactive)
REMARK    1  A    between atoms: C_1  and  C_2
REMARK    2  A    between atoms: C_2  and  N_3
REMARK    3  A    between atoms: C_2  and  C_4
REMARK    4  A    between atoms: C_2  and  C_10
REMARK    5  A    between atoms: C_4  and  O_5
REMARK    6  A    between atoms: O_5  and  P_6
REMARK    7  A    between atoms: P_6  and  O_8
REMARK    8  A    between atoms: P_6  and  O_9
REMARK    9  A    between atoms: N_12  and  C_13
REMARK   10  A    between atoms: C_16  and  C_17
REMARK   11  A    between atoms: C_17  and  C_19
REMARK   12  A    between atoms: C_19  and  C_20
REMARK   13  A    between atoms: C_20  and  C_21
REMARK   14  A    between atoms: C_24  and  C_25
REMARK                            x       y       z     vdW  Elec       q    Type
REMARK                         _______ _______ _______ _____ _____    ______ ____
ROOT
ATOM      1  C   UNL     1       1.909   8.233  18.990  0.00  0.00    +0.000 A 
ATOM      2  C   UNL     1       2.559   7.883  17.809  0.00  0.00    +0.000 A 
ATOM      3  C   UNL     1       3.335   6.730  17.736  0.00  0.00    +0.000 A 
ATOM      4  C   UNL     1       3.470   5.891  18.846  0.00  0.00    +0.000 A 
ATOM      5  C   UNL     1       2.848   6.246  20.046  0.00  0.00    +0.000 A 
ATOM      6  C   UNL     1       2.082   7.421  20.120  0.00  0.00    +0.000 A 
ENDROOT
BRANCH   1   9
ATOM      7  C   UNL     1       1.354  10.636  18.598  0.00  0.00    +0.000 C 
ATOM      8  O   UNL     1       2.395  10.975  18.038  0.00  0.00    +0.000 OA
ATOM      9  N   UNL     1       1.073   9.364  19.086  0.00  0.00    +0.000 N 
ATOM     10  H   UNL     1       0.133   9.198  19.417  0.00  0.00    +0.000 HD
BRANCH   7  12
ATOM     11  C   UNL     1       0.747  13.056  18.321  0.00  0.00    +0.000 C 
ATOM     12  C   UNL     1       0.264  11.701  18.860  0.00  0.00    +0.000 C 
BRANCH  12  13
ATOM     13  N   UNL     1      -1.010  11.373  18.181  0.00  0.00    +0.000 NA
ATOM     14  H   UNL     1      -1.819  11.677  18.711  0.00  0.00    +0.000 HD
ATOM     15  H   UNL     1      -1.059  10.387  17.938  0.00  0.00    +0.000 HD
ENDBRANCH  12  13
BRANCH  12  16
ATOM     16  C   UNL     1       0.128  11.737  20.397  0.00  0.00    +0.000 C 
BRANCH  16  17
ATOM     17  O   UNL     1      -0.814  10.784  20.870  0.00  0.00    +0.000 OA
BRANCH  17  18
ATOM     18  P   UNL     1      -0.386  10.104  22.402  0.00  0.00    +0.000 P 
ATOM     19  O   UNL     1      -0.566   8.678  21.890  0.00  0.00    +0.000 OA
BRANCH  18  20
ATOM     20  O   UNL     1       1.183  10.457  22.107  0.00  0.00    +0.000 OA
ATOM     21  H   UNL     1       1.385  11.275  22.595  0.00  0.00    +0.000 HD
ENDBRANCH  18  20
BRANCH  18  22
ATOM     22  O   UNL     1       0.041   9.424  23.934  0.00  0.00    +0.000 OA
ATOM     23  H   UNL     1      -0.569   9.844  24.583  0.00  0.00    +0.000 HD
ENDBRANCH  18  22
ENDBRANCH  17  18
ENDBRANCH  16  17
ENDBRANCH  12  16
ENDBRANCH   7  12
ENDBRANCH   1   9
BRANCH   4  24
ATOM     24  C   UNL     1       4.293   4.662  18.683  0.00  0.00    +0.000 C 
ATOM     25  O   UNL     1       4.451   3.924  19.653  0.00  0.00    +0.000 OA
BRANCH  24  26
ATOM     26  C   UNL     1       4.949   4.396  17.342  0.00  0.00    +0.000 C 
BRANCH  26  27
ATOM     27  C   UNL     1       6.474   4.324  17.478  0.00  0.00    +0.000 C 
BRANCH  27  28
ATOM     28  C   UNL     1       7.075   5.695  17.693  0.00  0.00    +0.000 A 
ATOM     29  C   UNL     1       7.869   5.951  18.817  0.00  0.00    +0.000 A 
ATOM     30  C   UNL     1       8.372   7.235  19.048  0.00  0.00    +0.000 A 
ATOM     31  C   UNL     1       8.107   8.304  18.172  0.00  0.00    +0.000 A 
ATOM     32  C   UNL     1       7.328   8.018  17.039  0.00  0.00    +0.000 A 
ATOM     33  C   UNL     1       6.812   6.738  16.804  0.00  0.00    +0.000 A 
BRANCH  31  34
ATOM     34  C   UNL     1       8.602   9.676  18.465  0.00  0.00    +0.000 A 
ATOM     35  C   UNL     1       8.298  10.764  17.629  0.00  0.00    +0.000 A 
ATOM     36  C   UNL     1       8.823  12.038  17.865  0.00  0.00    +0.000 A 
ATOM     37  C   UNL     1       9.651  12.259  18.960  0.00  0.00    +0.000 A 
ATOM     38  C   UNL     1       9.946  11.208  19.822  0.00  0.00    +0.000 A 
ATOM     39  C   UNL     1       9.433   9.932  19.574  0.00  0.00    +0.000 A 
ENDBRANCH  31  34
ENDBRANCH  27  28
ENDBRANCH  26  27
ENDBRANCH  24  26
ENDBRANCH   4  24
TORSDOF 13
ENDMDL
MODEL 2
REMARK VINA RESULT:      -7.5      1.941      2.939
REMARK  Name = 
REMARK  14 active torsions:
REMARK  status: ('A' for Active; 'I' for Inactive)
REMARK    1  A    between atoms: C_1  and  C_2
REMARK    2  A    between atoms: C_2  and  N_3
REMARK    3  A    between atoms: C_2  and  C_4
REMARK    4  A    between atoms: C_2  and  C_10
REMARK    5  A    between atoms: C_4  and  O_5
REMARK    6  A    between atoms: O_5  and  P_6
REMARK    7  A    between atoms: P_6  and  O_8
REMARK    8  A    between atoms: P_6  and  O_9
REMARK    9  A    between atoms: N_12  and  C_13
REMARK   10  A    between atoms: C_16  and  C_17
REMARK   11  A    between atoms: C_17  and  C_19
REMARK   12  A    between atoms: C_19  and  C_20
REMARK   13  A    between atoms: C_20  and  C_21
REMARK   14  A    between atoms: C_24  and  C_25
REMARK                            x       y       z     vdW  Elec       q    Type
REMARK                         _______ _______ _______ _____ _____    ______ ____
ROOT
ATOM      1  C   UNL     1       1.845   8.384  19.113  0.00  0.00    +0.000 A 
ATOM      2  C   UNL     1       1.887   7.383  20.081  0.00  0.00    +0.000 A 
ATOM      3  C   UNL     1       2.515   6.168  19.825  0.00  0.00    +0.000 A 
ATOM      4  C   UNL     1       3.128   5.929  18.592  0.00  0.00    +0.000 A 
ATOM      5  C   UNL     1       3.068   6.912  17.601  0.00  0.00    +0.000 A 
ATOM      6  C   UNL     1       2.416   8.130  17.858  0.00  0.00    +0.000 A 
ENDROOT
BRANCH   1   9
ATOM      7  C   UNL     1       0.338   9.946  20.347  0.00  0.00    +0.000 C 
ATOM      8  O   UNL     1      -0.144   9.143  21.145  0.00  0.00    +0.000 OA
ATOM      9  N   UNL     1       1.265   9.645  19.354  0.00  0.00    +0.000 N 
ATOM     10  H   UNL     1       1.662  10.424  18.848  0.00  0.00    +0.000 HD
BRANCH   7  12
ATOM     11  C   UNL     1      -0.320  11.858  21.833  0.00  0.00    +0.000 C 
ATOM     12  C   UNL     1      -0.152  11.412  20.373  0.00  0.00    +0.000 C 
BRANCH  12  13
ATOM     13  N   UNL     1       0.812  12.333  19.728  0.00  0.00    +0.000 NA
ATOM     14  H   UNL     1       1.390  12.821  20.403  0.00  0.00    +0.000 HD
ATOM     15  H   UNL     1       0.345  12.971  19.090  0.00  0.00    +0.000 HD
ENDBRANCH  12  13
BRANCH  12  16
ATOM     16  C   UNL     1      -1.515  11.373  19.649  0.00  0.00    +0.000 C 
BRANCH  16  17
ATOM     17  O   UNL     1      -1.521  10.438  18.579  0.00  0.00    +0.000 OA
BRANCH  17  18
ATOM     18  P   UNL     1      -2.297  11.037  17.154  0.00  0.00    +0.000 P 
ATOM     19  O   UNL     1      -3.594  11.326  17.905  0.00  0.00    +0.000 OA
BRANCH  18  20
ATOM     20  O   UNL     1      -1.429  12.418  17.277  0.00  0.00    +0.000 OA
ATOM     21  H   UNL     1      -1.104  12.626  16.382  0.00  0.00    +0.000 HD
ENDBRANCH  18  20
BRANCH  18  22
ATOM     22  O   UNL     1      -3.073  11.636  15.729  0.00  0.00    +0.000 OA
ATOM     23  H   UNL     1      -2.448  12.295  15.351  0.00  0.00    +0.000 HD
ENDBRANCH  18  22
ENDBRANCH  17  18
ENDBRANCH  16  17
ENDBRANCH  12  16
ENDBRANCH   7  12
ENDBRANCH   1   9
BRANCH   4  24
ATOM     24  C   UNL     1       3.804   4.616  18.403  0.00  0.00    +0.000 C 
ATOM     25  O   UNL     1       3.192   3.713  17.836  0.00  0.00    +0.000 OA
BRANCH  24  26
ATOM     26  C   UNL     1       5.199   4.427  18.966  0.00  0.00    +0.000 C 
BRANCH  26  27
ATOM     27  C   UNL     1       6.262   4.605  17.876  0.00  0.00    +0.000 C 
BRANCH  27  28
ATOM     28  C   UNL     1       6.948   5.949  17.988  0.00  0.00    +0.000 A 
ATOM     29  C   UNL     1       7.934   6.161  18.958  0.00  0.00    +0.000 A 
ATOM     30  C   UNL     1       8.522   7.422  19.103  0.00  0.00    +0.000 A 
ATOM     31  C   UNL     1       8.154   8.509  18.289  0.00  0.00    +0.000 A 
ATOM     32  C   UNL     1       7.181   8.266  17.306  0.00  0.00    +0.000 A 
ATOM     33  C   UNL     1       6.580   7.011  17.161  0.00  0.00    +0.000 A 
BRANCH  31  34
ATOM     34  C   UNL     1       8.749   9.857  18.496  0.00  0.00    +0.000 A 
ATOM     35  C   UNL     1       9.530  10.154  19.626  0.00  0.00    +0.000 A 
ATOM     36  C   UNL     1      10.028  11.439  19.855  0.00  0.00    +0.000 A 
ATOM     37  C   UNL     1       9.772  12.458  18.945  0.00  0.00    +0.000 A 
ATOM     38  C   UNL     1       9.027  12.188  17.802  0.00  0.00    +0.000 A 
ATOM     39  C   UNL     1       8.517  10.905  17.584  0.00  0.00    +0.000 A 
ENDBRANCH  31  34
ENDBRANCH  27  28
ENDBRANCH  26  27
ENDBRANCH  24  26
ENDBRANCH   4  24
TORSDOF 13
ENDMDL
MODEL 3
REMARK VINA RESULT:      -7.5      4.625     10.813
REMARK  Name = 
REMARK  14 active torsions:
REMARK  status: ('A' for Active; 'I' for Inactive)
REMARK    1  A    between atoms: C_1  and  C_2
REMARK    2  A    between atoms: C_2  and  N_3
REMARK    3  A    between atoms: C_2  and  C_4
REMARK    4  A    between atoms: C_2  and  C_10
REMARK    5  A    between atoms: C_4  and  O_5
REMARK    6  A    between atoms: O_5  and  P_6
REMARK    7  A    between atoms: P_6  and  O_8
REMARK    8  A    between atoms: P_6  and  O_9
REMARK    9  A    between atoms: N_12  and  C_13
REMARK   10  A    between atoms: C_16  and  C_17
REMARK   11  A    between atoms: C_17  and  C_19
REMARK   12  A    between atoms: C_19  and  C_20
REMARK   13  A    between atoms: C_20  and  C_21
REMARK   14  A    between atoms: C_24  and  C_25
REMARK                            x       y       z     vdW  Elec       q    Type
REMARK                         _______ _______ _______ _____ _____    ______ ____
ROOT
ATOM      1  C   UNL     1       2.754   7.148  18.466  0.00  0.00    +0.000 A 
ATOM      2  C   UNL     1       2.178   7.283  19.728  0.00  0.00    +0.000 A 
ATOM      3  C   UNL     1       1.488   8.439  20.078  0.00  0.00    +0.000 A 
ATOM      4  C   UNL     1       1.348   9.488  19.166  0.00  0.00    +0.000 A 
ATOM      5  C   UNL     1       1.945   9.380  17.907  0.00  0.00    +0.000 A 
ATOM      6  C   UNL     1       2.657   8.218  17.565  0.00  0.00    +0.000 A 
ENDROOT
BRANCH   1   9
ATOM      7  C   UNL     1       4.554   5.427  18.641  0.00  0.00    +0.000 C 
ATOM      8  O   UNL     1       5.180   5.911  19.582  0.00  0.00    +0.000 OA
ATOM      9  N   UNL     1       3.415   5.972  18.059  0.00  0.00    +0.000 N 
ATOM     10  H   UNL     1       2.937   5.407  17.371  0.00  0.00    +0.000 HD
BRANCH   7  12
ATOM     11  C   UNL     1       4.764   4.177  16.475  0.00  0.00    +0.000 C 
ATOM     12  C   UNL     1       5.083   4.135  17.977  0.00  0.00    +0.000 C 
BRANCH  12  13
ATOM     13  N   UNL     1       6.550   3.993  18.124  0.00  0.00    +0.000 NA
ATOM     14  H   UNL     1       6.876   4.288  19.037  0.00  0.00    +0.000 HD
ATOM     15  H   UNL     1       7.045   4.461  17.369  0.00  0.00    +0.000 HD
ENDBRANCH  12  13
BRANCH  12  16
ATOM     16  C   UNL     1       4.302   3.000  18.673  0.00  0.00    +0.000 C 
BRANCH  16  17
ATOM     17  O   UNL     1       3.110   3.473  19.285  0.00  0.00    +0.000 OA
BRANCH  17  18
ATOM     18  P   UNL     1       1.695   2.620  18.771  0.00  0.00    +0.000 P 
ATOM     19  O   UNL     1       1.470   3.571  17.599  0.00  0.00    +0.000 OA
BRANCH  18  20
ATOM     20  O   UNL     1       2.644   1.433  18.168  0.00  0.00    +0.000 OA
ATOM     21  H   UNL     1       2.138   1.004  17.454  0.00  0.00    +0.000 HD
ENDBRANCH  18  20
BRANCH  18  22
ATOM     22  O   UNL     1       0.280   1.768  18.259  0.00  0.00    +0.000 OA
ATOM     23  H   UNL     1       0.407   0.843  18.572  0.00  0.00    +0.000 HD
ENDBRANCH  18  22
ENDBRANCH  17  18
ENDBRANCH  16  17
ENDBRANCH  12  16
ENDBRANCH   7  12
ENDBRANCH   1   9
BRANCH   4  24
ATOM     24  C   UNL     1       0.571  10.681  19.603  0.00  0.00    +0.000 C 
ATOM     25  O   UNL     1       0.999  11.799  19.324  0.00  0.00    +0.000 OA
BRANCH  24  26
ATOM     26  C   UNL     1      -0.688  10.471  20.422  0.00  0.00    +0.000 C 
BRANCH  26  27
ATOM     27  C   UNL     1      -0.551  11.095  21.814  0.00  0.00    +0.000 C 
BRANCH  27  28
ATOM     28  C   UNL     1      -1.780  11.896  22.184  0.00  0.00    +0.000 A 
ATOM     29  C   UNL     1      -2.274  11.868  23.493  0.00  0.00    +0.000 A 
ATOM     30  C   UNL     1      -3.447  12.558  23.820  0.00  0.00    +0.000 A 
ATOM     31  C   UNL     1      -4.162  13.298  22.861  0.00  0.00    +0.000 A 
ATOM     32  C   UNL     1      -3.634  13.332  21.560  0.00  0.00    +0.000 A 
ATOM     33  C   UNL     1      -2.467  12.637  21.222  0.00  0.00    +0.000 A 
BRANCH  31  34
ATOM     34  C   UNL     1      -5.439  13.977  23.213  0.00  0.00    +0.000 A 
ATOM     35  C   UNL     1      -6.489  13.291  23.846  0.00  0.00    +0.000 A 
ATOM     36  C   UNL     1      -7.713  13.911  24.110  0.00  0.00    +0.000 A 
ATOM     37  C   UNL     1      -7.910  15.243  23.766  0.00  0.00    +0.000 A 
ATOM     38  C   UNL     1      -6.878  15.956  23.164  0.00  0.00    +0.000 A 
ATOM     39  C   UNL     1      -5.661  15.329  22.886  0.00  0.00    +0.000 A 
ENDBRANCH  31  34
ENDBRANCH  27  28
ENDBRANCH  26  27
ENDBRANCH  24  26
ENDBRANCH   4  24
TORSDOF 13
ENDMDL
MODEL 4
REMARK VINA RESULT:      -7.4      1.802      2.888
REMARK  Name = 
REMARK  14 active torsions:
REMARK  status: ('A' for Active; 'I' for Inactive)
REMARK    1  A    between atoms: C_1  and  C_2
REMARK    2  A    between atoms: C_2  and  N_3
REMARK    3  A    between atoms: C_2  and  C_4
REMARK    4  A    between atoms: C_2  and  C_10
REMARK    5  A    between atoms: C_4  and  O_5
REMARK    6  A    between atoms: O_5  and  P_6
REMARK    7  A    between atoms: P_6  and  O_8
REMARK    8  A    between atoms: P_6  and  O_9
REMARK    9  A    between atoms: N_12  and  C_13
REMARK   10  A    between atoms: C_16  and  C_17
REMARK   11  A    between atoms: C_17  and  C_19
REMARK   12  A    between atoms: C_19  and  C_20
REMARK   13  A    between atoms: C_20  and  C_21
REMARK   14  A    between atoms: C_24  and  C_25
REMARK                            x       y       z     vdW  Elec       q    Type
REMARK                         _______ _______ _______ _____ _____    ______ ____
ROOT
ATOM      1  C   UNL     1       2.066   7.622  19.623  0.00  0.00    +0.000 A 
ATOM      2  C   UNL     1       2.826   7.625  18.454  0.00  0.00    +0.000 A 
ATOM      3  C   UNL     1       3.591   6.519  18.097  0.00  0.00    +0.000 A 
ATOM      4  C   UNL     1       3.607   5.375  18.899  0.00  0.00    +0.000 A 
ATOM      5  C   UNL     1       2.873   5.368  20.089  0.00  0.00    +0.000 A 
ATOM      6  C   UNL     1       2.117   6.494  20.454  0.00  0.00    +0.000 A 
ENDROOT
BRANCH   1   9
ATOM      7  C   UNL     1       1.176   9.300  21.244  0.00  0.00    +0.000 C 
ATOM      8  O   UNL     1       1.812   8.950  22.237  0.00  0.00    +0.000 OA
ATOM      9  N   UNL     1       1.239   8.702  19.989  0.00  0.00    +0.000 N 
ATOM     10  H   UNL     1       0.751   9.167  19.236  0.00  0.00    +0.000 HD
BRANCH   7  12
ATOM     11  C   UNL     1      -0.701  10.230  22.626  0.00  0.00    +0.000 C 
ATOM     12  C   UNL     1       0.161  10.458  21.375  0.00  0.00    +0.000 C 
BRANCH  12  13
ATOM     13  N   UNL     1       0.830  11.771  21.520  0.00  0.00    +0.000 NA
ATOM     14  H   UNL     1       1.637  11.863  20.913  0.00  0.00    +0.000 HD
ATOM     15  H   UNL     1       1.057  11.967  22.492  0.00  0.00    +0.000 HD
ENDBRANCH  12  13
BRANCH  12  16
ATOM     16  C   UNL     1      -0.694  10.364  20.093  0.00  0.00    +0.000 C 
BRANCH  16  17
ATOM     17  O   UNL     1      -1.074  11.646  19.613  0.00  0.00    +0.000 OA
BRANCH  17  18
ATOM     18  P   UNL     1      -1.619  11.625  17.971  0.00  0.00    +0.000 P 
ATOM     19  O   UNL     1      -1.732  10.104  17.961  0.00  0.00    +0.000 OA
BRANCH  18  20
ATOM     20  O   UNL     1      -3.087  12.149  18.464  0.00  0.00    +0.000 OA
ATOM     21  H   UNL     1      -3.386  11.536  19.159  0.00  0.00    +0.000 HD
ENDBRANCH  18  20
BRANCH  18  22
ATOM     22  O   UNL     1      -2.162  11.605  16.329  0.00  0.00    +0.000 OA
ATOM     23  H   UNL     1      -1.657  10.878  15.898  0.00  0.00    +0.000 HD
ENDBRANCH  18  22
ENDBRANCH  17  18
ENDBRANCH  16  17
ENDBRANCH  12  16
ENDBRANCH   7  12
ENDBRANCH   1   9
BRANCH   4  24
ATOM     24  C   UNL     1       4.427   4.222  18.437  0.00  0.00    +0.000 C 
ATOM     25  O   UNL     1       4.500   3.225  19.152  0.00  0.00    +0.000 OA
BRANCH  24  26
ATOM     26  C   UNL     1       5.182   4.343  17.128  0.00  0.00    +0.000 C 
BRANCH  26  27
ATOM     27  C   UNL     1       6.696   4.380  17.366  0.00  0.00    +0.000 C 
BRANCH  27  28
ATOM     28  C   UNL     1       7.168   5.779  17.699  0.00  0.00    +0.000 A 
ATOM     29  C   UNL     1       6.891   6.843  16.833  0.00  0.00    +0.000 A 
ATOM     30  C   UNL     1       7.382   8.123  17.108  0.00  0.00    +0.000 A 
ATOM     31  C   UNL     1       8.159   8.389  18.250  0.00  0.00    +0.000 A 
ATOM     32  C   UNL     1       8.404   7.311  19.117  0.00  0.00    +0.000 A 
ATOM     33  C   UNL     1       7.925   6.025  18.844  0.00  0.00    +0.000 A 
BRANCH  31  34
ATOM     34  C   UNL     1       8.721   9.745  18.496  0.00  0.00    +0.000 A 
ATOM     35  C   UNL     1       9.585  10.000  19.575  0.00  0.00    +0.000 A 
ATOM     36  C   UNL     1      10.054  11.288  19.848  0.00  0.00    +0.000 A 
ATOM     37  C   UNL     1       9.687  12.351  19.031  0.00  0.00    +0.000 A 
ATOM     38  C   UNL     1       8.857  12.124  17.939  0.00  0.00    +0.000 A 
ATOM     39  C   UNL     1       8.375  10.838  17.679  0.00  0.00    +0.000 A 
ENDBRANCH  31  34
ENDBRANCH  27  28
ENDBRANCH  26  27
ENDBRANCH  24  26
ENDBRANCH   4  24
TORSDOF 13
ENDMDL
MODEL 5
REMARK VINA RESULT:      -7.4      1.952      2.980
REMARK  Name = 
REMARK  14 active torsions:
REMARK  status: ('A' for Active; 'I' for Inactive)
REMARK    1  A    between atoms: C_1  and  C_2
REMARK    2  A    between atoms: C_2  and  N_3
REMARK    3  A    between atoms: C_2  and  C_4
REMARK    4  A    between atoms: C_2  and  C_10
REMARK    5  A    between atoms: C_4  and  O_5
REMARK    6  A    between atoms: O_5  and  P_6
REMARK    7  A    between atoms: P_6  and  O_8
REMARK    8  A    between atoms: P_6  and  O_9
REMARK    9  A    between atoms: N_12  and  C_13
REMARK   10  A    between atoms: C_16  and  C_17
REMARK   11  A    between atoms: C_17  and  C_19
REMARK   12  A    between atoms: C_19  and  C_20
REMARK   13  A    between atoms: C_20  and  C_21
REMARK   14  A    between atoms: C_24  and  C_25
REMARK                            x       y       z     vdW  Elec       q    Type
REMARK                         _______ _______ _______ _____ _____    ______ ____
ROOT
ATOM      1  C   UNL     1       1.488   8.670  19.544  0.00  0.00    +0.000 A 
ATOM      2  C   UNL     1       1.669   7.524  20.315  0.00  0.00    +0.000 A 
ATOM      3  C   UNL     1       2.399   6.444  19.828  0.00  0.00    +0.000 A 
ATOM      4  C   UNL     1       2.978   6.491  18.557  0.00  0.00    +0.000 A 
ATOM      5  C   UNL     1       2.781   7.622  17.761  0.00  0.00    +0.000 A 
ATOM      6  C   UNL     1       2.026   8.702  18.250  0.00  0.00    +0.000 A 
ENDROOT
BRANCH   1   9
ATOM      7  C   UNL     1       0.728  10.220  21.349  0.00  0.00    +0.000 C 
ATOM      8  O   UNL     1       1.229   9.640  22.311  0.00  0.00    +0.000 OA
ATOM      9  N   UNL     1       0.800   9.803  20.024  0.00  0.00    +0.000 N 
ATOM     10  H   UNL     1       0.444  10.438  19.323  0.00  0.00    +0.000 HD
BRANCH   7  12
ATOM     11  C   UNL     1      -0.869  11.340  22.928  0.00  0.00    +0.000 C 
ATOM     12  C   UNL     1      -0.116  11.491  21.597  0.00  0.00    +0.000 C 
BRANCH  12  13
ATOM     13  N   UNL     1       0.722  12.708  21.688  0.00  0.00    +0.000 NA
ATOM     14  H   UNL     1       0.167  13.555  21.740  0.00  0.00    +0.000 HD
ATOM     15  H   UNL     1       1.407  12.744  20.938  0.00  0.00    +0.000 HD
ENDBRANCH  12  13
BRANCH  12  16
ATOM     16  C   UNL     1      -1.102  11.533  20.409  0.00  0.00    +0.000 C 
BRANCH  16  17
ATOM     17  O   UNL     1      -0.600  12.309  19.330  0.00  0.00    +0.000 OA
BRANCH  17  18
ATOM     18  P   UNL     1      -1.384  11.972  17.825  0.00  0.00    +0.000 P 
ATOM     19  O   UNL     1      -1.141  10.472  17.962  0.00  0.00    +0.000 OA
BRANCH  18  20
ATOM     20  O   UNL     1      -2.834  12.225  18.538  0.00  0.00    +0.000 OA
ATOM     21  H   UNL     1      -3.332  11.390  18.468  0.00  0.00    +0.000 HD
ENDBRANCH  18  20
BRANCH  18  22
ATOM     22  O   UNL     1      -2.167  11.635  16.320  0.00  0.00    +0.000 OA
ATOM     23  H   UNL     1      -3.117  11.851  16.468  0.00  0.00    +0.000 HD
ENDBRANCH  18  22
ENDBRANCH  17  18
ENDBRANCH  16  17
ENDBRANCH  12  16
ENDBRANCH   7  12
ENDBRANCH   1   9
BRANCH   4  24
ATOM     24  C   UNL     1       3.769   5.309  18.118  0.00  0.00    +0.000 C 
ATOM     25  O   UNL     1       3.243   4.495  17.360  0.00  0.00    +0.000 OA
BRANCH  24  26
ATOM     26  C   UNL     1       5.171   5.125  18.664  0.00  0.00    +0.000 C 
BRANCH  26  27
ATOM     27  C   UNL     1       6.223   5.363  17.575  0.00  0.00    +0.000 C 
BRANCH  27  28
ATOM     28  C   UNL     1       7.038   6.606  17.857  0.00  0.00    +0.000 A 
ATOM     29  C   UNL     1       8.059   6.580  18.814  0.00  0.00    +0.000 A 
ATOM     30  C   UNL     1       8.770   7.745  19.119  0.00  0.00    +0.000 A 
ATOM     31  C   UNL     1       8.494   8.969  18.483  0.00  0.00    +0.000 A 
ATOM     32  C   UNL     1       7.482   8.966  17.509  0.00  0.00    +0.000 A 
ATOM     33  C   UNL     1       6.759   7.807  17.205  0.00  0.00    +0.000 A 
BRANCH  31  34
ATOM     34  C   UNL     1       9.221  10.211  18.863  0.00  0.00    +0.000 A 
ATOM     35  C   UNL     1       9.390  10.586  20.206  0.00  0.00    +0.000 A 
ATOM     36  C   UNL     1      10.009  11.788  20.559  0.00  0.00    +0.000 A 
ATOM     37  C   UNL     1      10.495  12.637  19.572  0.00  0.00    +0.000 A 
ATOM     38  C   UNL     1      10.369  12.280  18.234  0.00  0.00    +0.000 A 
ATOM     39  C   UNL     1       9.734  11.085  17.884  0.00  0.00    +0.000 A 
ENDBRANCH  31  34
ENDBRANCH  27  28
ENDBRANCH  26  27
ENDBRANCH  24  26
ENDBRANCH   4  24
TORSDOF 13
ENDMDL
MODEL 6
REMARK VINA RESULT:      -7.2      2.132      2.931
REMARK  Name = 
REMARK  14 active torsions:
REMARK  status: ('A' for Active; 'I' for Inactive)
REMARK    1  A    between atoms: C_1  and  C_2
REMARK    2  A    between atoms: C_2  and  N_3
REMARK    3  A    between atoms: C_2  and  C_4
REMARK    4  A    between atoms: C_2  and  C_10
REMARK    5  A    between atoms: C_4  and  O_5
REMARK    6  A    between atoms: O_5  and  P_6
REMARK    7  A    between atoms: P_6  and  O_8
REMARK    8  A    between atoms: P_6  and  O_9
REMARK    9  A    between atoms: N_12  and  C_13
REMARK   10  A    between atoms: C_16  and  C_17
REMARK   11  A    between atoms: C_17  and  C_19
REMARK   12  A    between atoms: C_19  and  C_20
REMARK   13  A    between atoms: C_20  and  C_21
REMARK   14  A    between atoms: C_24  and  C_25
REMARK                            x       y       z     vdW  Elec       q    Type
REMARK                         _______ _______ _______ _____ _____    ______ ____
ROOT
ATOM      1  C   UNL     1       1.423   9.142  19.014  0.00  0.00    +0.000 A 
ATOM      2  C   UNL     1       2.223   8.982  17.884  0.00  0.00    +0.000 A 
ATOM      3  C   UNL     1       3.028   7.857  17.734  0.00  0.00    +0.000 A 
ATOM      4  C   UNL     1       3.045   6.857  18.710  0.00  0.00    +0.000 A 
ATOM      5  C   UNL     1       2.270   7.018  19.863  0.00  0.00    +0.000 A 
ATOM      6  C   UNL     1       1.474   8.165  20.018  0.00  0.00    +0.000 A 
ENDROOT
BRANCH   1   9
ATOM      7  C   UNL     1       0.629  11.204  20.178  0.00  0.00    +0.000 C 
ATOM      8  O   UNL     1       1.444  11.220  21.098  0.00  0.00    +0.000 OA
ATOM      9  N   UNL     1       0.556  10.241  19.176  0.00  0.00    +0.000 N 
ATOM     10  H   UNL     1      -0.088  10.417  18.418  0.00  0.00    +0.000 HD
BRANCH   7  12
ATOM     11  C   UNL     1      -1.570  11.939  21.139  0.00  0.00    +0.000 C 
ATOM     12  C   UNL     1      -0.467  12.293  20.130  0.00  0.00    +0.000 C 
BRANCH  12  13
ATOM     13  N   UNL     1       0.060  13.630  20.487  0.00  0.00    +0.000 NA
ATOM     14  H   UNL     1      -0.679  14.310  20.630  0.00  0.00    +0.000 HD
ATOM     15  H   UNL     1       0.750  13.949  19.812  0.00  0.00    +0.000 HD
ENDBRANCH  12  13
BRANCH  12  16
ATOM     16  C   UNL     1      -1.005  12.230  18.684  0.00  0.00    +0.000 C 
BRANCH  16  17
ATOM     17  O   UNL     1      -2.172  11.426  18.586  0.00  0.00    +0.000 OA
BRANCH  17  18
ATOM     18  P   UNL     1      -2.523  10.928  16.967  0.00  0.00    +0.000 P 
ATOM     19  O   UNL     1      -1.500   9.797  17.026  0.00  0.00    +0.000 OA
BRANCH  18  20
ATOM     20  O   UNL     1      -3.918  10.253  17.489  0.00  0.00    +0.000 OA
ATOM     21  H   UNL     1      -3.868   9.303  17.279  0.00  0.00    +0.000 HD
ENDBRANCH  18  20
BRANCH  18  22
ATOM     22  O   UNL     1      -2.873  10.430  15.348  0.00  0.00    +0.000 OA
ATOM     23  H   UNL     1      -2.202   9.741  15.137  0.00  0.00    +0.000 HD
ENDBRANCH  18  22
ENDBRANCH  17  18
ENDBRANCH  16  17
ENDBRANCH  12  16
ENDBRANCH   7  12
ENDBRANCH   1   9
BRANCH   4  24
ATOM     24  C   UNL     1       3.910   5.671  18.465  0.00  0.00    +0.000 C 
ATOM     25  O   UNL     1       4.095   4.875  19.383  0.00  0.00    +0.000 OA
BRANCH  24  26
ATOM     26  C   UNL     1       4.572   5.519  17.109  0.00  0.00    +0.000 C 
BRANCH  26  27
ATOM     27  C   UNL     1       6.071   5.237  17.256  0.00  0.00    +0.000 C 
BRANCH  27  28
ATOM     28  C   UNL     1       6.824   6.472  17.701  0.00  0.00    +0.000 A 
ATOM     29  C   UNL     1       6.578   7.707  17.091  0.00  0.00    +0.000 A 
ATOM     30  C   UNL     1       7.319   8.836  17.458  0.00  0.00    +0.000 A 
ATOM     31  C   UNL     1       8.322   8.774  18.443  0.00  0.00    +0.000 A 
ATOM     32  C   UNL     1       8.534   7.530  19.058  0.00  0.00    +0.000 A 
ATOM     33  C   UNL     1       7.805   6.394  18.690  0.00  0.00    +0.000 A 
BRANCH  31  34
ATOM     34  C   UNL     1       9.140   9.972  18.779  0.00  0.00    +0.000 A 
ATOM     35  C   UNL     1       9.800  10.717  17.787  0.00  0.00    +0.000 A 
ATOM     36  C   UNL     1      10.625  11.797  18.111  0.00  0.00    +0.000 A 
ATOM     37  C   UNL     1      10.794  12.172  19.439  0.00  0.00    +0.000 A 
ATOM     38  C   UNL     1      10.131  11.472  20.440  0.00  0.00    +0.000 A 
ATOM     39  C   UNL     1       9.319  10.381  20.115  0.00  0.00    +0.000 A 
ENDBRANCH  31  34
ENDBRANCH  27  28
ENDBRANCH  26  27
ENDBRANCH  24  26
ENDBRANCH   4  24
TORSDOF 13
ENDMDL
MODEL 7
REMARK VINA RESULT:      -7.2      4.857      8.577
REMARK  Name = 
REMARK  14 active torsions:
REMARK  status: ('A' for Active; 'I' for Inactive)
REMARK    1  A    between atoms: C_1  and  C_2
REMARK    2  A    between atoms: C_2  and  N_3
REMARK    3  A    between atoms: C_2  and  C_4
REMARK    4  A    between atoms: C_2  and  C_10
REMARK    5  A    between atoms: C_4  and  O_5
REMARK    6  A    between atoms: O_5  and  P_6
REMARK    7  A    between atoms: P_6  and  O_8
REMARK    8  A    between atoms: P_6  and  O_9
REMARK    9  A    between atoms: N_12  and  C_13
REMARK   10  A    between atoms: C_16  and  C_17
REMARK   11  A    between atoms: C_17  and  C_19
REMARK   12  A    between atoms: C_19  and  C_20
REMARK   13  A    between atoms: C_20  and  C_21
REMARK   14  A    between atoms: C_24  and  C_25
REMARK                            x       y       z     vdW  Elec       q    Type
REMARK                         _______ _______ _______ _____ _____    ______ ____
ROOT
ATOM      1  C   UNL     1       8.323   8.761  18.162  0.00  0.00    +0.000 A 
ATOM      2  C   UNL     1       8.628   7.621  18.903  0.00  0.00    +0.000 A 
ATOM      3  C   UNL     1       7.867   6.463  18.776  0.00  0.00    +0.000 A 
ATOM      4  C   UNL     1       6.785   6.415  17.892  0.00  0.00    +0.000 A 
ATOM      5  C   UNL     1       6.450   7.560  17.165  0.00  0.00    +0.000 A 
ATOM      6  C   UNL     1       7.210   8.732  17.311  0.00  0.00    +0.000 A 
ENDROOT
BRANCH   1   9
ATOM      7  C   UNL     1       9.434  10.638  19.379  0.00  0.00    +0.000 C 
ATOM      8  O   UNL     1       9.065  10.360  20.519  0.00  0.00    +0.000 OA
ATOM      9  N   UNL     1       9.102   9.934  18.226  0.00  0.00    +0.000 N 
ATOM     10  H   UNL     1       9.571  10.205  17.373  0.00  0.00    +0.000 HD
BRANCH   7  12
ATOM     11  C   UNL     1      10.563  12.570  20.515  0.00  0.00    +0.000 C 
ATOM     12  C   UNL     1      10.286  11.908  19.157  0.00  0.00    +0.000 C 
BRANCH  12  13
ATOM     13  N   UNL     1      11.592  11.599  18.530  0.00  0.00    +0.000 NA
ATOM     14  H   UNL     1      11.592  10.701  18.061  0.00  0.00    +0.000 HD
ATOM     15  H   UNL     1      12.354  11.683  19.199  0.00  0.00    +0.000 HD
ENDBRANCH  12  13
BRANCH  12  16
ATOM     16  C   UNL     1       9.401  12.813  18.274  0.00  0.00    +0.000 C 
BRANCH  16  17
ATOM     17  O   UNL     1       9.530  14.185  18.623  0.00  0.00    +0.000 OA
BRANCH  17  18
ATOM     18  P   UNL     1      10.286  15.134  17.389  0.00  0.00    +0.000 P 
ATOM     19  O   UNL     1      11.588  15.237  18.178  0.00  0.00    +0.000 OA
BRANCH  18  20
ATOM     20  O   UNL     1      10.458  13.788  16.476  0.00  0.00    +0.000 OA
ATOM     21  H   UNL     1      11.148  13.246  16.901  0.00  0.00    +0.000 HD
ENDBRANCH  18  20
BRANCH  18  22
ATOM     22  O   UNL     1      11.040  16.083  16.156  0.00  0.00    +0.000 OA
ATOM     23  H   UNL     1      10.488  15.950  15.352  0.00  0.00    +0.000 HD
ENDBRANCH  18  22
ENDBRANCH  17  18
ENDBRANCH  16  17
ENDBRANCH  12  16
ENDBRANCH   7  12
ENDBRANCH   1   9
BRANCH   4  24
ATOM     24  C   UNL     1       6.037   5.132  17.790  0.00  0.00    +0.000 C 
ATOM     25  O   UNL     1       6.473   4.251  17.051  0.00  0.00    +0.000 OA
BRANCH  24  26
ATOM     26  C   UNL     1       4.739   4.982  18.559  0.00  0.00    +0.000 C 
BRANCH  26  27
ATOM     27  C   UNL     1       3.560   5.559  17.767  0.00  0.00    +0.000 C 
BRANCH  27  28
ATOM     28  C   UNL     1       2.750   6.523  18.607  0.00  0.00    +0.000 A 
ATOM     29  C   UNL     1       2.417   7.787  18.106  0.00  0.00    +0.000 A 
ATOM     30  C   UNL     1       1.723   8.701  18.906  0.00  0.00    +0.000 A 
ATOM     31  C   UNL     1       1.336   8.390  20.222  0.00  0.00    +0.000 A 
ATOM     32  C   UNL     1       1.660   7.108  20.694  0.00  0.00    +0.000 A 
ATOM     33  C   UNL     1       2.362   6.190  19.905  0.00  0.00    +0.000 A 
BRANCH  31  34
ATOM     34  C   UNL     1       0.650   9.397  21.077  0.00  0.00    +0.000 A 
ATOM     35  C   UNL     1       0.048   9.042  22.296  0.00  0.00    +0.000 A 
ATOM     36  C   UNL     1      -0.658   9.972  23.063  0.00  0.00    +0.000 A 
ATOM     37  C   UNL     1      -0.760  11.292  22.637  0.00  0.00    +0.000 A 
ATOM     38  C   UNL     1      -0.150  11.680  21.449  0.00  0.00    +0.000 A 
ATOM     39  C   UNL     1       0.541  10.743  20.676  0.00  0.00    +0.000 A 
ENDBRANCH  31  34
ENDBRANCH  27  28
ENDBRANCH  26  27
ENDBRANCH  24  26
ENDBRANCH   4  24
TORSDOF 13
ENDMDL
MODEL 8
REMARK VINA RESULT:      -7.1      2.064      2.864
REMARK  Name = 
REMARK  14 active torsions:
REMARK  status: ('A' for Active; 'I' for Inactive)
REMARK    1  A    between atoms: C_1  and  C_2
REMARK    2  A    between atoms: C_2  and  N_3
REMARK    3  A    between atoms: C_2  and  C_4
REMARK    4  A    between atoms: C_2  and  C_10
REMARK    5  A    between atoms: C_4  and  O_5
REMARK    6  A    between atoms: O_5  and  P_6
REMARK    7  A    between atoms: P_6  and  O_8
REMARK    8  A    between atoms: P_6  and  O_9
REMARK    9  A    between atoms: N_12  and  C_13
REMARK   10  A    between atoms: C_16  and  C_17
REMARK   11  A    between atoms: C_17  and  C_19
REMARK   12  A    between atoms: C_19  and  C_20
REMARK   13  A    between atoms: C_20  and  C_21
REMARK   14  A    between atoms: C_24  and  C_25
REMARK                            x       y       z     vdW  Elec       q    Type
REMARK                         _______ _______ _______ _____ _____    ______ ____
ROOT
ATOM      1  C   UNL     1       1.592   8.605  18.851  0.00  0.00    +0.000 A 
ATOM      2  C   UNL     1       1.772   7.703  19.898  0.00  0.00    +0.000 A 
ATOM      3  C   UNL     1       2.660   6.638  19.778  0.00  0.00    +0.000 A 
ATOM      4  C   UNL     1       3.399   6.456  18.607  0.00  0.00    +0.000 A 
ATOM      5  C   UNL     1       3.207   7.335  17.537  0.00  0.00    +0.000 A 
ATOM      6  C   UNL     1       2.296   8.397  17.656  0.00  0.00    +0.000 A 
ENDROOT
BRANCH   1   9
ATOM      7  C   UNL     1       1.109  11.054  18.776  0.00  0.00    +0.000 C 
ATOM      8  O   UNL     1       2.245  11.457  18.534  0.00  0.00    +0.000 OA
ATOM      9  N   UNL     1       0.742   9.724  18.955  0.00  0.00    +0.000 N 
ATOM     10  H   UNL     1      -0.247   9.528  19.031  0.00  0.00    +0.000 HD
BRANCH   7  12
ATOM     11  C   UNL     1       0.119  12.734  20.356  0.00  0.00    +0.000 C 
ATOM     12  C   UNL     1      -0.026  12.085  18.971  0.00  0.00    +0.000 C 
BRANCH  12  13
ATOM     13  N   UNL     1       0.023  13.165  17.959  0.00  0.00    +0.000 NA
ATOM     14  H   UNL     1      -0.792  13.164  17.355  0.00  0.00    +0.000 HD
ATOM     15  H   UNL     1       0.892  13.141  17.432  0.00  0.00    +0.000 HD
ENDBRANCH  12  13
BRANCH  12  16
ATOM     16  C   UNL     1      -1.321  11.248  18.889  0.00  0.00    +0.000 C 
BRANCH  16  17
ATOM     17  O   UNL     1      -2.274  11.830  18.009  0.00  0.00    +0.000 OA
BRANCH  17  18
ATOM     18  P   UNL     1      -2.662  10.820  16.659  0.00  0.00    +0.000 P 
ATOM     19  O   UNL     1      -1.745   9.703  17.151  0.00  0.00    +0.000 OA
BRANCH  18  20
ATOM     20  O   UNL     1      -4.114  10.494  17.336  0.00  0.00    +0.000 OA
ATOM     21  H   UNL     1      -4.745  10.369  16.603  0.00  0.00    +0.000 HD
ENDBRANCH  18  20
BRANCH  18  22
ATOM     22  O   UNL     1      -3.049   9.810  15.309  0.00  0.00    +0.000 OA
ATOM     23  H   UNL     1      -3.480   9.014  15.696  0.00  0.00    +0.000 HD
ENDBRANCH  18  22
ENDBRANCH  17  18
ENDBRANCH  16  17
ENDBRANCH  12  16
ENDBRANCH   7  12
ENDBRANCH   1   9
BRANCH   4  24
ATOM     24  C   UNL     1       4.350   5.311  18.564  0.00  0.00    +0.000 C 
ATOM     25  O   UNL     1       4.608   4.719  19.611  0.00  0.00    +0.000 OA
BRANCH  24  26
ATOM     26  C   UNL     1       5.002   4.953  17.243  0.00  0.00    +0.000 C 
BRANCH  26  27
ATOM     27  C   UNL     1       6.527   4.881  17.383  0.00  0.00    +0.000 C 
BRANCH  27  28
ATOM     28  C   UNL     1       7.111   6.223  17.766  0.00  0.00    +0.000 A 
ATOM     29  C   UNL     1       6.807   7.365  17.017  0.00  0.00    +0.000 A 
ATOM     30  C   UNL     1       7.397   8.594  17.333  0.00  0.00    +0.000 A 
ATOM     31  C   UNL     1       8.301   8.728  18.402  0.00  0.00    +0.000 A 
ATOM     32  C   UNL     1       8.572   7.573  19.155  0.00  0.00    +0.000 A 
ATOM     33  C   UNL     1       7.994   6.338  18.840  0.00  0.00    +0.000 A 
BRANCH  31  34
ATOM     34  C   UNL     1       8.963  10.030  18.687  0.00  0.00    +0.000 A 
ATOM     35  C   UNL     1       9.043  11.045  17.718  0.00  0.00    +0.000 A 
ATOM     36  C   UNL     1       9.728  12.238  17.963  0.00  0.00    +0.000 A 
ATOM     37  C   UNL     1      10.333  12.454  19.195  0.00  0.00    +0.000 A 
ATOM     38  C   UNL     1      10.247  11.480  20.184  0.00  0.00    +0.000 A 
ATOM     39  C   UNL     1       9.576  10.281  19.931  0.00  0.00    +0.000 A 
ENDBRANCH  31  34
ENDBRANCH  27  28
ENDBRANCH  26  27
ENDBRANCH  24  26
ENDBRANCH   4  24
TORSDOF 13
ENDMDL
MODEL 9
REMARK VINA RESULT:      -7.1      2.059      2.723
REMARK  Name = 
REMARK  14 active torsions:
REMARK  status: ('A' for Active; 'I' for Inactive)
REMARK    1  A    between atoms: C_1  and  C_2
REMARK    2  A    between atoms: C_2  and  N_3
REMARK    3  A    between atoms: C_2  and  C_4
REMARK    4  A    between atoms: C_2  and  C_10
REMARK    5  A    between atoms: C_4  and  O_5
REMARK    6  A    between atoms: O_5  and  P_6
REMARK    7  A    between atoms: P_6  and  O_8
REMARK    8  A    between atoms: P_6  and  O_9
REMARK    9  A    between atoms: N_12  and  C_13
REMARK   10  A    between atoms: C_16  and  C_17
REMARK   11  A    between atoms: C_17  and  C_19
REMARK   12  A    between atoms: C_19  and  C_20
REMARK   13  A    between atoms: C_20  and  C_21
REMARK   14  A    between atoms: C_24  and  C_25
REMARK                            x       y       z     vdW  Elec       q    Type
REMARK                         _______ _______ _______ _____ _____    ______ ____
ROOT
ATOM      1  C   UNL     1       2.195   7.794  18.834  0.00  0.00    +0.000 A 
ATOM      2  C   UNL     1       2.888   7.829  17.625  0.00  0.00    +0.000 A 
ATOM      3  C   UNL     1       3.548   6.701  17.147  0.00  0.00    +0.000 A 
ATOM      4  C   UNL     1       3.523   5.503  17.866  0.00  0.00    +0.000 A 
ATOM      5  C   UNL     1       2.858   5.461  19.095  0.00  0.00    +0.000 A 
ATOM      6  C   UNL     1       2.209   6.608  19.581  0.00  0.00    +0.000 A 
ENDROOT
BRANCH   1   9
ATOM      7  C   UNL     1       1.506  10.194  18.814  0.00  0.00    +0.000 C 
ATOM      8  O   UNL     1       2.204  10.577  17.876  0.00  0.00    +0.000 OA
ATOM      9  N   UNL     1       1.472   8.900  19.323  0.00  0.00    +0.000 N 
ATOM     10  H   UNL     1       0.765   8.699  20.017  0.00  0.00    +0.000 HD
BRANCH   7  12
ATOM     11  C   UNL     1       0.170  10.616  20.896  0.00  0.00    +0.000 C 
ATOM     12  C   UNL     1       0.625  11.222  19.559  0.00  0.00    +0.000 C 
BRANCH  12  13
ATOM     13  N   UNL     1       1.359  12.473  19.856  0.00  0.00    +0.000 NA
ATOM     14  H   UNL     1       2.260  12.511  19.393  0.00  0.00    +0.000 HD
ATOM     15  H   UNL     1       1.435  12.630  20.858  0.00  0.00    +0.000 HD
ENDBRANCH  12  13
BRANCH  12  16
ATOM     16  C   UNL     1      -0.579  11.446  18.619  0.00  0.00    +0.000 C 
BRANCH  16  17
ATOM     17  O   UNL     1      -1.110  10.220  18.135  0.00  0.00    +0.000 OA
BRANCH  17  18
ATOM     18  P   UNL     1      -2.385  10.435  16.985  0.00  0.00    +0.000 P 
ATOM     19  O   UNL     1      -3.374   9.650  17.840  0.00  0.00    +0.000 OA
BRANCH  18  20
ATOM     20  O   UNL     1      -2.550  11.986  17.477  0.00  0.00    +0.000 OA
ATOM     21  H   UNL     1      -3.053  12.450  16.783  0.00  0.00    +0.000 HD
ENDBRANCH  18  20
BRANCH  18  22
ATOM     22  O   UNL     1      -3.658  10.650  15.835  0.00  0.00    +0.000 OA
ATOM     23  H   UNL     1      -3.246  11.127  15.078  0.00  0.00    +0.000 HD
ENDBRANCH  18  22
ENDBRANCH  17  18
ENDBRANCH  16  17
ENDBRANCH  12  16
ENDBRANCH   7  12
ENDBRANCH   1   9
BRANCH   4  24
ATOM     24  C   UNL     1       4.229   4.333  17.277  0.00  0.00    +0.000 C 
ATOM     25  O   UNL     1       3.674   3.236  17.300  0.00  0.00    +0.000 OA
BRANCH  24  26
ATOM     26  C   UNL     1       5.625   4.528  16.720  0.00  0.00    +0.000 C 
BRANCH  26  27
ATOM     27  C   UNL     1       6.668   4.558  17.843  0.00  0.00    +0.000 C 
BRANCH  27  28
ATOM     28  C   UNL     1       7.270   5.937  18.001  0.00  0.00    +0.000 A 
ATOM     29  C   UNL     1       8.108   6.222  19.085  0.00  0.00    +0.000 A 
ATOM     30  C   UNL     1       8.614   7.514  19.265  0.00  0.00    +0.000 A 
ATOM     31  C   UNL     1       8.308   8.560  18.376  0.00  0.00    +0.000 A 
ATOM     32  C   UNL     1       7.485   8.245  17.282  0.00  0.00    +0.000 A 
ATOM     33  C   UNL     1       6.967   6.957  17.100  0.00  0.00    +0.000 A 
BRANCH  31  34
ATOM     34  C   UNL     1       8.808   9.941  18.616  0.00  0.00    +0.000 A 
ATOM     35  C   UNL     1       9.452  10.295  19.813  0.00  0.00    +0.000 A 
ATOM     36  C   UNL     1       9.856  11.608  20.067  0.00  0.00    +0.000 A 
ATOM     37  C   UNL     1       9.643  12.599  19.115  0.00  0.00    +0.000 A 
ATOM     38  C   UNL     1       9.035  12.274  17.908  0.00  0.00    +0.000 A 
ATOM     39  C   UNL     1       8.617  10.962  17.664  0.00  0.00    +0.000 A 
ENDBRANCH  31  34
ENDBRANCH  27  28
ENDBRANCH  26  27
ENDBRANCH  24  26
ENDBRANCH   4  24
TORSDOF 13
ENDMDL
