MODEL 1
REMARK VINA RESULT:      -8.1      0.000      0.000
REMARK  Name = 
REMARK  5 active torsions:
REMARK  status: ('A' for Active; 'I' for Inactive)
REMARK    1  A    between atoms: C_1  and  C_2
REMARK    2  A    between atoms: C_4  and  C_5
REMARK    3  A    between atoms: C_7  and  N_8
REMARK    4  A    between atoms: C_9  and  C_10
REMARK    5  A    between atoms: C_11  and  O_12
REMARK                            x       y       z     vdW  Elec       q    Type
REMARK                         _______ _______ _______ _____ _____    ______ ____
ROOT
ATOM      1  C   UNL     1       1.656   8.526  19.284  0.00  0.00    +0.000 A 
ATOM      2  C   UNL     1       1.479   9.695  18.637  0.00  0.00    +0.000 A 
ATOM      3  O   UNL     1       0.839  10.790  19.203  0.00  0.00    +0.000 OA
ATOM      4  C   UNL     1       0.335  10.686  20.470  0.00  0.00    +0.000 A 
ATOM      5  C   UNL     1      -0.351  11.788  20.980  0.00  0.00    +0.000 A 
ATOM      6  C   UNL     1      -0.897  11.731  22.265  0.00  0.00    +0.000 A 
ATOM      7  C   UNL     1      -0.743  10.583  23.046  0.00  0.00    +0.000 A 
ATOM      8  C   UNL     1      -0.051   9.486  22.539  0.00  0.00    +0.000 A 
ATOM      9  C   UNL     1       0.474   9.542  21.245  0.00  0.00    +0.000 A 
ATOM     10  C   UNL     1       1.169   8.388  20.671  0.00  0.00    +0.000 A 
ATOM     11  O   UNL     1       1.326   7.355  21.312  0.00  0.00    +0.000 OA
ENDROOT
BRANCH   1  13
ATOM     12  N   UNL     1       3.418   7.470  17.962  0.00  0.00    +0.000 NA
ATOM     13  C   UNL     1       2.318   7.364  18.642  0.00  0.00    +0.000 C 
BRANCH  12  20
ATOM     14  C   UNL     1       6.509   5.206  14.792  0.00  0.00    +0.000 C 
ATOM     15  C   UNL     1       5.447   5.136  15.849  0.00  0.00    +0.000 A 
ATOM     16  C   UNL     1       4.926   3.911  16.281  0.00  0.00    +0.000 A 
ATOM     17  C   UNL     1       3.927   3.870  17.262  0.00  0.00    +0.000 A 
ATOM     18  C   UNL     1       3.351   2.566  17.727  0.00  0.00    +0.000 C 
ATOM     19  C   UNL     1       3.457   5.071  17.810  0.00  0.00    +0.000 A 
ATOM     20  C   UNL     1       3.970   6.305  17.397  0.00  0.00    +0.000 A 
ATOM     21  C   UNL     1       4.955   6.323  16.402  0.00  0.00    +0.000 A 
ENDBRANCH  12  20
ENDBRANCH   1  13
BRANCH   2  22
ATOM     22  O   UNL     1       1.927   9.896  17.339  0.00  0.00    +0.000 OA
ATOM     23  H   UNL     1       1.922  10.863  17.159  0.00  0.00    +0.000 HD
ENDBRANCH   2  22
TORSDOF 3
ENDMDL
MODEL 2
REMARK VINA RESULT:      -7.9      0.145      1.845
REMARK  Name = 
REMARK  5 active torsions:
REMARK  status: ('A' for Active; 'I' for Inactive)
REMARK    1  A    between atoms: C_1  and  C_2
REMARK    2  A    between atoms: C_4  and  C_5
REMARK    3  A    between atoms: C_7  and  N_8
REMARK    4  A    between atoms: C_9  and  C_10
REMARK    5  A    between atoms: C_11  and  O_12
REMARK                            x       y       z     vdW  Elec       q    Type
REMARK                         _______ _______ _______ _____ _____    ______ ____
ROOT
ATOM      1  C   UNL     1       1.642   8.513  19.287  0.00  0.00    +0.000 A 
ATOM      2  C   UNL     1       1.520   9.671  18.609  0.00  0.00    +0.000 A 
ATOM      3  O   UNL     1       0.915  10.804  19.138  0.00  0.00    +0.000 OA
ATOM      4  C   UNL     1       0.389  10.751  20.400  0.00  0.00    +0.000 A 
ATOM      5  C   UNL     1      -0.261  11.891  20.873  0.00  0.00    +0.000 A 
ATOM      6  C   UNL     1      -0.826  11.887  22.151  0.00  0.00    +0.000 A 
ATOM      7  C   UNL     1      -0.728  10.754  22.962  0.00  0.00    +0.000 A 
ATOM      8  C   UNL     1      -0.071   9.618  22.492  0.00  0.00    +0.000 A 
ATOM      9  C   UNL     1       0.473   9.622  21.205  0.00  0.00    +0.000 A 
ATOM     10  C   UNL     1       1.131   8.428  20.670  0.00  0.00    +0.000 A 
ATOM     11  O   UNL     1       1.239   7.407  21.339  0.00  0.00    +0.000 OA
ENDROOT
BRANCH   1  13
ATOM     12  N   UNL     1       3.339   7.368  17.954  0.00  0.00    +0.000 NA
ATOM     13  C   UNL     1       2.268   7.311  18.684  0.00  0.00    +0.000 C 
BRANCH  12  20
ATOM     14  C   UNL     1       3.487   2.401  17.768  0.00  0.00    +0.000 C 
ATOM     15  C   UNL     1       3.994   3.737  17.311  0.00  0.00    +0.000 A 
ATOM     16  C   UNL     1       5.034   3.844  16.382  0.00  0.00    +0.000 A 
ATOM     17  C   UNL     1       5.498   5.102  15.976  0.00  0.00    +0.000 A 
ATOM     18  C   UNL     1       6.621   5.233  14.990  0.00  0.00    +0.000 C 
ATOM     19  C   UNL     1       4.904   6.254  16.508  0.00  0.00    +0.000 A 
ATOM     20  C   UNL     1       3.857   6.168  17.432  0.00  0.00    +0.000 A 
ATOM     21  C   UNL     1       3.423   4.900  17.837  0.00  0.00    +0.000 A 
ENDBRANCH  12  20
ENDBRANCH   1  13
BRANCH   2  22
ATOM     22  O   UNL     1       1.993   9.822  17.314  0.00  0.00    +0.000 OA
ATOM     23  H   UNL     1       1.393   9.331  16.708  0.00  0.00    +0.000 HD
ENDBRANCH   2  22
TORSDOF 3
ENDMDL
MODEL 3
REMARK VINA RESULT:      -7.9      5.448      6.412
REMARK  Name = 
REMARK  5 active torsions:
REMARK  status: ('A' for Active; 'I' for Inactive)
REMARK    1  A    between atoms: C_1  and  C_2
REMARK    2  A    between atoms: C_4  and  C_5
REMARK    3  A    between atoms: C_7  and  N_8
REMARK    4  A    between atoms: C_9  and  C_10
REMARK    5  A    between atoms: C_11  and  O_12
REMARK                            x       y       z     vdW  Elec       q    Type
REMARK                         _______ _______ _______ _____ _____    ______ ____
ROOT
ATOM      1  C   UNL     1       4.366   3.487  17.536  0.00  0.00    +0.000 A 
ATOM      2  C   UNL     1       5.093   3.721  18.648  0.00  0.00    +0.000 A 
ATOM      3  O   UNL     1       4.556   3.697  19.928  0.00  0.00    +0.000 OA
ATOM      4  C   UNL     1       3.220   3.450  20.087  0.00  0.00    +0.000 A 
ATOM      5  C   UNL     1       2.709   3.491  21.383  0.00  0.00    +0.000 A 
ATOM      6  C   UNL     1       1.348   3.256  21.600  0.00  0.00    +0.000 A 
ATOM      7  C   UNL     1       0.503   2.965  20.527  0.00  0.00    +0.000 A 
ATOM      8  C   UNL     1       1.016   2.915  19.233  0.00  0.00    +0.000 A 
ATOM      9  C   UNL     1       2.373   3.171  19.020  0.00  0.00    +0.000 A 
ATOM     10  C   UNL     1       2.931   3.168  17.666  0.00  0.00    +0.000 A 
ATOM     11  O   UNL     1       2.231   2.924  16.691  0.00  0.00    +0.000 OA
ENDROOT
BRANCH   1  13
ATOM     12  N   UNL     1       5.837   4.444  15.836  0.00  0.00    +0.000 NA
ATOM     13  C   UNL     1       4.963   3.549  16.180  0.00  0.00    +0.000 C 
BRANCH  12  20
ATOM     14  C   UNL     1       8.822   6.219  12.277  0.00  0.00    +0.000 C 
ATOM     15  C   UNL     1       7.770   5.251  12.732  0.00  0.00    +0.000 A 
ATOM     16  C   UNL     1       7.219   4.308  11.857  0.00  0.00    +0.000 A 
ATOM     17  C   UNL     1       6.231   3.420  12.301  0.00  0.00    +0.000 A 
ATOM     18  C   UNL     1       5.622   2.411  11.372  0.00  0.00    +0.000 C 
ATOM     19  C   UNL     1       5.803   3.483  13.633  0.00  0.00    +0.000 A 
ATOM     20  C   UNL     1       6.347   4.413  14.525  0.00  0.00    +0.000 A 
ATOM     21  C   UNL     1       7.320   5.303  14.055  0.00  0.00    +0.000 A 
ENDBRANCH  12  20
ENDBRANCH   1  13
BRANCH   2  22
ATOM     22  O   UNL     1       6.449   4.011  18.597  0.00  0.00    +0.000 OA
ATOM     23  H   UNL     1       6.671   4.579  19.368  0.00  0.00    +0.000 HD
ENDBRANCH   2  22
TORSDOF 3
ENDMDL
MODEL 4
REMARK VINA RESULT:      -7.7      5.458      6.601
REMARK  Name = 
REMARK  5 active torsions:
REMARK  status: ('A' for Active; 'I' for Inactive)
REMARK    1  A    between atoms: C_1  and  C_2
REMARK    2  A    between atoms: C_4  and  C_5
REMARK    3  A    between atoms: C_7  and  N_8
REMARK    4  A    between atoms: C_9  and  C_10
REMARK    5  A    between atoms: C_11  and  O_12
REMARK                            x       y       z     vdW  Elec       q    Type
REMARK                         _______ _______ _______ _____ _____    ______ ____
ROOT
ATOM      1  C   UNL     1       4.337   3.466  17.507  0.00  0.00    +0.000 A 
ATOM      2  C   UNL     1       5.095   3.726  18.591  0.00  0.00    +0.000 A 
ATOM      3  O   UNL     1       4.598   3.718  19.888  0.00  0.00    +0.000 OA
ATOM      4  C   UNL     1       3.270   3.462  20.091  0.00  0.00    +0.000 A 
ATOM      5  C   UNL     1       2.799   3.520  21.402  0.00  0.00    +0.000 A 
ATOM      6  C   UNL     1       1.448   3.277  21.665  0.00  0.00    +0.000 A 
ATOM      7  C   UNL     1       0.573   2.960  20.625  0.00  0.00    +0.000 A 
ATOM      8  C   UNL     1       1.047   2.893  19.315  0.00  0.00    +0.000 A 
ATOM      9  C   UNL     1       2.394   3.158  19.057  0.00  0.00    +0.000 A 
ATOM     10  C   UNL     1       2.909   3.136  17.686  0.00  0.00    +0.000 A 
ATOM     11  O   UNL     1       2.182   2.869  16.737  0.00  0.00    +0.000 OA
ENDROOT
BRANCH   1  13
ATOM     12  N   UNL     1       5.777   4.381  15.758  0.00  0.00    +0.000 NA
ATOM     13  C   UNL     1       4.891   3.511  16.132  0.00  0.00    +0.000 C 
BRANCH  12  20
ATOM     14  C   UNL     1       5.805   2.354  11.218  0.00  0.00    +0.000 C 
ATOM     15  C   UNL     1       6.319   3.371  12.193  0.00  0.00    +0.000 A 
ATOM     16  C   UNL     1       7.317   4.285  11.836  0.00  0.00    +0.000 A 
ATOM     17  C   UNL     1       7.790   5.219  12.766  0.00  0.00    +0.000 A 
ATOM     18  C   UNL     1       8.868   6.198  12.403  0.00  0.00    +0.000 C 
ATOM     19  C   UNL     1       7.247   5.234  14.058  0.00  0.00    +0.000 A 
ATOM     20  C   UNL     1       6.243   4.334  14.431  0.00  0.00    +0.000 A 
ATOM     21  C   UNL     1       5.800   3.396  13.491  0.00  0.00    +0.000 A 
ENDBRANCH  12  20
ENDBRANCH   1  13
BRANCH   2  22
ATOM     22  O   UNL     1       6.446   4.026  18.493  0.00  0.00    +0.000 OA
ATOM     23  H   UNL     1       6.866   3.842  19.363  0.00  0.00    +0.000 HD
ENDBRANCH   2  22
TORSDOF 3
ENDMDL
MODEL 5
REMARK VINA RESULT:      -7.5      4.328      5.948
REMARK  Name = 
REMARK  5 active torsions:
REMARK  status: ('A' for Active; 'I' for Inactive)
REMARK    1  A    between atoms: C_1  and  C_2
REMARK    2  A    between atoms: C_4  and  C_5
REMARK    3  A    between atoms: C_7  and  N_8
REMARK    4  A    between atoms: C_9  and  C_10
REMARK    5  A    between atoms: C_11  and  O_12
REMARK                            x       y       z     vdW  Elec       q    Type
REMARK                         _______ _______ _______ _____ _____    ______ ____
ROOT
ATOM      1  C   UNL     1       4.047   4.437  17.419  0.00  0.00    +0.000 A 
ATOM      2  C   UNL     1       3.985   5.577  18.136  0.00  0.00    +0.000 A 
ATOM      3  O   UNL     1       3.411   5.653  19.399  0.00  0.00    +0.000 OA
ATOM      4  C   UNL     1       2.854   4.530  19.947  0.00  0.00    +0.000 A 
ATOM      5  C   UNL     1       2.238   4.661  21.191  0.00  0.00    +0.000 A 
ATOM      6  C   UNL     1       1.644   3.548  21.791  0.00  0.00    +0.000 A 
ATOM      7  C   UNL     1       1.680   2.303  21.159  0.00  0.00    +0.000 A 
ATOM      8  C   UNL     1       2.303   2.171  19.920  0.00  0.00    +0.000 A 
ATOM      9  C   UNL     1       2.877   3.293  19.316  0.00  0.00    +0.000 A 
ATOM     10  C   UNL     1       3.501   3.192  17.995  0.00  0.00    +0.000 A 
ATOM     11  O   UNL     1       3.554   2.124  17.396  0.00  0.00    +0.000 OA
ENDROOT
BRANCH   1  13
ATOM     12  N   UNL     1       5.920   4.427  15.851  0.00  0.00    +0.000 NA
ATOM     13  C   UNL     1       4.640   4.394  16.061  0.00  0.00    +0.000 C 
BRANCH  12  20
ATOM     14  C   UNL     1       8.730   6.183  12.143  0.00  0.00    +0.000 C 
ATOM     15  C   UNL     1       7.719   5.202  12.659  0.00  0.00    +0.000 A 
ATOM     16  C   UNL     1       7.158   4.227  11.827  0.00  0.00    +0.000 A 
ATOM     17  C   UNL     1       6.207   3.328  12.328  0.00  0.00    +0.000 A 
ATOM     18  C   UNL     1       5.588   2.284  11.446  0.00  0.00    +0.000 C 
ATOM     19  C   UNL     1       5.827   3.413  13.674  0.00  0.00    +0.000 A 
ATOM     20  C   UNL     1       6.382   4.376  14.523  0.00  0.00    +0.000 A 
ATOM     21  C   UNL     1       7.316   5.276  13.997  0.00  0.00    +0.000 A 
ENDBRANCH  12  20
ENDBRANCH   1  13
BRANCH   2  22
ATOM     22  O   UNL     1       4.492   6.777  17.661  0.00  0.00    +0.000 OA
ATOM     23  H   UNL     1       3.739   7.329  17.351  0.00  0.00    +0.000 HD
ENDBRANCH   2  22
TORSDOF 3
ENDMDL
MODEL 6
REMARK VINA RESULT:      -7.4      4.388      6.151
REMARK  Name = 
REMARK  5 active torsions:
REMARK  status: ('A' for Active; 'I' for Inactive)
REMARK    1  A    between atoms: C_1  and  C_2
REMARK    2  A    between atoms: C_4  and  C_5
REMARK    3  A    between atoms: C_7  and  N_8
REMARK    4  A    between atoms: C_9  and  C_10
REMARK    5  A    between atoms: C_11  and  O_12
REMARK                            x       y       z     vdW  Elec       q    Type
REMARK                         _______ _______ _______ _____ _____    ______ ____
ROOT
ATOM      1  C   UNL     1       3.998   4.344  17.445  0.00  0.00    +0.000 A 
ATOM      2  C   UNL     1       4.053   5.468  18.187  0.00  0.00    +0.000 A 
ATOM      3  O   UNL     1       3.517   5.564  19.465  0.00  0.00    +0.000 OA
ATOM      4  C   UNL     1       2.876   4.482  20.003  0.00  0.00    +0.000 A 
ATOM      5  C   UNL     1       2.303   4.638  21.264  0.00  0.00    +0.000 A 
ATOM      6  C   UNL     1       1.626   3.567  21.856  0.00  0.00    +0.000 A 
ATOM      7  C   UNL     1       1.538   2.339  21.197  0.00  0.00    +0.000 A 
ATOM      8  C   UNL     1       2.119   2.182  19.940  0.00  0.00    +0.000 A 
ATOM      9  C   UNL     1       2.775   3.263  19.346  0.00  0.00    +0.000 A 
ATOM     10  C   UNL     1       3.358   3.138  18.008  0.00  0.00    +0.000 A 
ATOM     11  O   UNL     1       3.302   2.084  17.385  0.00  0.00    +0.000 OA
ENDROOT
BRANCH   1  13
ATOM     12  N   UNL     1       5.820   4.406  15.819  0.00  0.00    +0.000 NA
ATOM     13  C   UNL     1       4.553   4.281  16.072  0.00  0.00    +0.000 C 
BRANCH  12  20
ATOM     14  C   UNL     1       5.710   2.268  11.331  0.00  0.00    +0.000 C 
ATOM     15  C   UNL     1       6.254   3.308  12.265  0.00  0.00    +0.000 A 
ATOM     16  C   UNL     1       7.243   4.209  11.857  0.00  0.00    +0.000 A 
ATOM     17  C   UNL     1       7.745   5.165  12.749  0.00  0.00    +0.000 A 
ATOM     18  C   UNL     1       8.813   6.131  12.330  0.00  0.00    +0.000 C 
ATOM     19  C   UNL     1       7.241   5.213  14.056  0.00  0.00    +0.000 A 
ATOM     20  C   UNL     1       6.246   4.326  14.481  0.00  0.00    +0.000 A 
ATOM     21  C   UNL     1       5.773   3.366  13.578  0.00  0.00    +0.000 A 
ENDBRANCH  12  20
ENDBRANCH   1  13
BRANCH   2  22
ATOM     22  O   UNL     1       4.654   6.630  17.725  0.00  0.00    +0.000 OA
ATOM     23  H   UNL     1       4.655   7.287  18.457  0.00  0.00    +0.000 HD
ENDBRANCH   2  22
TORSDOF 3
ENDMDL
MODEL 7
REMARK VINA RESULT:      -7.2      1.420      2.552
REMARK  Name = 
REMARK  5 active torsions:
REMARK  status: ('A' for Active; 'I' for Inactive)
REMARK    1  A    between atoms: C_1  and  C_2
REMARK    2  A    between atoms: C_4  and  C_5
REMARK    3  A    between atoms: C_7  and  N_8
REMARK    4  A    between atoms: C_9  and  C_10
REMARK    5  A    between atoms: C_11  and  O_12
REMARK                            x       y       z     vdW  Elec       q    Type
REMARK                         _______ _______ _______ _____ _____    ______ ____
ROOT
ATOM      1  C   UNL     1       0.936   9.358  20.063  0.00  0.00    +0.000 A 
ATOM      2  C   UNL     1       1.126   9.458  21.394  0.00  0.00    +0.000 A 
ATOM      3  O   UNL     1       0.446  10.365  22.196  0.00  0.00    +0.000 OA
ATOM      4  C   UNL     1      -0.448  11.224  21.619  0.00  0.00    +0.000 A 
ATOM      5  C   UNL     1      -1.068  12.158  22.449  0.00  0.00    +0.000 A 
ATOM      6  C   UNL     1      -1.982  13.067  21.909  0.00  0.00    +0.000 A 
ATOM      7  C   UNL     1      -2.289  13.034  20.548  0.00  0.00    +0.000 A 
ATOM      8  C   UNL     1      -1.675  12.095  19.720  0.00  0.00    +0.000 A 
ATOM      9  C   UNL     1      -0.747  11.203  20.262  0.00  0.00    +0.000 A 
ATOM     10  C   UNL     1      -0.056  10.235  19.409  0.00  0.00    +0.000 A 
ATOM     11  O   UNL     1      -0.285  10.168  18.207  0.00  0.00    +0.000 OA
ENDROOT
BRANCH   1  13
ATOM     12  N   UNL     1       1.928   7.175  19.596  0.00  0.00    +0.000 NA
ATOM     13  C   UNL     1       1.700   8.399  19.229  0.00  0.00    +0.000 C 
BRANCH  12  20
ATOM     14  C   UNL     1       5.549   6.461  16.263  0.00  0.00    +0.000 C 
ATOM     15  C   UNL     1       4.403   5.933  17.074  0.00  0.00    +0.000 A 
ATOM     16  C   UNL     1       3.983   4.603  16.965  0.00  0.00    +0.000 A 
ATOM     17  C   UNL     1       2.904   4.134  17.724  0.00  0.00    +0.000 A 
ATOM     18  C   UNL     1       2.435   2.713  17.610  0.00  0.00    +0.000 C 
ATOM     19  C   UNL     1       2.250   5.012  18.599  0.00  0.00    +0.000 A 
ATOM     20  C   UNL     1       2.659   6.343  18.728  0.00  0.00    +0.000 A 
ATOM     21  C   UNL     1       3.729   6.795  17.946  0.00  0.00    +0.000 A 
ENDBRANCH  12  20
ENDBRANCH   1  13
BRANCH   2  22
ATOM     22  O   UNL     1       2.031   8.654  22.073  0.00  0.00    +0.000 OA
ATOM     23  H   UNL     1       1.918   7.729  21.757  0.00  0.00    +0.000 HD
ENDBRANCH   2  22
TORSDOF 3
ENDMDL
MODEL 8
REMARK VINA RESULT:      -7.1      1.596      3.229
REMARK  Name = 
REMARK  5 active torsions:
REMARK  status: ('A' for Active; 'I' for Inactive)
REMARK    1  A    between atoms: C_1  and  C_2
REMARK    2  A    between atoms: C_4  and  C_5
REMARK    3  A    between atoms: C_7  and  N_8
REMARK    4  A    between atoms: C_9  and  C_10
REMARK    5  A    between atoms: C_11  and  O_12
REMARK                            x       y       z     vdW  Elec       q    Type
REMARK                         _______ _______ _______ _____ _____    ______ ____
ROOT
ATOM      1  C   UNL     1       0.920   9.355  20.423  0.00  0.00    +0.000 A 
ATOM      2  C   UNL     1       1.050   9.556  21.749  0.00  0.00    +0.000 A 
ATOM      3  O   UNL     1       0.299  10.486  22.456  0.00  0.00    +0.000 OA
ATOM      4  C   UNL     1      -0.605  11.262  21.784  0.00  0.00    +0.000 A 
ATOM      5  C   UNL     1      -1.298  12.223  22.520  0.00  0.00    +0.000 A 
ATOM      6  C   UNL     1      -2.225  13.051  21.880  0.00  0.00    +0.000 A 
ATOM      7  C   UNL     1      -2.473  12.908  20.513  0.00  0.00    +0.000 A 
ATOM      8  C   UNL     1      -1.786  11.941  19.781  0.00  0.00    +0.000 A 
ATOM      9  C   UNL     1      -0.845  11.132  20.422  0.00  0.00    +0.000 A 
ATOM     10  C   UNL     1      -0.079  10.138  19.668  0.00  0.00    +0.000 A 
ATOM     11  O   UNL     1      -0.254   9.977  18.466  0.00  0.00    +0.000 OA
ENDROOT
BRANCH   1  13
ATOM     12  N   UNL     1       1.979   7.173  20.128  0.00  0.00    +0.000 NA
ATOM     13  C   UNL     1       1.758   8.374  19.691  0.00  0.00    +0.000 C 
BRANCH  12  20
ATOM     14  C   UNL     1       4.148   2.769  19.333  0.00  0.00    +0.000 C 
ATOM     15  C   UNL     1       3.893   4.189  18.921  0.00  0.00    +0.000 A 
ATOM     16  C   UNL     1       4.484   4.734  17.775  0.00  0.00    +0.000 A 
ATOM     17  C   UNL     1       4.240   6.065  17.415  0.00  0.00    +0.000 A 
ATOM     18  C   UNL     1       4.876   6.667  16.197  0.00  0.00    +0.000 C 
ATOM     19  C   UNL     1       3.392   6.845  18.211  0.00  0.00    +0.000 A 
ATOM     20  C   UNL     1       2.784   6.317  19.355  0.00  0.00    +0.000 A 
ATOM     21  C   UNL     1       3.058   4.989  19.707  0.00  0.00    +0.000 A 
ENDBRANCH  12  20
ENDBRANCH   1  13
BRANCH   2  22
ATOM     22  O   UNL     1       1.957   8.843  22.519  0.00  0.00    +0.000 OA
ATOM     23  H   UNL     1       1.605   8.787  23.436  0.00  0.00    +0.000 HD
ENDBRANCH   2  22
TORSDOF 3
ENDMDL
MODEL 9
REMARK VINA RESULT:      -7.0      1.070      2.363
REMARK  Name = 
REMARK  5 active torsions:
REMARK  status: ('A' for Active; 'I' for Inactive)
REMARK    1  A    between atoms: C_1  and  C_2
REMARK    2  A    between atoms: C_4  and  C_5
REMARK    3  A    between atoms: C_7  and  N_8
REMARK    4  A    between atoms: C_9  and  C_10
REMARK    5  A    between atoms: C_11  and  O_12
REMARK                            x       y       z     vdW  Elec       q    Type
REMARK                         _______ _______ _______ _____ _____    ______ ____
ROOT
ATOM      1  C   UNL     1       1.742   8.626  19.214  0.00  0.00    +0.000 A 
ATOM      2  C   UNL     1       1.356   8.472  20.496  0.00  0.00    +0.000 A 
ATOM      3  O   UNL     1       0.782   9.489  21.247  0.00  0.00    +0.000 OA
ATOM      4  C   UNL     1       0.615  10.724  20.680  0.00  0.00    +0.000 A 
ATOM      5  C   UNL     1       0.089  11.733  21.485  0.00  0.00    +0.000 A 
ATOM      6  C   UNL     1      -0.091  13.016  20.959  0.00  0.00    +0.000 A 
ATOM      7  C   UNL     1       0.238  13.285  19.629  0.00  0.00    +0.000 A 
ATOM      8  C   UNL     1       0.756  12.273  18.824  0.00  0.00    +0.000 A 
ATOM      9  C   UNL     1       0.953  10.999  19.361  0.00  0.00    +0.000 A 
ATOM     10  C   UNL     1       1.536   9.929  18.549  0.00  0.00    +0.000 A 
ATOM     11  O   UNL     1       1.847  10.115  17.379  0.00  0.00    +0.000 OA
ENDROOT
BRANCH   1  13
ATOM     12  N   UNL     1       3.156   6.645  18.997  0.00  0.00    +0.000 NA
ATOM     13  C   UNL     1       2.380   7.528  18.448  0.00  0.00    +0.000 C 
BRANCH  12  20
ATOM     14  C   UNL     1       5.873   5.202  15.091  0.00  0.00    +0.000 C 
ATOM     15  C   UNL     1       5.007   4.868  16.269  0.00  0.00    +0.000 A 
ATOM     16  C   UNL     1       4.673   3.545  16.578  0.00  0.00    +0.000 A 
ATOM     17  C   UNL     1       3.855   3.258  17.678  0.00  0.00    +0.000 A 
ATOM     18  C   UNL     1       3.478   1.845  18.015  0.00  0.00    +0.000 C 
ATOM     19  C   UNL     1       3.377   4.311  18.469  0.00  0.00    +0.000 A 
ATOM     20  C   UNL     1       3.707   5.639  18.182  0.00  0.00    +0.000 A 
ATOM     21  C   UNL     1       4.511   5.905  17.067  0.00  0.00    +0.000 A 
ENDBRANCH  12  20
ENDBRANCH   1  13
BRANCH   2  22
ATOM     22  O   UNL     1       1.506   7.270  21.173  0.00  0.00    +0.000 OA
ATOM     23  H   UNL     1       0.709   7.131  21.732  0.00  0.00    +0.000 HD
ENDBRANCH   2  22
TORSDOF 3
ENDMDL
