MODEL 1
REMARK VINA RESULT:      -7.3      0.000      0.000
REMARK  Name = 
REMARK  5 active torsions:
REMARK  status: ('A' for Active; 'I' for Inactive)
REMARK    1  A    between atoms: C_1  and  C_2
REMARK    2  A    between atoms: C_2  and  N_3
REMARK    3  A    between atoms: C_2  and  C_10
REMARK    4  A    between atoms: C_4  and  C_6
REMARK    5  A    between atoms: C_16  and  C_17
REMARK                            x       y       z     vdW  Elec       q    Type
REMARK                         _______ _______ _______ _____ _____    ______ ____
ROOT
ATOM      1  C   UNL     1       6.015   5.466  17.937  0.00  0.00    +0.000 C 
ATOM      2  O   UNL     1       5.017   6.186  17.889  0.00  0.00    +0.000 OA
ATOM      3  N   UNL     1       6.080   4.219  18.524  0.00  0.00    +0.000 N 
ATOM      4  C   UNL     1       5.019   3.593  19.140  0.00  0.00    +0.000 A 
ATOM      5  N   UNL     1       5.159   2.612  20.007  0.00  0.00    +0.000 NA
ATOM      6  N   UNL     1       3.940   2.217  20.541  0.00  0.00    +0.000 NA
ATOM      7  C   UNL     1       2.936   2.864  19.990  0.00  0.00    +0.000 A 
ATOM      8  S   UNL     1       3.395   3.981  18.783  0.00  0.00    +0.000 S 
ATOM      9  H   UNL     1       6.983   3.795  18.705  0.00  0.00    +0.000 HD
ENDROOT
BRANCH   7  10
ATOM     10  C   UNL     1       1.475   2.654  20.389  0.00  0.00    +0.000 C 
ATOM     11  C   UNL     1       0.544   3.850  20.402  0.00  0.00    +0.000 C 
ATOM     12  C   UNL     1       0.407   2.825  19.330  0.00  0.00    +0.000 C 
ENDBRANCH   7  10
BRANCH   1  14
ATOM     13  C   UNL     1       7.688   7.320  17.684  0.00  0.00    +0.000 C 
ATOM     14  C   UNL     1       7.319   5.908  17.240  0.00  0.00    +0.000 C 
BRANCH  14  15
ATOM     15  N   UNL     1       7.124   5.887  15.790  0.00  0.00    +0.000 N 
ATOM     16  C   UNL     1       6.739   4.743  15.129  0.00  0.00    +0.000 C 
ATOM     17  O   UNL     1       6.549   3.692  15.755  0.00  0.00    +0.000 OA
ATOM     18  H   UNL     1       7.150   6.768  15.290  0.00  0.00    +0.000 HD
BRANCH  16  19
ATOM     19  C   UNL     1       6.600   4.897  13.583  0.00  0.00    +0.000 C 
ATOM     20  C   UNL     1       7.926   5.086  12.791  0.00  0.00    +0.000 C 
ATOM     21  C   UNL     1       7.311   4.233  11.668  0.00  0.00    +0.000 C 
ATOM     22  C   UNL     1       6.386   3.614  12.734  0.00  0.00    +0.000 C 
ENDBRANCH  16  19
ENDBRANCH  14  15
ENDBRANCH   1  14
TORSDOF 4
ENDMDL
MODEL 2
REMARK VINA RESULT:      -7.3      2.130      7.253
REMARK  Name = 
REMARK  5 active torsions:
REMARK  status: ('A' for Active; 'I' for Inactive)
REMARK    1  A    between atoms: C_1  and  C_2
REMARK    2  A    between atoms: C_2  and  N_3
REMARK    3  A    between atoms: C_2  and  C_10
REMARK    4  A    between atoms: C_4  and  C_6
REMARK    5  A    between atoms: C_16  and  C_17
REMARK                            x       y       z     vdW  Elec       q    Type
REMARK                         _______ _______ _______ _____ _____    ______ ____
ROOT
ATOM      1  C   UNL     1       5.394   4.796  17.148  0.00  0.00    +0.000 C 
ATOM      2  O   UNL     1       4.783   3.763  16.872  0.00  0.00    +0.000 OA
ATOM      3  N   UNL     1       6.248   5.475  16.304  0.00  0.00    +0.000 N 
ATOM      4  C   UNL     1       6.533   5.091  15.013  0.00  0.00    +0.000 A 
ATOM      5  N   UNL     1       7.599   5.497  14.353  0.00  0.00    +0.000 NA
ATOM      6  N   UNL     1       7.693   4.898  13.106  0.00  0.00    +0.000 NA
ATOM      7  C   UNL     1       6.651   4.134  12.853  0.00  0.00    +0.000 A 
ATOM      8  S   UNL     1       5.486   4.099  14.100  0.00  0.00    +0.000 S 
ATOM      9  H   UNL     1       6.866   6.185  16.680  0.00  0.00    +0.000 HD
ENDROOT
BRANCH   7  10
ATOM     10  C   UNL     1       6.486   3.330  11.564  0.00  0.00    +0.000 C 
ATOM     11  C   UNL     1       6.992   1.902  11.524  0.00  0.00    +0.000 C 
ATOM     12  C   UNL     1       5.526   2.160  11.563  0.00  0.00    +0.000 C 
ENDBRANCH   7  10
BRANCH   1  14
ATOM     13  C   UNL     1       6.416   5.295  19.386  0.00  0.00    +0.000 C 
ATOM     14  C   UNL     1       5.177   5.478  18.516  0.00  0.00    +0.000 C 
BRANCH  14  15
ATOM     15  N   UNL     1       4.020   4.876  19.179  0.00  0.00    +0.000 N 
ATOM     16  C   UNL     1       2.907   5.617  19.505  0.00  0.00    +0.000 C 
ATOM     17  O   UNL     1       2.861   6.826  19.243  0.00  0.00    +0.000 OA
ATOM     18  H   UNL     1       3.996   3.868  19.278  0.00  0.00    +0.000 HD
BRANCH  16  19
ATOM     19  C   UNL     1       1.778   4.818  20.226  0.00  0.00    +0.000 C 
ATOM     20  C   UNL     1       1.317   3.505  19.532  0.00  0.00    +0.000 C 
ATOM     21  C   UNL     1       1.150   2.889  20.932  0.00  0.00    +0.000 C 
ATOM     22  C   UNL     1       2.168   3.929  21.439  0.00  0.00    +0.000 C 
ENDBRANCH  16  19
ENDBRANCH  14  15
ENDBRANCH   1  14
TORSDOF 4
ENDMDL
MODEL 3
REMARK VINA RESULT:      -7.1      1.695      1.863
REMARK  Name = 
REMARK  5 active torsions:
REMARK  status: ('A' for Active; 'I' for Inactive)
REMARK    1  A    between atoms: C_1  and  C_2
REMARK    2  A    between atoms: C_2  and  N_3
REMARK    3  A    between atoms: C_2  and  C_10
REMARK    4  A    between atoms: C_4  and  C_6
REMARK    5  A    between atoms: C_16  and  C_17
REMARK                            x       y       z     vdW  Elec       q    Type
REMARK                         _______ _______ _______ _____ _____    ______ ____
ROOT
ATOM      1  C   UNL     1       6.323   5.570  18.111  0.00  0.00    +0.000 C 
ATOM      2  O   UNL     1       6.574   5.013  19.181  0.00  0.00    +0.000 OA
ATOM      3  N   UNL     1       5.066   5.747  17.572  0.00  0.00    +0.000 N 
ATOM      4  C   UNL     1       3.898   5.327  18.168  0.00  0.00    +0.000 A 
ATOM      5  N   UNL     1       2.770   5.153  17.511  0.00  0.00    +0.000 NA
ATOM      6  N   UNL     1       1.769   4.645  18.327  0.00  0.00    +0.000 NA
ATOM      7  C   UNL     1       2.169   4.539  19.577  0.00  0.00    +0.000 A 
ATOM      8  S   UNL     1       3.773   5.057  19.849  0.00  0.00    +0.000 S 
ATOM      9  H   UNL     1       4.971   6.020  16.600  0.00  0.00    +0.000 HD
ENDROOT
BRANCH   7  10
ATOM     10  C   UNL     1       1.291   3.993  20.701  0.00  0.00    +0.000 C 
ATOM     11  C   UNL     1       1.205   2.492  20.896  0.00  0.00    +0.000 C 
ATOM     12  C   UNL     1       1.962   3.318  21.878  0.00  0.00    +0.000 C 
ENDBRANCH   7  10
BRANCH   1  14
ATOM     13  C   UNL     1       7.611   7.678  17.664  0.00  0.00    +0.000 C 
ATOM     14  C   UNL     1       7.464   6.206  17.289  0.00  0.00    +0.000 C 
BRANCH  14  15
ATOM     15  N   UNL     1       7.154   6.094  15.864  0.00  0.00    +0.000 N 
ATOM     16  C   UNL     1       6.953   4.872  15.262  0.00  0.00    +0.000 C 
ATOM     17  O   UNL     1       7.033   3.828  15.922  0.00  0.00    +0.000 OA
ATOM     18  H   UNL     1       6.959   6.944  15.347  0.00  0.00    +0.000 HD
BRANCH  16  19
ATOM     19  C   UNL     1       6.655   4.939  13.733  0.00  0.00    +0.000 C 
ATOM     20  C   UNL     1       7.894   4.992  12.794  0.00  0.00    +0.000 C 
ATOM     21  C   UNL     1       7.111   4.113  11.804  0.00  0.00    +0.000 C 
ATOM     22  C   UNL     1       6.274   3.623  13.001  0.00  0.00    +0.000 C 
ENDBRANCH  16  19
ENDBRANCH  14  15
ENDBRANCH   1  14
TORSDOF 4
ENDMDL
MODEL 4
REMARK VINA RESULT:      -6.9      2.014      7.390
REMARK  Name = 
REMARK  5 active torsions:
REMARK  status: ('A' for Active; 'I' for Inactive)
REMARK    1  A    between atoms: C_1  and  C_2
REMARK    2  A    between atoms: C_2  and  N_3
REMARK    3  A    between atoms: C_2  and  C_10
REMARK    4  A    between atoms: C_4  and  C_6
REMARK    5  A    between atoms: C_16  and  C_17
REMARK                            x       y       z     vdW  Elec       q    Type
REMARK                         _______ _______ _______ _____ _____    ______ ____
ROOT
ATOM      1  C   UNL     1       5.493   4.483  17.045  0.00  0.00    +0.000 C 
ATOM      2  O   UNL     1       5.001   3.405  16.709  0.00  0.00    +0.000 OA
ATOM      3  N   UNL     1       6.282   5.290  16.250  0.00  0.00    +0.000 N 
ATOM      4  C   UNL     1       6.625   5.002  14.948  0.00  0.00    +0.000 A 
ATOM      5  N   UNL     1       7.650   5.550  14.330  0.00  0.00    +0.000 NA
ATOM      6  N   UNL     1       7.825   5.026  13.057  0.00  0.00    +0.000 NA
ATOM      7  C   UNL     1       6.876   4.169  12.749  0.00  0.00    +0.000 A 
ATOM      8  S   UNL     1       5.703   3.949  13.969  0.00  0.00    +0.000 S 
ATOM      9  H   UNL     1       6.814   6.042  16.672  0.00  0.00    +0.000 HD
ENDROOT
BRANCH   7  10
ATOM     10  C   UNL     1       6.815   3.416  11.420  0.00  0.00    +0.000 C 
ATOM     11  C   UNL     1       7.427   2.032  11.338  0.00  0.00    +0.000 C 
ATOM     12  C   UNL     1       5.945   2.181  11.331  0.00  0.00    +0.000 C 
ENDBRANCH   7  10
BRANCH   1  14
ATOM     13  C   UNL     1       6.483   5.260  19.218  0.00  0.00    +0.000 C 
ATOM     14  C   UNL     1       5.185   5.070  18.439  0.00  0.00    +0.000 C 
BRANCH  14  15
ATOM     15  N   UNL     1       4.307   4.155  19.166  0.00  0.00    +0.000 N 
ATOM     16  C   UNL     1       2.940   4.182  19.006  0.00  0.00    +0.000 C 
ATOM     17  O   UNL     1       2.417   4.996  18.233  0.00  0.00    +0.000 OA
ATOM     18  H   UNL     1       4.732   3.404  19.698  0.00  0.00    +0.000 HD
BRANCH  16  19
ATOM     19  C   UNL     1       2.158   3.151  19.876  0.00  0.00    +0.000 C 
ATOM     20  C   UNL     1       2.799   2.785  21.246  0.00  0.00    +0.000 C 
ATOM     21  C   UNL     1       1.376   2.715  21.828  0.00  0.00    +0.000 C 
ATOM     22  C   UNL     1       0.934   3.654  20.689  0.00  0.00    +0.000 C 
ENDBRANCH  16  19
ENDBRANCH  14  15
ENDBRANCH   1  14
TORSDOF 4
ENDMDL
MODEL 5
REMARK VINA RESULT:      -6.8      0.776      1.084
REMARK  Name = 
REMARK  5 active torsions:
REMARK  status: ('A' for Active; 'I' for Inactive)
REMARK    1  A    between atoms: C_1  and  C_2
REMARK    2  A    between atoms: C_2  and  N_3
REMARK    3  A    between atoms: C_2  and  C_10
REMARK    4  A    between atoms: C_4  and  C_6
REMARK    5  A    between atoms: C_16  and  C_17
REMARK                            x       y       z     vdW  Elec       q    Type
REMARK                         _______ _______ _______ _____ _____    ______ ____
ROOT
ATOM      1  C   UNL     1       6.057   5.540  18.110  0.00  0.00    +0.000 C 
ATOM      2  O   UNL     1       5.075   6.279  18.194  0.00  0.00    +0.000 OA
ATOM      3  N   UNL     1       6.106   4.220  18.507  0.00  0.00    +0.000 N 
ATOM      4  C   UNL     1       5.045   3.531  19.052  0.00  0.00    +0.000 A 
ATOM      5  N   UNL     1       5.181   2.431  19.761  0.00  0.00    +0.000 NA
ATOM      6  N   UNL     1       3.967   1.986  20.263  0.00  0.00    +0.000 NA
ATOM      7  C   UNL     1       2.965   2.726  19.839  0.00  0.00    +0.000 A 
ATOM      8  S   UNL     1       3.422   3.999  18.798  0.00  0.00    +0.000 S 
ATOM      9  H   UNL     1       7.003   3.757  18.600  0.00  0.00    +0.000 HD
ENDROOT
BRANCH   7  10
ATOM     10  C   UNL     1       1.510   2.489  20.241  0.00  0.00    +0.000 C 
ATOM     11  C   UNL     1       1.066   2.878  21.637  0.00  0.00    +0.000 C 
ATOM     12  C   UNL     1       0.620   3.692  20.471  0.00  0.00    +0.000 C 
ENDBRANCH   7  10
BRANCH   1  14
ATOM     13  C   UNL     1       7.199   7.529  17.088  0.00  0.00    +0.000 C 
ATOM     14  C   UNL     1       7.354   6.055  17.451  0.00  0.00    +0.000 C 
BRANCH  14  15
ATOM     15  N   UNL     1       7.624   5.279  16.242  0.00  0.00    +0.000 N 
ATOM     16  C   UNL     1       6.765   5.292  15.166  0.00  0.00    +0.000 C 
ATOM     17  O   UNL     1       5.730   5.970  15.201  0.00  0.00    +0.000 OA
ATOM     18  H   UNL     1       8.528   4.827  16.153  0.00  0.00    +0.000 HD
BRANCH  16  19
ATOM     19  C   UNL     1       7.200   4.390  13.971  0.00  0.00    +0.000 C 
ATOM     20  C   UNL     1       6.049   3.757  13.137  0.00  0.00    +0.000 C 
ATOM     21  C   UNL     1       6.921   3.961  11.885  0.00  0.00    +0.000 C 
ATOM     22  C   UNL     1       7.648   5.081  12.654  0.00  0.00    +0.000 C 
ENDBRANCH  16  19
ENDBRANCH  14  15
ENDBRANCH   1  14
TORSDOF 4
ENDMDL
MODEL 6
REMARK VINA RESULT:      -6.7      3.829      7.516
REMARK  Name = 
REMARK  5 active torsions:
REMARK  status: ('A' for Active; 'I' for Inactive)
REMARK    1  A    between atoms: C_1  and  C_2
REMARK    2  A    between atoms: C_2  and  N_3
REMARK    3  A    between atoms: C_2  and  C_10
REMARK    4  A    between atoms: C_4  and  C_6
REMARK    5  A    between atoms: C_16  and  C_17
REMARK                            x       y       z     vdW  Elec       q    Type
REMARK                         _______ _______ _______ _____ _____    ______ ____
ROOT
ATOM      1  C   UNL     1       3.530   5.500  18.952  0.00  0.00    +0.000 C 
ATOM      2  O   UNL     1       3.746   4.289  19.016  0.00  0.00    +0.000 OA
ATOM      3  N   UNL     1       3.939   6.337  17.934  0.00  0.00    +0.000 N 
ATOM      4  C   UNL     1       4.649   5.927  16.827  0.00  0.00    +0.000 A 
ATOM      5  N   UNL     1       5.349   6.745  16.070  0.00  0.00    +0.000 NA
ATOM      6  N   UNL     1       6.035   6.066  15.072  0.00  0.00    +0.000 NA
ATOM      7  C   UNL     1       5.752   4.781  15.076  0.00  0.00    +0.000 A 
ATOM      8  S   UNL     1       4.631   4.311  16.275  0.00  0.00    +0.000 S 
ATOM      9  H   UNL     1       3.906   7.341  18.066  0.00  0.00    +0.000 HD
ENDROOT
BRANCH   7  10
ATOM     10  C   UNL     1       6.370   3.777  14.105  0.00  0.00    +0.000 C 
ATOM     11  C   UNL     1       5.642   3.471  12.811  0.00  0.00    +0.000 C 
ATOM     12  C   UNL     1       6.889   4.285  12.777  0.00  0.00    +0.000 C 
ENDBRANCH   7  10
BRANCH   1  14
ATOM     13  C   UNL     1       1.538   5.266  20.461  0.00  0.00    +0.000 C 
ATOM     14  C   UNL     1       2.677   6.189  20.037  0.00  0.00    +0.000 C 
BRANCH  14  15
ATOM     15  N   UNL     1       2.124   7.433  19.502  0.00  0.00    +0.000 N 
ATOM     16  C   UNL     1       1.590   8.400  20.323  0.00  0.00    +0.000 C 
ATOM     17  O   UNL     1       1.562   8.233  21.549  0.00  0.00    +0.000 OA
ATOM     18  H   UNL     1       2.261   7.634  18.517  0.00  0.00    +0.000 HD
BRANCH  16  19
ATOM     19  C   UNL     1       1.028   9.650  19.580  0.00  0.00    +0.000 C 
ATOM     20  C   UNL     1       0.710   9.465  18.069  0.00  0.00    +0.000 C 
ATOM     21  C   UNL     1      -0.504  10.389  18.269  0.00  0.00    +0.000 C 
ATOM     22  C   UNL     1      -0.476   9.996  19.758  0.00  0.00    +0.000 C 
ENDBRANCH  16  19
ENDBRANCH  14  15
ENDBRANCH   1  14
TORSDOF 4
ENDMDL
MODEL 7
REMARK VINA RESULT:      -6.7      5.890      7.940
REMARK  Name = 
REMARK  5 active torsions:
REMARK  status: ('A' for Active; 'I' for Inactive)
REMARK    1  A    between atoms: C_1  and  C_2
REMARK    2  A    between atoms: C_2  and  N_3
REMARK    3  A    between atoms: C_2  and  C_10
REMARK    4  A    between atoms: C_4  and  C_6
REMARK    5  A    between atoms: C_16  and  C_17
REMARK                            x       y       z     vdW  Elec       q    Type
REMARK                         _______ _______ _______ _____ _____    ______ ____
ROOT
ATOM      1  C   UNL     1       1.827   8.457  19.665  0.00  0.00    +0.000 C 
ATOM      2  O   UNL     1       1.247   9.302  18.981  0.00  0.00    +0.000 OA
ATOM      3  N   UNL     1       1.694   8.296  21.028  0.00  0.00    +0.000 N 
ATOM      4  C   UNL     1       0.874   9.063  21.826  0.00  0.00    +0.000 A 
ATOM      5  N   UNL     1       1.022   9.169  23.130  0.00  0.00    +0.000 NA
ATOM      6  N   UNL     1       0.120  10.068  23.681  0.00  0.00    +0.000 NA
ATOM      7  C   UNL     1      -0.716  10.533  22.777  0.00  0.00    +0.000 A 
ATOM      8  S   UNL     1      -0.477   9.906  21.208  0.00  0.00    +0.000 S 
ATOM      9  H   UNL     1       2.361   7.725  21.534  0.00  0.00    +0.000 HD
ENDROOT
BRANCH   7  10
ATOM     10  C   UNL     1      -1.810  11.555  23.085  0.00  0.00    +0.000 C 
ATOM     11  C   UNL     1      -1.458  13.029  23.060  0.00  0.00    +0.000 C 
ATOM     12  C   UNL     1      -2.291  12.454  21.967  0.00  0.00    +0.000 C 
ENDBRANCH   7  10
BRANCH   1  14
ATOM     13  C   UNL     1       2.557   7.470  17.475  0.00  0.00    +0.000 C 
ATOM     14  C   UNL     1       2.743   7.415  18.988  0.00  0.00    +0.000 C 
BRANCH  14  15
ATOM     15  N   UNL     1       2.400   6.079  19.475  0.00  0.00    +0.000 N 
ATOM     16  C   UNL     1       3.364   5.127  19.715  0.00  0.00    +0.000 C 
ATOM     17  O   UNL     1       4.559   5.383  19.519  0.00  0.00    +0.000 OA
ATOM     18  H   UNL     1       1.443   5.904  19.761  0.00  0.00    +0.000 HD
BRANCH  16  19
ATOM     19  C   UNL     1       2.817   3.753  20.210  0.00  0.00    +0.000 C 
ATOM     20  C   UNL     1       2.253   3.722  21.660  0.00  0.00    +0.000 C 
ATOM     21  C   UNL     1       1.179   2.740  21.160  0.00  0.00    +0.000 C 
ATOM     22  C   UNL     1       1.398   3.319  19.750  0.00  0.00    +0.000 C 
ENDBRANCH  16  19
ENDBRANCH  14  15
ENDBRANCH   1  14
TORSDOF 4
ENDMDL
MODEL 8
REMARK VINA RESULT:      -6.6      1.830      2.157
REMARK  Name = 
REMARK  5 active torsions:
REMARK  status: ('A' for Active; 'I' for Inactive)
REMARK    1  A    between atoms: C_1  and  C_2
REMARK    2  A    between atoms: C_2  and  N_3
REMARK    3  A    between atoms: C_2  and  C_10
REMARK    4  A    between atoms: C_4  and  C_6
REMARK    5  A    between atoms: C_16  and  C_17
REMARK                            x       y       z     vdW  Elec       q    Type
REMARK                         _______ _______ _______ _____ _____    ______ ____
ROOT
ATOM      1  C   UNL     1       5.990   4.233  17.372  0.00  0.00    +0.000 C 
ATOM      2  O   UNL     1       6.247   4.435  18.559  0.00  0.00    +0.000 OA
ATOM      3  N   UNL     1       4.806   3.723  16.880  0.00  0.00    +0.000 N 
ATOM      4  C   UNL     1       3.727   3.373  17.661  0.00  0.00    +0.000 A 
ATOM      5  N   UNL     1       2.773   2.559  17.259  0.00  0.00    +0.000 NA
ATOM      6  N   UNL     1       1.851   2.305  18.264  0.00  0.00    +0.000 NA
ATOM      7  C   UNL     1       2.110   3.006  19.348  0.00  0.00    +0.000 A 
ATOM      8  S   UNL     1       3.474   4.024  19.220  0.00  0.00    +0.000 S 
ATOM      9  H   UNL     1       4.761   3.392  15.924  0.00  0.00    +0.000 HD
ENDROOT
BRANCH   7  10
ATOM     10  C   UNL     1       1.277   2.922  20.626  0.00  0.00    +0.000 C 
ATOM     11  C   UNL     1       1.799   2.092  21.783  0.00  0.00    +0.000 C 
ATOM     12  C   UNL     1       1.813   3.579  21.880  0.00  0.00    +0.000 C 
ENDBRANCH   7  10
BRANCH   1  14
ATOM     13  C   UNL     1       7.250   6.132  16.320  0.00  0.00    +0.000 C 
ATOM     14  C   UNL     1       7.012   4.626  16.284  0.00  0.00    +0.000 C 
BRANCH  14  15
ATOM     15  N   UNL     1       6.494   4.243  14.971  0.00  0.00    +0.000 N 
ATOM     16  C   UNL     1       7.085   4.676  13.806  0.00  0.00    +0.000 C 
ATOM     17  O   UNL     1       8.081   5.410  13.845  0.00  0.00    +0.000 OA
ATOM     18  H   UNL     1       5.764   3.542  14.930  0.00  0.00    +0.000 HD
BRANCH  16  19
ATOM     19  C   UNL     1       6.388   4.189  12.499  0.00  0.00    +0.000 C 
ATOM     20  C   UNL     1       6.874   2.824  11.931  0.00  0.00    +0.000 C 
ATOM     21  C   UNL     1       5.418   2.542  11.520  0.00  0.00    +0.000 C 
ATOM     22  C   UNL     1       4.985   3.533  12.616  0.00  0.00    +0.000 C 
ENDBRANCH  16  19
ENDBRANCH  14  15
ENDBRANCH   1  14
TORSDOF 4
ENDMDL
MODEL 9
REMARK VINA RESULT:      -6.6      4.041      5.468
REMARK  Name = 
REMARK  5 active torsions:
REMARK  status: ('A' for Active; 'I' for Inactive)
REMARK    1  A    between atoms: C_1  and  C_2
REMARK    2  A    between atoms: C_2  and  N_3
REMARK    3  A    between atoms: C_2  and  C_10
REMARK    4  A    between atoms: C_4  and  C_6
REMARK    5  A    between atoms: C_16  and  C_17
REMARK                            x       y       z     vdW  Elec       q    Type
REMARK                         _______ _______ _______ _____ _____    ______ ____
ROOT
ATOM      1  C   UNL     1       2.846   5.369  18.518  0.00  0.00    +0.000 C 
ATOM      2  O   UNL     1       2.122   4.692  19.248  0.00  0.00    +0.000 OA
ATOM      3  N   UNL     1       2.884   6.748  18.478  0.00  0.00    +0.000 N 
ATOM      4  C   UNL     1       2.113   7.571  19.269  0.00  0.00    +0.000 A 
ATOM      5  N   UNL     1       1.870   8.832  18.982  0.00  0.00    +0.000 NA
ATOM      6  N   UNL     1       0.999   9.411  19.894  0.00  0.00    +0.000 NA
ATOM      7  C   UNL     1       0.694   8.580  20.869  0.00  0.00    +0.000 A 
ATOM      8  S   UNL     1       1.448   7.053  20.754  0.00  0.00    +0.000 S 
ATOM      9  H   UNL     1       3.346   7.215  17.706  0.00  0.00    +0.000 HD
ENDROOT
BRANCH   7  10
ATOM     10  C   UNL     1      -0.260   8.930  22.010  0.00  0.00    +0.000 C 
ATOM     11  C   UNL     1       0.317   9.483  23.298  0.00  0.00    +0.000 C 
ATOM     12  C   UNL     1      -0.433  10.387  22.383  0.00  0.00    +0.000 C 
ENDBRANCH   7  10
BRANCH   1  14
ATOM     13  C   UNL     1       3.915   3.184  17.899  0.00  0.00    +0.000 C 
ATOM     14  C   UNL     1       3.869   4.678  17.592  0.00  0.00    +0.000 C 
BRANCH  14  15
ATOM     15  N   UNL     1       5.192   5.263  17.810  0.00  0.00    +0.000 N 
ATOM     16  C   UNL     1       5.891   5.869  16.792  0.00  0.00    +0.000 C 
ATOM     17  O   UNL     1       5.410   5.932  15.653  0.00  0.00    +0.000 OA
ATOM     18  H   UNL     1       5.535   5.332  18.762  0.00  0.00    +0.000 HD
BRANCH  16  19
ATOM     19  C   UNL     1       7.293   6.419  17.198  0.00  0.00    +0.000 C 
ATOM     20  C   UNL     1       7.391   7.957  17.410  0.00  0.00    +0.000 C 
ATOM     21  C   UNL     1       8.372   7.678  18.563  0.00  0.00    +0.000 C 
ATOM     22  C   UNL     1       7.734   6.281  18.681  0.00  0.00    +0.000 C 
ENDBRANCH  16  19
ENDBRANCH  14  15
ENDBRANCH   1  14
TORSDOF 4
ENDMDL
