MODEL 1
REMARK VINA RESULT:      -6.1      0.000      0.000
REMARK  Name = 
REMARK  5 active torsions:
REMARK  status: ('A' for Active; 'I' for Inactive)
REMARK    1  A    between atoms: C_1  and  C_2
REMARK    2  A    between atoms: C_2  and  N_3
REMARK    3  A    between atoms: C_8  and  C_9
REMARK    4  A    between atoms: C_9  and  C_10
REMARK    5  A    between atoms: N_12  and  C_13
REMARK                            x       y       z     vdW  Elec       q    Type
REMARK                         _______ _______ _______ _____ _____    ______ ____
ROOT
ATOM      1  N   UNL     1       6.173   5.328  17.015  0.00  0.00    +0.000 N 
ATOM      2  C   UNL     1       7.149   4.686  17.751  0.00  0.00    +0.000 C 
ATOM      3  O   UNL     1       8.162   4.169  17.319  0.00  0.00    +0.000 OA
ATOM      4  O   UNL     1       6.821   4.725  19.079  0.00  0.00    +0.000 OA
ATOM      5  C   UNL     1       5.502   5.273  19.195  0.00  0.00    +0.000 C 
ATOM      6  C   UNL     1       5.278   6.041  17.903  0.00  0.00    +0.000 C 
ENDROOT
BRANCH   1   8
ATOM      7  C   UNL     1       5.956   4.500  14.673  0.00  0.00    +0.000 C 
ATOM      8  C   UNL     1       6.355   5.632  15.606  0.00  0.00    +0.000 C 
ENDBRANCH   1   8
BRANCH   6   9
ATOM      9  C   UNL     1       3.801   6.056  17.478  0.00  0.00    +0.000 C 
BRANCH   9  10
ATOM     10  C   UNL     1       3.079   4.774  17.753  0.00  0.00    +0.000 A 
ATOM     11  C   UNL     1       2.034   4.525  18.623  0.00  0.00    +0.000 A 
ATOM     12  N   UNL     1       1.751   3.195  18.472  0.00  0.00    +0.000 N 
ATOM     13  C   UNL     1       0.735   2.431  19.151  0.00  0.00    +0.000 C 
ATOM     14  C   UNL     1       2.613   2.693  17.543  0.00  0.00    +0.000 A 
ATOM     15  N   UNL     1       3.429   3.622  17.092  0.00  0.00    +0.000 NA
ENDBRANCH   9  10
ENDBRANCH   6   9
TORSDOF 3
ENDMDL
MODEL 2
REMARK VINA RESULT:      -6.1      2.149      2.727
REMARK  Name = 
REMARK  5 active torsions:
REMARK  status: ('A' for Active; 'I' for Inactive)
REMARK    1  A    between atoms: C_1  and  C_2
REMARK    2  A    between atoms: C_2  and  N_3
REMARK    3  A    between atoms: C_8  and  C_9
REMARK    4  A    between atoms: C_9  and  C_10
REMARK    5  A    between atoms: N_12  and  C_13
REMARK                            x       y       z     vdW  Elec       q    Type
REMARK                         _______ _______ _______ _____ _____    ______ ____
ROOT
ATOM      1  N   UNL     1       6.529   5.539  16.629  0.00  0.00    +0.000 N 
ATOM      2  C   UNL     1       6.975   5.053  15.416  0.00  0.00    +0.000 C 
ATOM      3  O   UNL     1       7.839   5.541  14.712  0.00  0.00    +0.000 OA
ATOM      4  O   UNL     1       6.306   3.900  15.109  0.00  0.00    +0.000 OA
ATOM      5  C   UNL     1       5.270   3.716  16.082  0.00  0.00    +0.000 C 
ATOM      6  C   UNL     1       5.702   4.545  17.281  0.00  0.00    +0.000 C 
ENDROOT
BRANCH   1   8
ATOM      7  C   UNL     1       7.797   6.241  18.657  0.00  0.00    +0.000 C 
ATOM      8  C   UNL     1       7.206   6.629  17.311  0.00  0.00    +0.000 C 
ENDBRANCH   1   8
BRANCH   6   9
ATOM      9  C   UNL     1       4.507   5.097  18.073  0.00  0.00    +0.000 C 
BRANCH   9  10
ATOM     10  C   UNL     1       3.991   4.164  19.123  0.00  0.00    +0.000 A 
ATOM     11  C   UNL     1       2.797   4.197  19.818  0.00  0.00    +0.000 A 
ATOM     12  N   UNL     1       2.831   3.108  20.644  0.00  0.00    +0.000 N 
ATOM     13  C   UNL     1       1.820   2.682  21.577  0.00  0.00    +0.000 C 
ATOM     14  C   UNL     1       4.015   2.466  20.432  0.00  0.00    +0.000 A 
ATOM     15  N   UNL     1       4.740   3.082  19.521  0.00  0.00    +0.000 NA
ENDBRANCH   9  10
ENDBRANCH   6   9
TORSDOF 3
ENDMDL
MODEL 3
REMARK VINA RESULT:      -6.0      1.111      1.156
REMARK  Name = 
REMARK  5 active torsions:
REMARK  status: ('A' for Active; 'I' for Inactive)
REMARK    1  A    between atoms: C_1  and  C_2
REMARK    2  A    between atoms: C_2  and  N_3
REMARK    3  A    between atoms: C_8  and  C_9
REMARK    4  A    between atoms: C_9  and  C_10
REMARK    5  A    between atoms: N_12  and  C_13
REMARK                            x       y       z     vdW  Elec       q    Type
REMARK                         _______ _______ _______ _____ _____    ______ ____
ROOT
ATOM      1  N   UNL     1       5.829   5.116  16.851  0.00  0.00    +0.000 N 
ATOM      2  C   UNL     1       7.019   4.664  17.385  0.00  0.00    +0.000 C 
ATOM      3  O   UNL     1       8.032   4.387  16.771  0.00  0.00    +0.000 OA
ATOM      4  O   UNL     1       6.909   4.581  18.746  0.00  0.00    +0.000 OA
ATOM      5  C   UNL     1       5.543   4.836  19.098  0.00  0.00    +0.000 C 
ATOM      6  C   UNL     1       4.964   5.590  17.912  0.00  0.00    +0.000 C 
ENDROOT
BRANCH   1   8
ATOM      7  C   UNL     1       5.571   4.335  14.497  0.00  0.00    +0.000 C 
ATOM      8  C   UNL     1       5.717   5.506  15.456  0.00  0.00    +0.000 C 
ENDBRANCH   1   8
BRANCH   6   9
ATOM      9  C   UNL     1       3.466   5.312  17.714  0.00  0.00    +0.000 C 
BRANCH   9  10
ATOM     10  C   UNL     1       2.921   4.255  18.623  0.00  0.00    +0.000 A 
ATOM     11  C   UNL     1       2.399   4.377  19.897  0.00  0.00    +0.000 A 
ATOM     12  N   UNL     1       2.041   3.109  20.262  0.00  0.00    +0.000 N 
ATOM     13  C   UNL     1       1.440   2.687  21.502  0.00  0.00    +0.000 C 
ATOM     14  C   UNL     1       2.352   2.278  19.226  0.00  0.00    +0.000 A 
ATOM     15  N   UNL     1       2.888   2.942  18.222  0.00  0.00    +0.000 NA
ENDBRANCH   9  10
ENDBRANCH   6   9
TORSDOF 3
ENDMDL
MODEL 4
REMARK VINA RESULT:      -6.0      2.794      5.693
REMARK  Name = 
REMARK  5 active torsions:
REMARK  status: ('A' for Active; 'I' for Inactive)
REMARK    1  A    between atoms: C_1  and  C_2
REMARK    2  A    between atoms: C_2  and  N_3
REMARK    3  A    between atoms: C_8  and  C_9
REMARK    4  A    between atoms: C_9  and  C_10
REMARK    5  A    between atoms: N_12  and  C_13
REMARK                            x       y       z     vdW  Elec       q    Type
REMARK                         _______ _______ _______ _____ _____    ______ ____
ROOT
ATOM      1  N   UNL     1       2.305   3.397  19.403  0.00  0.00    +0.000 N 
ATOM      2  C   UNL     1       1.475   2.700  18.547  0.00  0.00    +0.000 C 
ATOM      3  O   UNL     1       0.328   2.357  18.766  0.00  0.00    +0.000 OA
ATOM      4  O   UNL     1       2.131   2.452  17.372  0.00  0.00    +0.000 OA
ATOM      5  C   UNL     1       3.495   2.863  17.530  0.00  0.00    +0.000 C 
ATOM      6  C   UNL     1       3.479   3.851  18.685  0.00  0.00    +0.000 C 
ENDROOT
BRANCH   1   8
ATOM      7  C   UNL     1       1.769   5.505  20.622  0.00  0.00    +0.000 C 
ATOM      8  C   UNL     1       1.811   3.985  20.636  0.00  0.00    +0.000 C 
ENDBRANCH   1   8
BRANCH   6   9
ATOM      9  C   UNL     1       4.789   3.834  19.488  0.00  0.00    +0.000 C 
BRANCH   9  10
ATOM     10  C   UNL     1       5.781   4.865  19.051  0.00  0.00    +0.000 A 
ATOM     11  C   UNL     1       5.716   5.754  17.994  0.00  0.00    +0.000 A 
ATOM     12  N   UNL     1       6.878   6.472  18.056  0.00  0.00    +0.000 N 
ATOM     13  C   UNL     1       7.301   7.535  17.180  0.00  0.00    +0.000 C 
ATOM     14  C   UNL     1       7.594   6.007  19.119  0.00  0.00    +0.000 A 
ATOM     15  N   UNL     1       6.959   5.034  19.738  0.00  0.00    +0.000 NA
ENDBRANCH   9  10
ENDBRANCH   6   9
TORSDOF 3
ENDMDL
MODEL 5
REMARK VINA RESULT:      -5.9      2.201      2.801
REMARK  Name = 
REMARK  5 active torsions:
REMARK  status: ('A' for Active; 'I' for Inactive)
REMARK    1  A    between atoms: C_1  and  C_2
REMARK    2  A    between atoms: C_2  and  N_3
REMARK    3  A    between atoms: C_8  and  C_9
REMARK    4  A    between atoms: C_9  and  C_10
REMARK    5  A    between atoms: N_12  and  C_13
REMARK                            x       y       z     vdW  Elec       q    Type
REMARK                         _______ _______ _______ _____ _____    ______ ____
ROOT
ATOM      1  N   UNL     1       6.343   5.748  16.849  0.00  0.00    +0.000 N 
ATOM      2  C   UNL     1       6.744   5.051  15.727  0.00  0.00    +0.000 C 
ATOM      3  O   UNL     1       7.751   5.245  15.073  0.00  0.00    +0.000 OA
ATOM      4  O   UNL     1       5.834   4.068  15.448  0.00  0.00    +0.000 OA
ATOM      5  C   UNL     1       4.716   4.235  16.328  0.00  0.00    +0.000 C 
ATOM      6  C   UNL     1       5.250   5.051  17.495  0.00  0.00    +0.000 C 
ENDROOT
BRANCH   1   8
ATOM      7  C   UNL     1       7.794   6.210  18.824  0.00  0.00    +0.000 C 
ATOM      8  C   UNL     1       7.217   6.705  17.507  0.00  0.00    +0.000 C 
ENDBRANCH   1   8
BRANCH   6   9
ATOM      9  C   UNL     1       4.174   5.950  18.123  0.00  0.00    +0.000 C 
BRANCH   9  10
ATOM     10  C   UNL     1       3.386   5.285  19.208  0.00  0.00    +0.000 A 
ATOM     11  C   UNL     1       3.527   4.020  19.746  0.00  0.00    +0.000 A 
ATOM     12  N   UNL     1       2.562   3.930  20.711  0.00  0.00    +0.000 N 
ATOM     13  C   UNL     1       2.285   2.811  21.575  0.00  0.00    +0.000 C 
ATOM     14  C   UNL     1       1.880   5.111  20.724  0.00  0.00    +0.000 A 
ATOM     15  N   UNL     1       2.354   5.949  19.825  0.00  0.00    +0.000 NA
ENDBRANCH   9  10
ENDBRANCH   6   9
TORSDOF 3
ENDMDL
MODEL 6
REMARK VINA RESULT:      -5.9      1.609      1.982
REMARK  Name = 
REMARK  5 active torsions:
REMARK  status: ('A' for Active; 'I' for Inactive)
REMARK    1  A    between atoms: C_1  and  C_2
REMARK    2  A    between atoms: C_2  and  N_3
REMARK    3  A    between atoms: C_8  and  C_9
REMARK    4  A    between atoms: C_9  and  C_10
REMARK    5  A    between atoms: N_12  and  C_13
REMARK                            x       y       z     vdW  Elec       q    Type
REMARK                         _______ _______ _______ _____ _____    ______ ____
ROOT
ATOM      1  N   UNL     1       6.002   4.768  16.327  0.00  0.00    +0.000 N 
ATOM      2  C   UNL     1       6.462   6.007  16.727  0.00  0.00    +0.000 C 
ATOM      3  O   UNL     1       7.486   6.553  16.362  0.00  0.00    +0.000 OA
ATOM      4  O   UNL     1       5.574   6.564  17.606  0.00  0.00    +0.000 OA
ATOM      5  C   UNL     1       4.577   5.582  17.913  0.00  0.00    +0.000 C 
ATOM      6  C   UNL     1       4.631   4.590  16.763  0.00  0.00    +0.000 C 
ENDROOT
BRANCH   1   8
ATOM      7  C   UNL     1       5.853   4.107  13.928  0.00  0.00    +0.000 C 
ATOM      8  C   UNL     1       6.624   4.037  15.237  0.00  0.00    +0.000 C 
ENDBRANCH   1   8
BRANCH   6   9
ATOM      9  C   UNL     1       4.258   3.165  17.199  0.00  0.00    +0.000 C 
BRANCH   9  10
ATOM     10  C   UNL     1       3.123   3.107  18.172  0.00  0.00    +0.000 A 
ATOM     11  C   UNL     1       3.148   2.905  19.539  0.00  0.00    +0.000 A 
ATOM     12  N   UNL     1       1.839   2.956  19.934  0.00  0.00    +0.000 N 
ATOM     13  C   UNL     1       1.318   2.810  21.269  0.00  0.00    +0.000 C 
ATOM     14  C   UNL     1       1.081   3.176  18.822  0.00  0.00    +0.000 A 
ATOM     15  N   UNL     1       1.828   3.269  17.742  0.00  0.00    +0.000 NA
ENDBRANCH   9  10
ENDBRANCH   6   9
TORSDOF 3
ENDMDL
MODEL 7
REMARK VINA RESULT:      -5.9      1.428      1.824
REMARK  Name = 
REMARK  5 active torsions:
REMARK  status: ('A' for Active; 'I' for Inactive)
REMARK    1  A    between atoms: C_1  and  C_2
REMARK    2  A    between atoms: C_2  and  N_3
REMARK    3  A    between atoms: C_8  and  C_9
REMARK    4  A    between atoms: C_9  and  C_10
REMARK    5  A    between atoms: N_12  and  C_13
REMARK                            x       y       z     vdW  Elec       q    Type
REMARK                         _______ _______ _______ _____ _____    ______ ____
ROOT
ATOM      1  N   UNL     1       6.005   4.366  17.043  0.00  0.00    +0.000 N 
ATOM      2  C   UNL     1       7.138   4.513  17.818  0.00  0.00    +0.000 C 
ATOM      3  O   UNL     1       8.272   4.193  17.514  0.00  0.00    +0.000 OA
ATOM      4  O   UNL     1       6.807   5.102  19.007  0.00  0.00    +0.000 OA
ATOM      5  C   UNL     1       5.379   5.196  19.075  0.00  0.00    +0.000 C 
ATOM      6  C   UNL     1       4.909   5.108  17.631  0.00  0.00    +0.000 C 
ENDROOT
BRANCH   1   8
ATOM      7  C   UNL     1       6.016   5.134  14.671  0.00  0.00    +0.000 C 
ATOM      8  C   UNL     1       6.080   3.970  15.647  0.00  0.00    +0.000 C 
ENDBRANCH   1   8
BRANCH   6   9
ATOM      9  C   UNL     1       3.525   4.452  17.505  0.00  0.00    +0.000 C 
BRANCH   9  10
ATOM     10  C   UNL     1       2.828   4.250  18.813  0.00  0.00    +0.000 A 
ATOM     11  C   UNL     1       2.718   3.107  19.582  0.00  0.00    +0.000 A 
ATOM     12  N   UNL     1       1.989   3.479  20.677  0.00  0.00    +0.000 N 
ATOM     13  C   UNL     1       1.597   2.656  21.793  0.00  0.00    +0.000 C 
ATOM     14  C   UNL     1       1.685   4.802  20.541  0.00  0.00    +0.000 A 
ATOM     15  N   UNL     1       2.175   5.294  19.423  0.00  0.00    +0.000 NA
ENDBRANCH   9  10
ENDBRANCH   6   9
TORSDOF 3
ENDMDL
MODEL 8
REMARK VINA RESULT:      -5.8      2.459      3.021
REMARK  Name = 
REMARK  5 active torsions:
REMARK  status: ('A' for Active; 'I' for Inactive)
REMARK    1  A    between atoms: C_1  and  C_2
REMARK    2  A    between atoms: C_2  and  N_3
REMARK    3  A    between atoms: C_8  and  C_9
REMARK    4  A    between atoms: C_9  and  C_10
REMARK    5  A    between atoms: N_12  and  C_13
REMARK                            x       y       z     vdW  Elec       q    Type
REMARK                         _______ _______ _______ _____ _____    ______ ____
ROOT
ATOM      1  N   UNL     1       5.973   5.194  16.914  0.00  0.00    +0.000 N 
ATOM      2  C   UNL     1       7.109   4.656  17.485  0.00  0.00    +0.000 C 
ATOM      3  O   UNL     1       8.080   4.219  16.897  0.00  0.00    +0.000 OA
ATOM      4  O   UNL     1       7.000   4.697  18.848  0.00  0.00    +0.000 OA
ATOM      5  C   UNL     1       5.674   5.131  19.176  0.00  0.00    +0.000 C 
ATOM      6  C   UNL     1       5.174   5.847  17.932  0.00  0.00    +0.000 C 
ENDROOT
BRANCH   1   8
ATOM      7  C   UNL     1       5.598   4.262  14.632  0.00  0.00    +0.000 C 
ATOM      8  C   UNL     1       5.894   5.481  15.492  0.00  0.00    +0.000 C 
ENDBRANCH   1   8
BRANCH   6   9
ATOM      9  C   UNL     1       3.653   5.724  17.756  0.00  0.00    +0.000 C 
BRANCH   9  10
ATOM     10  C   UNL     1       2.874   6.795  18.453  0.00  0.00    +0.000 A 
ATOM     11  C   UNL     1       2.392   6.829  19.747  0.00  0.00    +0.000 A 
ATOM     12  N   UNL     1       1.765   8.038  19.866  0.00  0.00    +0.000 N 
ATOM     13  C   UNL     1       1.097   8.571  21.026  0.00  0.00    +0.000 C 
ATOM     14  C   UNL     1       1.880   8.681  18.669  0.00  0.00    +0.000 A 
ATOM     15  N   UNL     1       2.542   7.954  17.794  0.00  0.00    +0.000 NA
ENDBRANCH   9  10
ENDBRANCH   6   9
TORSDOF 3
ENDMDL
MODEL 9
REMARK VINA RESULT:      -5.8      1.766      2.413
REMARK  Name = 
REMARK  5 active torsions:
REMARK  status: ('A' for Active; 'I' for Inactive)
REMARK    1  A    between atoms: C_1  and  C_2
REMARK    2  A    between atoms: C_2  and  N_3
REMARK    3  A    between atoms: C_8  and  C_9
REMARK    4  A    between atoms: C_9  and  C_10
REMARK    5  A    between atoms: N_12  and  C_13
REMARK                            x       y       z     vdW  Elec       q    Type
REMARK                         _______ _______ _______ _____ _____    ______ ____
ROOT
ATOM      1  N   UNL     1       6.578   5.649  16.595  0.00  0.00    +0.000 N 
ATOM      2  C   UNL     1       7.020   5.089  15.413  0.00  0.00    +0.000 C 
ATOM      3  O   UNL     1       7.880   5.534  14.675  0.00  0.00    +0.000 OA
ATOM      4  O   UNL     1       6.353   3.917  15.182  0.00  0.00    +0.000 OA
ATOM      5  C   UNL     1       5.322   3.791  16.170  0.00  0.00    +0.000 C 
ATOM      6  C   UNL     1       5.757   4.695  17.313  0.00  0.00    +0.000 C 
ENDROOT
BRANCH   1   8
ATOM      7  C   UNL     1       7.860   6.478  18.566  0.00  0.00    +0.000 C 
ATOM      8  C   UNL     1       7.255   6.781  17.205  0.00  0.00    +0.000 C 
ENDBRANCH   1   8
BRANCH   6   9
ATOM      9  C   UNL     1       4.564   5.294  18.074  0.00  0.00    +0.000 C 
BRANCH   9  10
ATOM     10  C   UNL     1       3.595   4.272  18.582  0.00  0.00    +0.000 A 
ATOM     11  C   UNL     1       2.287   4.038  18.202  0.00  0.00    +0.000 A 
ATOM     12  N   UNL     1       1.872   2.988  18.974  0.00  0.00    +0.000 N 
ATOM     13  C   UNL     1       0.581   2.348  18.965  0.00  0.00    +0.000 C 
ATOM     14  C   UNL     1       2.913   2.630  19.778  0.00  0.00    +0.000 A 
ATOM     15  N   UNL     1       3.967   3.390  19.567  0.00  0.00    +0.000 NA
ENDBRANCH   9  10
ENDBRANCH   6   9
TORSDOF 3
ENDMDL
