MODEL 1
REMARK VINA RESULT:      -5.8      0.000      0.000
REMARK  Name = 
REMARK  7 active torsions:
REMARK  status: ('A' for Active; 'I' for Inactive)
REMARK    1  A    between atoms: C_1  and  C_2
REMARK    2  A    between atoms: C_2  and  C_3
REMARK    3  A    between atoms: C_3  and  N_4
REMARK    4  A    between atoms: N_4  and  C_5
REMARK    5  A    between atoms: C_5  and  C_6
REMARK    6  A    between atoms: C_6  and  C_7
REMARK    7  A    between atoms: C_8  and  C_10
REMARK                            x       y       z     vdW  Elec       q    Type
REMARK                         _______ _______ _______ _____ _____    ______ ____
ROOT
ATOM      1  N   UNL     1       2.506   3.998  18.238  0.00  0.00    +0.000 N 
ATOM      2  C   UNL     1       3.706   3.415  17.790  0.00  0.00    +0.000 C 
ATOM      3  O   UNL     1       3.888   2.197  17.841  0.00  0.00    +0.000 OA
ENDROOT
BRANCH   2   4
ATOM      4  C   UNL     1       4.849   4.337  17.329  0.00  0.00    +0.000 C 
ATOM      5  C   UNL     1       5.522   3.794  16.052  0.00  0.00    +0.000 C 
ATOM      6  C   UNL     1       6.782   4.581  15.722  0.00  0.00    +0.000 C 
ATOM      7  O   UNL     1       7.692   4.563  16.819  0.00  0.00    +0.000 OA
ATOM      8  C   UNL     1       7.144   5.182  17.980  0.00  0.00    +0.000 C 
ATOM      9  C   UNL     1       5.892   4.456  18.451  0.00  0.00    +0.000 C 
ENDBRANCH   2   4
BRANCH   1  10
ATOM     10  C   UNL     1       1.508   3.088  18.830  0.00  0.00    +0.000 C 
BRANCH  10  12
ATOM     11  C   UNL     1       2.154   3.688  21.243  0.00  0.00    +0.000 C 
ATOM     12  C   UNL     1       1.042   3.379  20.262  0.00  0.00    +0.000 C 
ENDBRANCH  10  12
ENDBRANCH   1  10
BRANCH   1  13
ATOM     13  C   UNL     1       2.116   5.367  17.867  0.00  0.00    +0.000 C 
BRANCH  13  14
ATOM     14  C   UNL     1       2.567   6.530  18.754  0.00  0.00    +0.000 C 
ATOM     15  C   UNL     1       2.898   7.804  17.995  0.00  0.00    +0.000 C 
ENDBRANCH  13  14
ENDBRANCH   1  13
TORSDOF 5
ENDMDL
MODEL 2
REMARK VINA RESULT:      -5.7      2.223      5.144
REMARK  Name = 
REMARK  7 active torsions:
REMARK  status: ('A' for Active; 'I' for Inactive)
REMARK    1  A    between atoms: C_1  and  C_2
REMARK    2  A    between atoms: C_2  and  C_3
REMARK    3  A    between atoms: C_3  and  N_4
REMARK    4  A    between atoms: N_4  and  C_5
REMARK    5  A    between atoms: C_5  and  C_6
REMARK    6  A    between atoms: C_6  and  C_7
REMARK    7  A    between atoms: C_8  and  C_10
REMARK                            x       y       z     vdW  Elec       q    Type
REMARK                         _______ _______ _______ _____ _____    ______ ____
ROOT
ATOM      1  N   UNL     1       5.105   5.849  16.848  0.00  0.00    +0.000 N 
ATOM      2  C   UNL     1       4.110   5.518  17.787  0.00  0.00    +0.000 C 
ATOM      3  O   UNL     1       3.904   6.219  18.780  0.00  0.00    +0.000 OA
ENDROOT
BRANCH   2   4
ATOM      4  C   UNL     1       3.340   4.196  17.614  0.00  0.00    +0.000 C 
ATOM      5  C   UNL     1       1.960   4.261  18.300  0.00  0.00    +0.000 C 
ATOM      6  C   UNL     1       1.295   2.893  18.319  0.00  0.00    +0.000 C 
ATOM      7  O   UNL     1       2.131   1.931  18.957  0.00  0.00    +0.000 OA
ATOM      8  C   UNL     1       3.365   1.751  18.266  0.00  0.00    +0.000 C 
ATOM      9  C   UNL     1       4.162   3.047  18.217  0.00  0.00    +0.000 C 
ENDBRANCH   2   4
BRANCH   1  10
ATOM     10  C   UNL     1       5.930   7.033  17.148  0.00  0.00    +0.000 C 
BRANCH  10  12
ATOM     11  C   UNL     1       7.572   5.796  18.689  0.00  0.00    +0.000 C 
ATOM     12  C   UNL     1       7.387   6.797  17.566  0.00  0.00    +0.000 C 
ENDBRANCH  10  12
ENDBRANCH   1  10
BRANCH   1  13
ATOM     13  C   UNL     1       5.135   5.260  15.501  0.00  0.00    +0.000 C 
BRANCH  13  14
ATOM     14  C   UNL     1       6.264   4.291  15.141  0.00  0.00    +0.000 C 
ATOM     15  C   UNL     1       6.224   3.788  13.709  0.00  0.00    +0.000 C 
ENDBRANCH  13  14
ENDBRANCH   1  13
TORSDOF 5
ENDMDL
MODEL 3
REMARK VINA RESULT:      -5.7      0.991      1.017
REMARK  Name = 
REMARK  7 active torsions:
REMARK  status: ('A' for Active; 'I' for Inactive)
REMARK    1  A    between atoms: C_1  and  C_2
REMARK    2  A    between atoms: C_2  and  C_3
REMARK    3  A    between atoms: C_3  and  N_4
REMARK    4  A    between atoms: N_4  and  C_5
REMARK    5  A    between atoms: C_5  and  C_6
REMARK    6  A    between atoms: C_6  and  C_7
REMARK    7  A    between atoms: C_8  and  C_10
REMARK                            x       y       z     vdW  Elec       q    Type
REMARK                         _______ _______ _______ _____ _____    ______ ____
ROOT
ATOM      1  N   UNL     1       2.976   4.713  18.759  0.00  0.00    +0.000 N 
ATOM      2  C   UNL     1       3.627   4.326  17.572  0.00  0.00    +0.000 C 
ATOM      3  O   UNL     1       3.165   3.445  16.843  0.00  0.00    +0.000 OA
ENDROOT
BRANCH   2   4
ATOM      4  C   UNL     1       4.996   4.947  17.242  0.00  0.00    +0.000 C 
ATOM      5  C   UNL     1       5.399   4.665  15.780  0.00  0.00    +0.000 C 
ATOM      6  C   UNL     1       6.837   5.086  15.519  0.00  0.00    +0.000 C 
ATOM      7  O   UNL     1       7.728   4.437  16.423  0.00  0.00    +0.000 OA
ATOM      8  C   UNL     1       7.464   4.787  17.779  0.00  0.00    +0.000 C 
ATOM      9  C   UNL     1       6.058   4.371  18.191  0.00  0.00    +0.000 C 
ENDBRANCH   2   4
BRANCH   1  10
ATOM     10  C   UNL     1       1.756   3.968  19.118  0.00  0.00    +0.000 C 
BRANCH  10  12
ATOM     11  C   UNL     1       1.424   2.876  21.420  0.00  0.00    +0.000 C 
ATOM     12  C   UNL     1       1.918   2.721  19.996  0.00  0.00    +0.000 C 
ENDBRANCH  10  12
ENDBRANCH   1  10
BRANCH   1  13
ATOM     13  C   UNL     1       3.291   5.975  19.446  0.00  0.00    +0.000 C 
BRANCH  13  14
ATOM     14  C   UNL     1       2.379   7.184  19.228  0.00  0.00    +0.000 C 
ATOM     15  C   UNL     1       2.633   7.933  17.931  0.00  0.00    +0.000 C 
ENDBRANCH  13  14
ENDBRANCH   1  13
TORSDOF 5
ENDMDL
MODEL 4
REMARK VINA RESULT:      -5.6      2.001      5.301
REMARK  Name = 
REMARK  7 active torsions:
REMARK  status: ('A' for Active; 'I' for Inactive)
REMARK    1  A    between atoms: C_1  and  C_2
REMARK    2  A    between atoms: C_2  and  C_3
REMARK    3  A    between atoms: C_3  and  N_4
REMARK    4  A    between atoms: N_4  and  C_5
REMARK    5  A    between atoms: C_5  and  C_6
REMARK    6  A    between atoms: C_6  and  C_7
REMARK    7  A    between atoms: C_8  and  C_10
REMARK                            x       y       z     vdW  Elec       q    Type
REMARK                         _______ _______ _______ _____ _____    ______ ____
ROOT
ATOM      1  N   UNL     1       5.444   4.411  18.022  0.00  0.00    +0.000 N 
ATOM      2  C   UNL     1       4.337   3.587  18.302  0.00  0.00    +0.000 C 
ATOM      3  O   UNL     1       3.982   2.702  17.521  0.00  0.00    +0.000 OA
ENDROOT
BRANCH   2   4
ATOM      4  C   UNL     1       3.498   3.877  19.559  0.00  0.00    +0.000 C 
ATOM      5  C   UNL     1       3.396   2.629  20.460  0.00  0.00    +0.000 C 
ATOM      6  C   UNL     1       2.394   2.848  21.584  0.00  0.00    +0.000 C 
ATOM      7  O   UNL     1       1.115   3.200  21.062  0.00  0.00    +0.000 OA
ATOM      8  C   UNL     1       1.152   4.426  20.334  0.00  0.00    +0.000 C 
ATOM      9  C   UNL     1       2.091   4.327  19.139  0.00  0.00    +0.000 C 
ENDBRANCH   2   4
BRANCH   1  10
ATOM     10  C   UNL     1       6.111   4.206  16.724  0.00  0.00    +0.000 C 
BRANCH  10  12
ATOM     11  C   UNL     1       5.649   4.273  14.197  0.00  0.00    +0.000 C 
ATOM     12  C   UNL     1       5.589   5.005  15.523  0.00  0.00    +0.000 C 
ENDBRANCH  10  12
ENDBRANCH   1  10
BRANCH   1  13
ATOM     13  C   UNL     1       6.104   5.212  19.064  0.00  0.00    +0.000 C 
BRANCH  13  14
ATOM     14  C   UNL     1       7.571   5.608  18.875  0.00  0.00    +0.000 C 
ATOM     15  C   UNL     1       7.772   6.965  18.223  0.00  0.00    +0.000 C 
ENDBRANCH  13  14
ENDBRANCH   1  13
TORSDOF 5
ENDMDL
MODEL 5
REMARK VINA RESULT:      -5.6      2.295      5.398
REMARK  Name = 
REMARK  7 active torsions:
REMARK  status: ('A' for Active; 'I' for Inactive)
REMARK    1  A    between atoms: C_1  and  C_2
REMARK    2  A    between atoms: C_2  and  C_3
REMARK    3  A    between atoms: C_3  and  N_4
REMARK    4  A    between atoms: N_4  and  C_5
REMARK    5  A    between atoms: C_5  and  C_6
REMARK    6  A    between atoms: C_6  and  C_7
REMARK    7  A    between atoms: C_8  and  C_10
REMARK                            x       y       z     vdW  Elec       q    Type
REMARK                         _______ _______ _______ _____ _____    ______ ____
ROOT
ATOM      1  N   UNL     1       5.445   5.582  17.200  0.00  0.00    +0.000 N 
ATOM      2  C   UNL     1       4.111   5.600  17.649  0.00  0.00    +0.000 C 
ATOM      3  O   UNL     1       3.501   6.660  17.810  0.00  0.00    +0.000 OA
ENDROOT
BRANCH   2   4
ATOM      4  C   UNL     1       3.446   4.270  18.046  0.00  0.00    +0.000 C 
ATOM      5  C   UNL     1       1.924   4.313  17.799  0.00  0.00    +0.000 C 
ATOM      6  C   UNL     1       1.241   3.089  18.391  0.00  0.00    +0.000 C 
ATOM      7  O   UNL     1       1.523   2.973  19.783  0.00  0.00    +0.000 OA
ATOM      8  C   UNL     1       2.915   2.797  20.034  0.00  0.00    +0.000 C 
ATOM      9  C   UNL     1       3.720   3.987  19.531  0.00  0.00    +0.000 C 
ENDBRANCH   2   4
BRANCH   1  10
ATOM     10  C   UNL     1       6.093   6.890  16.997  0.00  0.00    +0.000 C 
BRANCH  10  12
ATOM     11  C   UNL     1       7.905   8.552  17.742  0.00  0.00    +0.000 C 
ATOM     12  C   UNL     1       7.475   7.104  17.629  0.00  0.00    +0.000 C 
ENDBRANCH  10  12
ENDBRANCH   1  10
BRANCH   1  13
ATOM     13  C   UNL     1       6.071   4.365  16.660  0.00  0.00    +0.000 C 
BRANCH  13  14
ATOM     14  C   UNL     1       6.694   4.410  15.263  0.00  0.00    +0.000 C 
ATOM     15  C   UNL     1       5.707   4.186  14.131  0.00  0.00    +0.000 C 
ENDBRANCH  13  14
ENDBRANCH   1  13
TORSDOF 5
ENDMDL
MODEL 6
REMARK VINA RESULT:      -5.6      2.181      5.417
REMARK  Name = 
REMARK  7 active torsions:
REMARK  status: ('A' for Active; 'I' for Inactive)
REMARK    1  A    between atoms: C_1  and  C_2
REMARK    2  A    between atoms: C_2  and  C_3
REMARK    3  A    between atoms: C_3  and  N_4
REMARK    4  A    between atoms: N_4  and  C_5
REMARK    5  A    between atoms: C_5  and  C_6
REMARK    6  A    between atoms: C_6  and  C_7
REMARK    7  A    between atoms: C_8  and  C_10
REMARK                            x       y       z     vdW  Elec       q    Type
REMARK                         _______ _______ _______ _____ _____    ______ ____
ROOT
ATOM      1  N   UNL     1       6.041   5.335  17.461  0.00  0.00    +0.000 N 
ATOM      2  C   UNL     1       5.065   5.034  18.429  0.00  0.00    +0.000 C 
ATOM      3  O   UNL     1       5.171   5.425  19.593  0.00  0.00    +0.000 OA
ENDROOT
BRANCH   2   4
ATOM      4  C   UNL     1       3.899   4.106  18.040  0.00  0.00    +0.000 C 
ATOM      5  C   UNL     1       2.538   4.764  18.347  0.00  0.00    +0.000 C 
ATOM      6  C   UNL     1       1.400   3.770  18.169  0.00  0.00    +0.000 C 
ATOM      7  O   UNL     1       1.599   2.618  18.984  0.00  0.00    +0.000 OA
ATOM      8  C   UNL     1       2.787   1.912  18.632  0.00  0.00    +0.000 C 
ATOM      9  C   UNL     1       4.020   2.785  18.814  0.00  0.00    +0.000 C 
ENDBRANCH   2   4
BRANCH   1  10
ATOM     10  C   UNL     1       7.224   6.082  17.925  0.00  0.00    +0.000 C 
BRANCH  10  12
ATOM     11  C   UNL     1       8.251   8.424  18.182  0.00  0.00    +0.000 C 
ATOM     12  C   UNL     1       7.485   7.459  17.300  0.00  0.00    +0.000 C 
ENDBRANCH  10  12
ENDBRANCH   1  10
BRANCH   1  13
ATOM     13  C   UNL     1       5.779   5.203  16.020  0.00  0.00    +0.000 C 
BRANCH  13  14
ATOM     14  C   UNL     1       6.465   4.076  15.243  0.00  0.00    +0.000 C 
ATOM     15  C   UNL     1       6.031   3.963  13.792  0.00  0.00    +0.000 C 
ENDBRANCH  13  14
ENDBRANCH   1  13
TORSDOF 5
ENDMDL
MODEL 7
REMARK VINA RESULT:      -5.6      1.888      4.974
REMARK  Name = 
REMARK  7 active torsions:
REMARK  status: ('A' for Active; 'I' for Inactive)
REMARK    1  A    between atoms: C_1  and  C_2
REMARK    2  A    between atoms: C_2  and  C_3
REMARK    3  A    between atoms: C_3  and  N_4
REMARK    4  A    between atoms: N_4  and  C_5
REMARK    5  A    between atoms: C_5  and  C_6
REMARK    6  A    between atoms: C_6  and  C_7
REMARK    7  A    between atoms: C_8  and  C_10
REMARK                            x       y       z     vdW  Elec       q    Type
REMARK                         _______ _______ _______ _____ _____    ______ ____
ROOT
ATOM      1  N   UNL     1       5.209   4.970  17.721  0.00  0.00    +0.000 N 
ATOM      2  C   UNL     1       4.731   4.187  18.789  0.00  0.00    +0.000 C 
ATOM      3  O   UNL     1       5.502   3.630  19.574  0.00  0.00    +0.000 OA
ENDROOT
BRANCH   2   4
ATOM      4  C   UNL     1       3.216   3.941  18.906  0.00  0.00    +0.000 C 
ATOM      5  C   UNL     1       2.653   4.546  20.209  0.00  0.00    +0.000 C 
ATOM      6  C   UNL     1       1.210   4.117  20.430  0.00  0.00    +0.000 C 
ATOM      7  O   UNL     1       1.099   2.696  20.444  0.00  0.00    +0.000 OA
ATOM      8  C   UNL     1       1.487   2.116  19.201  0.00  0.00    +0.000 C 
ATOM      9  C   UNL     1       2.942   2.430  18.878  0.00  0.00    +0.000 C 
ENDBRANCH   2   4
BRANCH   1  10
ATOM     10  C   UNL     1       6.671   5.034  17.550  0.00  0.00    +0.000 C 
BRANCH  10  12
ATOM     11  C   UNL     1       7.673   7.400  17.617  0.00  0.00    +0.000 C 
ATOM     12  C   UNL     1       7.434   6.096  18.352  0.00  0.00    +0.000 C 
ENDBRANCH  10  12
ENDBRANCH   1  10
BRANCH   1  13
ATOM     13  C   UNL     1       4.346   5.921  17.003  0.00  0.00    +0.000 C 
BRANCH  13  14
ATOM     14  C   UNL     1       4.036   7.272  17.650  0.00  0.00    +0.000 C 
ATOM     15  C   UNL     1       2.568   7.484  17.981  0.00  0.00    +0.000 C 
ENDBRANCH  13  14
ENDBRANCH   1  13
TORSDOF 5
ENDMDL
MODEL 8
REMARK VINA RESULT:      -5.6      1.308      1.682
REMARK  Name = 
REMARK  7 active torsions:
REMARK  status: ('A' for Active; 'I' for Inactive)
REMARK    1  A    between atoms: C_1  and  C_2
REMARK    2  A    between atoms: C_2  and  C_3
REMARK    3  A    between atoms: C_3  and  N_4
REMARK    4  A    between atoms: N_4  and  C_5
REMARK    5  A    between atoms: C_5  and  C_6
REMARK    6  A    between atoms: C_6  and  C_7
REMARK    7  A    between atoms: C_8  and  C_10
REMARK                            x       y       z     vdW  Elec       q    Type
REMARK                         _______ _______ _______ _____ _____    ______ ____
ROOT
ATOM      1  N   UNL     1       3.149   5.075  20.019  0.00  0.00    +0.000 N 
ATOM      2  C   UNL     1       4.231   4.499  19.328  0.00  0.00    +0.000 C 
ATOM      3  O   UNL     1       4.455   3.287  19.378  0.00  0.00    +0.000 OA
ENDROOT
BRANCH   2   4
ATOM      4  C   UNL     1       5.211   5.424  18.584  0.00  0.00    +0.000 C 
ATOM      5  C   UNL     1       5.384   4.987  17.115  0.00  0.00    +0.000 C 
ATOM      6  C   UNL     1       6.509   5.761  16.444  0.00  0.00    +0.000 C 
ATOM      7  O   UNL     1       7.730   5.608  17.164  0.00  0.00    +0.000 OA
ATOM      8  C   UNL     1       7.640   6.128  18.488  0.00  0.00    +0.000 C 
ATOM      9  C   UNL     1       6.573   5.400  19.294  0.00  0.00    +0.000 C 
ENDBRANCH   2   4
BRANCH   1  10
ATOM     10  C   UNL     1       2.340   4.170  20.855  0.00  0.00    +0.000 C 
BRANCH  10  12
ATOM     11  C   UNL     1       0.904   2.778  19.242  0.00  0.00    +0.000 C 
ATOM     12  C   UNL     1       0.936   3.805  20.356  0.00  0.00    +0.000 C 
ENDBRANCH  10  12
ENDBRANCH   1  10
BRANCH   1  13
ATOM     13  C   UNL     1       2.645   6.420  19.700  0.00  0.00    +0.000 C 
BRANCH  13  14
ATOM     14  C   UNL     1       2.246   6.737  18.256  0.00  0.00    +0.000 C 
ATOM     15  C   UNL     1       2.667   8.117  17.781  0.00  0.00    +0.000 C 
ENDBRANCH  13  14
ENDBRANCH   1  13
TORSDOF 5
ENDMDL
MODEL 9
REMARK VINA RESULT:      -5.5      1.291      1.492
REMARK  Name = 
REMARK  7 active torsions:
REMARK  status: ('A' for Active; 'I' for Inactive)
REMARK    1  A    between atoms: C_1  and  C_2
REMARK    2  A    between atoms: C_2  and  C_3
REMARK    3  A    between atoms: C_3  and  N_4
REMARK    4  A    between atoms: N_4  and  C_5
REMARK    5  A    between atoms: C_5  and  C_6
REMARK    6  A    between atoms: C_6  and  C_7
REMARK    7  A    between atoms: C_8  and  C_10
REMARK                            x       y       z     vdW  Elec       q    Type
REMARK                         _______ _______ _______ _____ _____    ______ ____
ROOT
ATOM      1  N   UNL     1       3.394   5.006  19.297  0.00  0.00    +0.000 N 
ATOM      2  C   UNL     1       4.607   4.552  18.746  0.00  0.00    +0.000 C 
ATOM      3  O   UNL     1       5.215   3.595  19.231  0.00  0.00    +0.000 OA
ENDROOT
BRANCH   2   4
ATOM      4  C   UNL     1       5.231   5.340  17.580  0.00  0.00    +0.000 C 
ATOM      5  C   UNL     1       5.619   4.402  16.418  0.00  0.00    +0.000 C 
ATOM      6  C   UNL     1       6.429   5.144  15.366  0.00  0.00    +0.000 C 
ATOM      7  O   UNL     1       7.588   5.738  15.943  0.00  0.00    +0.000 OA
ATOM      8  C   UNL     1       7.256   6.712  16.930  0.00  0.00    +0.000 C 
ATOM      9  C   UNL     1       6.477   6.086  18.079  0.00  0.00    +0.000 C 
ENDBRANCH   2   4
BRANCH   1  10
ATOM     10  C   UNL     1       2.925   4.325  20.517  0.00  0.00    +0.000 C 
BRANCH  10  12
ATOM     11  C   UNL     1       1.343   2.639  21.639  0.00  0.00    +0.000 C 
ATOM     12  C   UNL     1       1.657   3.469  20.410  0.00  0.00    +0.000 C 
ENDBRANCH  10  12
ENDBRANCH   1  10
BRANCH   1  13
ATOM     13  C   UNL     1       2.478   5.884  18.552  0.00  0.00    +0.000 C 
BRANCH  13  14
ATOM     14  C   UNL     1       2.392   7.363  18.938  0.00  0.00    +0.000 C 
ATOM     15  C   UNL     1       2.578   8.324  17.777  0.00  0.00    +0.000 C 
ENDBRANCH  13  14
ENDBRANCH   1  13
TORSDOF 5
ENDMDL
