MODEL 1
REMARK VINA RESULT:      -7.9      0.000      0.000
REMARK  Name = 
REMARK  9 active torsions:
REMARK  status: ('A' for Active; 'I' for Inactive)
REMARK    1  A    between atoms: C_1  and  C_2
REMARK    2  A    between atoms: C_2  and  N_3
REMARK    3  A    between atoms: N_6  and  C_7
REMARK    4  A    between atoms: C_16  and  C_17
REMARK    5  A    between atoms: C_17  and  O_19
REMARK    6  A    between atoms: N_21  and  C_22
REMARK    7  A    between atoms: C_22  and  C_23
REMARK    8  A    between atoms: C_22  and  C_24
REMARK    9  A    between atoms: C_22  and  C_25
REMARK                            x       y       z     vdW  Elec       q    Type
REMARK                         _______ _______ _______ _____ _____    ______ ____
ROOT
ATOM      1  C   UNL     1       2.070   7.541  19.434  0.00  0.00    +0.000 A 
ATOM      2  N   UNL     1       3.070   6.921  18.741  0.00  0.00    +0.000 NA
ATOM      3  C   UNL     1       3.436   5.639  19.015  0.00  0.00    +0.000 A 
ATOM      4  C   UNL     1       2.788   4.946  20.044  0.00  0.00    +0.000 A 
ATOM      5  C   UNL     1       1.761   5.546  20.764  0.00  0.00    +0.000 A 
ATOM      6  C   UNL     1       1.405   6.845  20.449  0.00  0.00    +0.000 A 
ATOM      7  F   UNL     1       0.427   7.412  21.172  0.00  0.00    +0.000 F 
ATOM      8  C   UNL     1       3.184   3.569  20.398  0.00  0.00    +0.000 A 
ATOM      9  O   UNL     1       2.634   2.954  21.310  0.00  0.00    +0.000 OA
ATOM     10  C   UNL     1       4.268   2.940  19.637  0.00  0.00    +0.000 A 
ATOM     11  C   UNL     1       4.815   3.675  18.659  0.00  0.00    +0.000 A 
ATOM     12  N   UNL     1       4.479   4.980  18.286  0.00  0.00    +0.000 N 
ENDROOT
BRANCH   1  17
ATOM     13  C   UNL     1       0.755  12.252  20.000  0.00  0.00    +0.000 C 
ATOM     14  C   UNL     1       0.739  11.017  19.095  0.00  0.00    +0.000 C 
ATOM     15  C   UNL     1       1.958  10.963  18.163  0.00  0.00    +0.000 C 
ATOM     16  C   UNL     1       2.128   9.471  17.868  0.00  0.00    +0.000 C 
ATOM     17  N   UNL     1       1.784   8.850  19.135  0.00  0.00    +0.000 N 
ATOM     18  C   UNL     1       0.892   9.703  19.923  0.00  0.00    +0.000 C 
BRANCH  14  19
ATOM     19  N   UNL     1      -0.497  11.040  18.290  0.00  0.00    +0.000 NA
ATOM     20  H   UNL     1      -0.260  11.106  17.300  0.00  0.00    +0.000 HD
ATOM     21  H   UNL     1      -1.032  11.882  18.503  0.00  0.00    +0.000 HD
ENDBRANCH  14  19
ENDBRANCH   1  17
BRANCH  12  22
ATOM     22  C   UNL     1       5.162   5.739  17.169  0.00  0.00    +0.000 C 
ATOM     23  C   UNL     1       4.272   6.896  16.630  0.00  0.00    +0.000 C 
ATOM     24  C   UNL     1       6.466   6.405  17.656  0.00  0.00    +0.000 C 
ATOM     25  C   UNL     1       5.427   4.832  15.952  0.00  0.00    +0.000 C 
ENDBRANCH  12  22
BRANCH  10  26
ATOM     26  C   UNL     1       4.773   1.573  19.896  0.00  0.00    +0.000 C 
ATOM     27  O   UNL     1       5.400   1.266  20.899  0.00  0.00    +0.000 OA
BRANCH  26  28
ATOM     28  O   UNL     1       4.476   0.673  18.932  0.00  0.00    +0.000 OA
ATOM     29  H   UNL     1       5.193   0.546  18.263  0.00  0.00    +0.000 HD
ENDBRANCH  26  28
ENDBRANCH  10  26
TORSDOF 5
ENDMDL
MODEL 2
REMARK VINA RESULT:      -7.4      2.701      4.174
REMARK  Name = 
REMARK  9 active torsions:
REMARK  status: ('A' for Active; 'I' for Inactive)
REMARK    1  A    between atoms: C_1  and  C_2
REMARK    2  A    between atoms: C_2  and  N_3
REMARK    3  A    between atoms: N_6  and  C_7
REMARK    4  A    between atoms: C_16  and  C_17
REMARK    5  A    between atoms: C_17  and  O_19
REMARK    6  A    between atoms: N_21  and  C_22
REMARK    7  A    between atoms: C_22  and  C_23
REMARK    8  A    between atoms: C_22  and  C_24
REMARK    9  A    between atoms: C_22  and  C_25
REMARK                            x       y       z     vdW  Elec       q    Type
REMARK                         _______ _______ _______ _____ _____    ______ ____
ROOT
ATOM      1  C   UNL     1       1.981   7.961  19.481  0.00  0.00    +0.000 A 
ATOM      2  N   UNL     1       2.274   6.628  19.500  0.00  0.00    +0.000 NA
ATOM      3  C   UNL     1       3.104   6.070  18.577  0.00  0.00    +0.000 A 
ATOM      4  C   UNL     1       3.654   6.875  17.573  0.00  0.00    +0.000 A 
ATOM      5  C   UNL     1       3.380   8.237  17.530  0.00  0.00    +0.000 A 
ATOM      6  C   UNL     1       2.545   8.774  18.493  0.00  0.00    +0.000 A 
ATOM      7  F   UNL     1       2.276  10.087  18.418  0.00  0.00    +0.000 F 
ATOM      8  C   UNL     1       4.525   6.299  16.530  0.00  0.00    +0.000 A 
ATOM      9  O   UNL     1       5.003   6.992  15.633  0.00  0.00    +0.000 OA
ATOM     10  C   UNL     1       4.810   4.862  16.579  0.00  0.00    +0.000 A 
ATOM     11  C   UNL     1       4.255   4.177  17.588  0.00  0.00    +0.000 A 
ATOM     12  N   UNL     1       3.423   4.672  18.596  0.00  0.00    +0.000 N 
ENDROOT
BRANCH   1  17
ATOM     13  C   UNL     1      -0.801  11.119  22.036  0.00  0.00    +0.000 C 
ATOM     14  C   UNL     1       0.054   9.849  22.068  0.00  0.00    +0.000 C 
ATOM     15  C   UNL     1      -0.775   8.585  21.796  0.00  0.00    +0.000 C 
ATOM     16  C   UNL     1       0.243   7.596  21.221  0.00  0.00    +0.000 C 
ATOM     17  N   UNL     1       1.100   8.447  20.415  0.00  0.00    +0.000 N 
ATOM     18  C   UNL     1       1.087   9.830  20.899  0.00  0.00    +0.000 C 
BRANCH  14  19
ATOM     19  N   UNL     1       0.692   9.743  23.393  0.00  0.00    +0.000 NA
ATOM     20  H   UNL     1       1.688   9.554  23.280  0.00  0.00    +0.000 HD
ATOM     21  H   UNL     1       0.313   8.941  23.895  0.00  0.00    +0.000 HD
ENDBRANCH  14  19
ENDBRANCH   1  17
BRANCH  12  22
ATOM     22  C   UNL     1       2.830   3.817  19.696  0.00  0.00    +0.000 C 
ATOM     23  C   UNL     1       2.607   4.631  21.003  0.00  0.00    +0.000 C 
ATOM     24  C   UNL     1       1.442   3.273  19.298  0.00  0.00    +0.000 C 
ATOM     25  C   UNL     1       3.779   2.670  20.090  0.00  0.00    +0.000 C 
ENDBRANCH  12  22
BRANCH  10  26
ATOM     26  C   UNL     1       5.655   4.154  15.590  0.00  0.00    +0.000 C 
ATOM     27  O   UNL     1       5.362   4.046  14.409  0.00  0.00    +0.000 OA
BRANCH  26  28
ATOM     28  O   UNL     1       6.797   3.636  16.096  0.00  0.00    +0.000 OA
ATOM     29  H   UNL     1       7.297   4.256  16.683  0.00  0.00    +0.000 HD
ENDBRANCH  26  28
ENDBRANCH  10  26
TORSDOF 5
ENDMDL
MODEL 3
REMARK VINA RESULT:      -7.4      2.728      4.162
REMARK  Name = 
REMARK  9 active torsions:
REMARK  status: ('A' for Active; 'I' for Inactive)
REMARK    1  A    between atoms: C_1  and  C_2
REMARK    2  A    between atoms: C_2  and  N_3
REMARK    3  A    between atoms: N_6  and  C_7
REMARK    4  A    between atoms: C_16  and  C_17
REMARK    5  A    between atoms: C_17  and  O_19
REMARK    6  A    between atoms: N_21  and  C_22
REMARK    7  A    between atoms: C_22  and  C_23
REMARK    8  A    between atoms: C_22  and  C_24
REMARK    9  A    between atoms: C_22  and  C_25
REMARK                            x       y       z     vdW  Elec       q    Type
REMARK                         _______ _______ _______ _____ _____    ______ ____
ROOT
ATOM      1  C   UNL     1       2.032   7.941  19.411  0.00  0.00    +0.000 A 
ATOM      2  N   UNL     1       2.349   6.614  19.419  0.00  0.00    +0.000 NA
ATOM      3  C   UNL     1       3.178   6.074  18.486  0.00  0.00    +0.000 A 
ATOM      4  C   UNL     1       3.704   6.893  17.480  0.00  0.00    +0.000 A 
ATOM      5  C   UNL     1       3.407   8.251  17.446  0.00  0.00    +0.000 A 
ATOM      6  C   UNL     1       2.572   8.769  18.420  0.00  0.00    +0.000 A 
ATOM      7  F   UNL     1       2.281  10.078  18.355  0.00  0.00    +0.000 F 
ATOM      8  C   UNL     1       4.575   6.337  16.426  0.00  0.00    +0.000 A 
ATOM      9  O   UNL     1       5.032   7.043  15.527  0.00  0.00    +0.000 OA
ATOM     10  C   UNL     1       4.885   4.905  16.465  0.00  0.00    +0.000 A 
ATOM     11  C   UNL     1       4.351   4.206  17.476  0.00  0.00    +0.000 A 
ATOM     12  N   UNL     1       3.521   4.682  18.495  0.00  0.00    +0.000 N 
ENDROOT
BRANCH   1  17
ATOM     13  C   UNL     1      -0.822  11.029  21.972  0.00  0.00    +0.000 C 
ATOM     14  C   UNL     1       0.085   9.796  22.006  0.00  0.00    +0.000 C 
ATOM     15  C   UNL     1      -0.696   8.494  21.776  0.00  0.00    +0.000 C 
ATOM     16  C   UNL     1       0.350   7.538  21.196  0.00  0.00    +0.000 C 
ATOM     17  N   UNL     1       1.153   8.409  20.355  0.00  0.00    +0.000 N 
ATOM     18  C   UNL     1       1.093   9.798  20.815  0.00  0.00    +0.000 C 
BRANCH  14  19
ATOM     19  N   UNL     1       0.756   9.741  23.319  0.00  0.00    +0.000 NA
ATOM     20  H   UNL     1       0.091   9.447  24.033  0.00  0.00    +0.000 HD
ATOM     21  H   UNL     1       1.058  10.677  23.590  0.00  0.00    +0.000 HD
ENDBRANCH  14  19
ENDBRANCH   1  17
BRANCH  12  22
ATOM     22  C   UNL     1       2.954   3.812  19.596  0.00  0.00    +0.000 C 
ATOM     23  C   UNL     1       3.902   2.628  19.941  0.00  0.00    +0.000 C 
ATOM     24  C   UNL     1       2.778   4.607  20.907  0.00  0.00    +0.000 C 
ATOM     25  C   UNL     1       1.628   3.156  19.166  0.00  0.00    +0.000 C 
ENDBRANCH  12  22
BRANCH  10  26
ATOM     26  C   UNL     1       5.732   4.217  15.464  0.00  0.00    +0.000 C 
ATOM     27  O   UNL     1       6.785   3.662  15.742  0.00  0.00    +0.000 OA
BRANCH  26  28
ATOM     28  O   UNL     1       5.244   4.240  14.205  0.00  0.00    +0.000 OA
ATOM     29  H   UNL     1       5.190   3.350  13.775  0.00  0.00    +0.000 HD
ENDBRANCH  26  28
ENDBRANCH  10  26
TORSDOF 5
ENDMDL
MODEL 4
REMARK VINA RESULT:      -7.1      4.108      7.971
REMARK  Name = 
REMARK  9 active torsions:
REMARK  status: ('A' for Active; 'I' for Inactive)
REMARK    1  A    between atoms: C_1  and  C_2
REMARK    2  A    between atoms: C_2  and  N_3
REMARK    3  A    between atoms: N_6  and  C_7
REMARK    4  A    between atoms: C_16  and  C_17
REMARK    5  A    between atoms: C_17  and  O_19
REMARK    6  A    between atoms: N_21  and  C_22
REMARK    7  A    between atoms: C_22  and  C_23
REMARK    8  A    between atoms: C_22  and  C_24
REMARK    9  A    between atoms: C_22  and  C_25
REMARK                            x       y       z     vdW  Elec       q    Type
REMARK                         _______ _______ _______ _____ _____    ______ ____
ROOT
ATOM      1  C   UNL     1       2.265   6.757  19.401  0.00  0.00    +0.000 A 
ATOM      2  N   UNL     1       1.650   7.673  20.205  0.00  0.00    +0.000 NA
ATOM      3  C   UNL     1       1.525   8.975  19.832  0.00  0.00    +0.000 A 
ATOM      4  C   UNL     1       2.054   9.392  18.606  0.00  0.00    +0.000 A 
ATOM      5  C   UNL     1       2.680   8.483  17.760  0.00  0.00    +0.000 A 
ATOM      6  C   UNL     1       2.777   7.164  18.164  0.00  0.00    +0.000 A 
ATOM      7  F   UNL     1       3.407   6.309  17.342  0.00  0.00    +0.000 F 
ATOM      8  C   UNL     1       1.973  10.805  18.185  0.00  0.00    +0.000 A 
ATOM      9  O   UNL     1       2.448  11.187  17.117  0.00  0.00    +0.000 OA
ATOM     10  C   UNL     1       1.313  11.759  19.080  0.00  0.00    +0.000 A 
ATOM     11  C   UNL     1       0.820  11.264  20.223  0.00  0.00    +0.000 A 
ATOM     12  N   UNL     1       0.872   9.940  20.669  0.00  0.00    +0.000 N 
ENDROOT
BRANCH   1  17
ATOM     13  C   UNL     1       4.267   2.379  20.433  0.00  0.00    +0.000 C 
ATOM     14  C   UNL     1       3.006   3.148  20.032  0.00  0.00    +0.000 C 
ATOM     15  C   UNL     1       2.194   3.609  21.252  0.00  0.00    +0.000 C 
ATOM     16  C   UNL     1       1.434   4.837  20.743  0.00  0.00    +0.000 C 
ATOM     17  N   UNL     1       2.397   5.470  19.861  0.00  0.00    +0.000 N 
ATOM     18  C   UNL     1       3.360   4.499  19.336  0.00  0.00    +0.000 C 
BRANCH  14  19
ATOM     19  N   UNL     1       2.170   2.275  19.186  0.00  0.00    +0.000 NA
ATOM     20  H   UNL     1       1.512   2.843  18.652  0.00  0.00    +0.000 HD
ATOM     21  H   UNL     1       1.599   1.669  19.775  0.00  0.00    +0.000 HD
ENDBRANCH  14  19
ENDBRANCH   1  17
BRANCH  12  22
ATOM     22  C   UNL     1       0.294   9.471  21.987  0.00  0.00    +0.000 C 
ATOM     23  C   UNL     1      -0.591  10.565  22.650  0.00  0.00    +0.000 C 
ATOM     24  C   UNL     1      -0.624   8.246  21.794  0.00  0.00    +0.000 C 
ATOM     25  C   UNL     1       1.404   9.172  23.012  0.00  0.00    +0.000 C 
ENDBRANCH  12  22
BRANCH  10  26
ATOM     26  C   UNL     1       1.175  13.204  18.787  0.00  0.00    +0.000 C 
ATOM     27  O   UNL     1       0.147  13.835  18.982  0.00  0.00    +0.000 OA
BRANCH  26  28
ATOM     28  O   UNL     1       2.290  13.786  18.292  0.00  0.00    +0.000 OA
ATOM     29  H   UNL     1       2.159  14.718  17.987  0.00  0.00    +0.000 HD
ENDBRANCH  26  28
ENDBRANCH  10  26
TORSDOF 5
ENDMDL
MODEL 5
REMARK VINA RESULT:      -7.1      4.273      8.068
REMARK  Name = 
REMARK  9 active torsions:
REMARK  status: ('A' for Active; 'I' for Inactive)
REMARK    1  A    between atoms: C_1  and  C_2
REMARK    2  A    between atoms: C_2  and  N_3
REMARK    3  A    between atoms: N_6  and  C_7
REMARK    4  A    between atoms: C_16  and  C_17
REMARK    5  A    between atoms: C_17  and  O_19
REMARK    6  A    between atoms: N_21  and  C_22
REMARK    7  A    between atoms: C_22  and  C_23
REMARK    8  A    between atoms: C_22  and  C_24
REMARK    9  A    between atoms: C_22  and  C_25
REMARK                            x       y       z     vdW  Elec       q    Type
REMARK                         _______ _______ _______ _____ _____    ______ ____
ROOT
ATOM      1  C   UNL     1       2.216   7.207  19.286  0.00  0.00    +0.000 A 
ATOM      2  N   UNL     1       1.576   8.014  20.181  0.00  0.00    +0.000 NA
ATOM      3  C   UNL     1       1.395   9.340  19.940  0.00  0.00    +0.000 A 
ATOM      4  C   UNL     1       1.894   9.897  18.757  0.00  0.00    +0.000 A 
ATOM      5  C   UNL     1       2.545   9.101  17.821  0.00  0.00    +0.000 A 
ATOM      6  C   UNL     1       2.698   7.754  18.092  0.00  0.00    +0.000 A 
ATOM      7  F   UNL     1       3.351   7.009  17.184  0.00  0.00    +0.000 F 
ATOM      8  C   UNL     1       1.754  11.340  18.478  0.00  0.00    +0.000 A 
ATOM      9  O   UNL     1       2.202  11.845  17.450  0.00  0.00    +0.000 OA
ATOM     10  C   UNL     1       1.068  12.175  19.468  0.00  0.00    +0.000 A 
ATOM     11  C   UNL     1       0.607  11.550  20.560  0.00  0.00    +0.000 A 
ATOM     12  N   UNL     1       0.716  10.191  20.873  0.00  0.00    +0.000 N 
ENDROOT
BRANCH   1  17
ATOM     13  C   UNL     1       1.273   2.438  20.066  0.00  0.00    +0.000 C 
ATOM     14  C   UNL     1       2.066   3.674  20.498  0.00  0.00    +0.000 C 
ATOM     15  C   UNL     1       3.410   3.789  19.765  0.00  0.00    +0.000 C 
ATOM     16  C   UNL     1       3.715   5.289  19.790  0.00  0.00    +0.000 C 
ATOM     17  N   UNL     1       2.403   5.887  19.615  0.00  0.00    +0.000 N 
ATOM     18  C   UNL     1       1.341   4.990  20.075  0.00  0.00    +0.000 C 
BRANCH  14  19
ATOM     19  N   UNL     1       2.303   3.598  21.952  0.00  0.00    +0.000 NA
ATOM     20  H   UNL     1       2.315   2.621  22.247  0.00  0.00    +0.000 HD
ATOM     21  H   UNL     1       1.524   4.028  22.451  0.00  0.00    +0.000 HD
ENDBRANCH  14  19
ENDBRANCH   1  17
BRANCH  12  22
ATOM     22  C   UNL     1       0.171   9.572  22.142  0.00  0.00    +0.000 C 
ATOM     23  C   UNL     1      -0.786  10.542  22.892  0.00  0.00    +0.000 C 
ATOM     24  C   UNL     1      -0.663   8.309  21.839  0.00  0.00    +0.000 C 
ATOM     25  C   UNL     1       1.299   9.261  23.144  0.00  0.00    +0.000 C 
ENDBRANCH  12  22
BRANCH  10  26
ATOM     26  C   UNL     1       0.870  13.635  19.321  0.00  0.00    +0.000 C 
ATOM     27  O   UNL     1      -0.214  14.183  19.446  0.00  0.00    +0.000 OA
BRANCH  26  28
ATOM     28  O   UNL     1       1.997  14.328  19.045  0.00  0.00    +0.000 OA
ATOM     29  H   UNL     1       1.998  15.254  19.394  0.00  0.00    +0.000 HD
ENDBRANCH  26  28
ENDBRANCH  10  26
TORSDOF 5
ENDMDL
MODEL 6
REMARK VINA RESULT:      -7.1      2.700      4.145
REMARK  Name = 
REMARK  9 active torsions:
REMARK  status: ('A' for Active; 'I' for Inactive)
REMARK    1  A    between atoms: C_1  and  C_2
REMARK    2  A    between atoms: C_2  and  N_3
REMARK    3  A    between atoms: N_6  and  C_7
REMARK    4  A    between atoms: C_16  and  C_17
REMARK    5  A    between atoms: C_17  and  O_19
REMARK    6  A    between atoms: N_21  and  C_22
REMARK    7  A    between atoms: C_22  and  C_23
REMARK    8  A    between atoms: C_22  and  C_24
REMARK    9  A    between atoms: C_22  and  C_25
REMARK                            x       y       z     vdW  Elec       q    Type
REMARK                         _______ _______ _______ _____ _____    ______ ____
ROOT
ATOM      1  C   UNL     1       2.161   8.092  19.136  0.00  0.00    +0.000 A 
ATOM      2  N   UNL     1       2.392   6.748  19.210  0.00  0.00    +0.000 NA
ATOM      3  C   UNL     1       3.232   6.123  18.341  0.00  0.00    +0.000 A 
ATOM      4  C   UNL     1       3.858   6.867  17.335  0.00  0.00    +0.000 A 
ATOM      5  C   UNL     1       3.650   8.238  17.236  0.00  0.00    +0.000 A 
ATOM      6  C   UNL     1       2.802   8.845  18.146  0.00  0.00    +0.000 A 
ATOM      7  F   UNL     1       2.597  10.165  18.017  0.00  0.00    +0.000 F 
ATOM      8  C   UNL     1       4.744   6.218  16.349  0.00  0.00    +0.000 A 
ATOM      9  O   UNL     1       5.289   6.857  15.451  0.00  0.00    +0.000 OA
ATOM     10  C   UNL     1       4.961   4.772  16.456  0.00  0.00    +0.000 A 
ATOM     11  C   UNL     1       4.334   4.147  17.463  0.00  0.00    +0.000 A 
ATOM     12  N   UNL     1       3.486   4.714  18.419  0.00  0.00    +0.000 N 
ENDROOT
BRANCH   1  17
ATOM     13  C   UNL     1       0.186   9.715  23.343  0.00  0.00    +0.000 C 
ATOM     14  C   UNL     1      -0.061   9.067  21.978  0.00  0.00    +0.000 C 
ATOM     15  C   UNL     1      -0.335  10.106  20.882  0.00  0.00    +0.000 C 
ATOM     16  C   UNL     1       0.100   9.403  19.594  0.00  0.00    +0.000 C 
ATOM     17  N   UNL     1       1.267   8.649  20.015  0.00  0.00    +0.000 N 
ATOM     18  C   UNL     1       1.221   8.351  21.449  0.00  0.00    +0.000 C 
BRANCH  14  19
ATOM     19  N   UNL     1      -1.215   8.155  22.092  0.00  0.00    +0.000 NA
ATOM     20  H   UNL     1      -1.638   8.250  23.015  0.00  0.00    +0.000 HD
ATOM     21  H   UNL     1      -0.897   7.188  22.031  0.00  0.00    +0.000 HD
ENDBRANCH  14  19
ENDBRANCH   1  17
BRANCH  12  22
ATOM     22  C   UNL     1       2.810   3.924  19.519  0.00  0.00    +0.000 C 
ATOM     23  C   UNL     1       2.639   4.770  20.814  0.00  0.00    +0.000 C 
ATOM     24  C   UNL     1       1.386   3.492  19.109  0.00  0.00    +0.000 C 
ATOM     25  C   UNL     1       3.656   2.707  19.940  0.00  0.00    +0.000 C 
ENDBRANCH  12  22
BRANCH  10  26
ATOM     26  C   UNL     1       5.812   3.994  15.528  0.00  0.00    +0.000 C 
ATOM     27  O   UNL     1       5.509   3.770  14.365  0.00  0.00    +0.000 OA
BRANCH  26  28
ATOM     28  O   UNL     1       6.969   3.550  16.065  0.00  0.00    +0.000 OA
ATOM     29  H   UNL     1       7.149   3.891  16.977  0.00  0.00    +0.000 HD
ENDBRANCH  26  28
ENDBRANCH  10  26
TORSDOF 5
ENDMDL
MODEL 7
REMARK VINA RESULT:      -7.1      4.311      8.108
REMARK  Name = 
REMARK  9 active torsions:
REMARK  status: ('A' for Active; 'I' for Inactive)
REMARK    1  A    between atoms: C_1  and  C_2
REMARK    2  A    between atoms: C_2  and  N_3
REMARK    3  A    between atoms: N_6  and  C_7
REMARK    4  A    between atoms: C_16  and  C_17
REMARK    5  A    between atoms: C_17  and  O_19
REMARK    6  A    between atoms: N_21  and  C_22
REMARK    7  A    between atoms: C_22  and  C_23
REMARK    8  A    between atoms: C_22  and  C_24
REMARK    9  A    between atoms: C_22  and  C_25
REMARK                            x       y       z     vdW  Elec       q    Type
REMARK                         _______ _______ _______ _____ _____    ______ ____
ROOT
ATOM      1  C   UNL     1       2.162   7.345  19.313  0.00  0.00    +0.000 A 
ATOM      2  N   UNL     1       1.522   8.128  20.230  0.00  0.00    +0.000 NA
ATOM      3  C   UNL     1       1.323   9.457  20.014  0.00  0.00    +0.000 A 
ATOM      4  C   UNL     1       1.802  10.040  18.836  0.00  0.00    +0.000 A 
ATOM      5  C   UNL     1       2.453   9.270  17.879  0.00  0.00    +0.000 A 
ATOM      6  C   UNL     1       2.625   7.919  18.124  0.00  0.00    +0.000 A 
ATOM      7  F   UNL     1       3.277   7.199  17.197  0.00  0.00    +0.000 F 
ATOM      8  C   UNL     1       1.641  11.486  18.585  0.00  0.00    +0.000 A 
ATOM      9  O   UNL     1       2.072  12.015  17.561  0.00  0.00    +0.000 OA
ATOM     10  C   UNL     1       0.955  12.295  19.597  0.00  0.00    +0.000 A 
ATOM     11  C   UNL     1       0.514  11.645  20.682  0.00  0.00    +0.000 A 
ATOM     12  N   UNL     1       0.642  10.282  20.969  0.00  0.00    +0.000 N 
ENDROOT
BRANCH   1  17
ATOM     13  C   UNL     1       1.280   2.557  20.043  0.00  0.00    +0.000 C 
ATOM     14  C   UNL     1       2.073   3.793  20.474  0.00  0.00    +0.000 C 
ATOM     15  C   UNL     1       3.397   3.930  19.708  0.00  0.00    +0.000 C 
ATOM     16  C   UNL     1       3.690   5.433  19.748  0.00  0.00    +0.000 C 
ATOM     17  N   UNL     1       2.369   6.022  19.617  0.00  0.00    +0.000 N 
ATOM     18  C   UNL     1       1.327   5.109  20.091  0.00  0.00    +0.000 C 
BRANCH  14  19
ATOM     19  N   UNL     1       2.349   3.696  21.920  0.00  0.00    +0.000 NA
ATOM     20  H   UNL     1       1.723   3.011  22.343  0.00  0.00    +0.000 HD
ATOM     21  H   UNL     1       2.134   4.585  22.372  0.00  0.00    +0.000 HD
ENDBRANCH  14  19
ENDBRANCH   1  17
BRANCH  12  22
ATOM     22  C   UNL     1       0.119   9.634  22.232  0.00  0.00    +0.000 C 
ATOM     23  C   UNL     1      -0.665   8.325  21.927  0.00  0.00    +0.000 C 
ATOM     24  C   UNL     1       1.272   9.223  23.173  0.00  0.00    +0.000 C 
ATOM     25  C   UNL     1      -0.886  10.548  22.959  0.00  0.00    +0.000 C 
ENDBRANCH  12  22
BRANCH  10  26
ATOM     26  C   UNL     1       0.739  13.755  19.478  0.00  0.00    +0.000 C 
ATOM     27  O   UNL     1       1.242  14.573  20.233  0.00  0.00    +0.000 OA
BRANCH  26  28
ATOM     28  O   UNL     1      -0.060  14.122  18.452  0.00  0.00    +0.000 OA
ATOM     29  H   UNL     1      -0.347  15.068  18.481  0.00  0.00    +0.000 HD
ENDBRANCH  26  28
ENDBRANCH  10  26
TORSDOF 5
ENDMDL
MODEL 8
REMARK VINA RESULT:      -7.0      5.591      8.460
REMARK  Name = 
REMARK  9 active torsions:
REMARK  status: ('A' for Active; 'I' for Inactive)
REMARK    1  A    between atoms: C_1  and  C_2
REMARK    2  A    between atoms: C_2  and  N_3
REMARK    3  A    between atoms: N_6  and  C_7
REMARK    4  A    between atoms: C_16  and  C_17
REMARK    5  A    between atoms: C_17  and  O_19
REMARK    6  A    between atoms: N_21  and  C_22
REMARK    7  A    between atoms: C_22  and  C_23
REMARK    8  A    between atoms: C_22  and  C_24
REMARK    9  A    between atoms: C_22  and  C_25
REMARK                            x       y       z     vdW  Elec       q    Type
REMARK                         _______ _______ _______ _____ _____    ______ ____
ROOT
ATOM      1  C   UNL     1      -3.450  13.258  21.743  0.00  0.00    +0.000 A 
ATOM      2  N   UNL     1      -2.813  12.606  20.727  0.00  0.00    +0.000 NA
ATOM      3  C   UNL     1      -1.856  11.670  20.973  0.00  0.00    +0.000 A 
ATOM      4  C   UNL     1      -1.502  11.382  22.296  0.00  0.00    +0.000 A 
ATOM      5  C   UNL     1      -2.137  12.023  23.354  0.00  0.00    +0.000 A 
ATOM      6  C   UNL     1      -3.115  12.959  23.068  0.00  0.00    +0.000 A 
ATOM      7  F   UNL     1      -3.698  13.582  24.104  0.00  0.00    +0.000 F 
ATOM      8  C   UNL     1      -0.441  10.402  22.602  0.00  0.00    +0.000 A 
ATOM      9  O   UNL     1      -0.109  10.151  23.759  0.00  0.00    +0.000 OA
ATOM     10  C   UNL     1       0.226   9.729  21.483  0.00  0.00    +0.000 A 
ATOM     11  C   UNL     1      -0.194  10.056  20.254  0.00  0.00    +0.000 A 
ATOM     12  N   UNL     1      -1.190  10.976  19.911  0.00  0.00    +0.000 N 
ENDROOT
BRANCH   1  17
ATOM     13  C   UNL     1      -7.713  15.367  20.468  0.00  0.00    +0.000 C 
ATOM     14  C   UNL     1      -6.185  15.401  20.366  0.00  0.00    +0.000 C 
ATOM     15  C   UNL     1      -5.546  16.238  21.483  0.00  0.00    +0.000 C 
ATOM     16  C   UNL     1      -4.144  15.643  21.630  0.00  0.00    +0.000 C 
ATOM     17  N   UNL     1      -4.371  14.224  21.421  0.00  0.00    +0.000 N 
ATOM     18  C   UNL     1      -5.567  13.989  20.610  0.00  0.00    +0.000 C 
BRANCH  14  19
ATOM     19  N   UNL     1      -5.814  15.965  19.054  0.00  0.00    +0.000 NA
ATOM     20  H   UNL     1      -4.820  16.197  19.050  0.00  0.00    +0.000 HD
ATOM     21  H   UNL     1      -6.305  16.846  18.907  0.00  0.00    +0.000 HD
ENDBRANCH  14  19
ENDBRANCH   1  17
BRANCH  12  22
ATOM     22  C   UNL     1      -1.592  11.290  18.486  0.00  0.00    +0.000 C 
ATOM     23  C   UNL     1      -3.131  11.471  18.348  0.00  0.00    +0.000 C 
ATOM     24  C   UNL     1      -0.968  12.617  18.005  0.00  0.00    +0.000 C 
ATOM     25  C   UNL     1      -1.234  10.135  17.532  0.00  0.00    +0.000 C 
ENDBRANCH  12  22
BRANCH  10  26
ATOM     26  C   UNL     1       1.313   8.737  21.647  0.00  0.00    +0.000 C 
ATOM     27  O   UNL     1       1.418   7.734  20.958  0.00  0.00    +0.000 OA
BRANCH  26  28
ATOM     28  O   UNL     1       2.199   9.033  22.624  0.00  0.00    +0.000 OA
ATOM     29  H   UNL     1       3.130   9.139  22.306  0.00  0.00    +0.000 HD
ENDBRANCH  26  28
ENDBRANCH  10  26
TORSDOF 5
ENDMDL
MODEL 9
REMARK VINA RESULT:      -7.0      0.870      1.411
REMARK  Name = 
REMARK  9 active torsions:
REMARK  status: ('A' for Active; 'I' for Inactive)
REMARK    1  A    between atoms: C_1  and  C_2
REMARK    2  A    between atoms: C_2  and  N_3
REMARK    3  A    between atoms: N_6  and  C_7
REMARK    4  A    between atoms: C_16  and  C_17
REMARK    5  A    between atoms: C_17  and  O_19
REMARK    6  A    between atoms: N_21  and  C_22
REMARK    7  A    between atoms: C_22  and  C_23
REMARK    8  A    between atoms: C_22  and  C_24
REMARK    9  A    between atoms: C_22  and  C_25
REMARK                            x       y       z     vdW  Elec       q    Type
REMARK                         _______ _______ _______ _____ _____    ______ ____
ROOT
ATOM      1  C   UNL     1       1.697   7.699  19.855  0.00  0.00    +0.000 A 
ATOM      2  N   UNL     1       2.697   7.187  19.079  0.00  0.00    +0.000 NA
ATOM      3  C   UNL     1       3.107   5.896  19.208  0.00  0.00    +0.000 A 
ATOM      4  C   UNL     1       2.505   5.078  20.171  0.00  0.00    +0.000 A 
ATOM      5  C   UNL     1       1.480   5.566  20.973  0.00  0.00    +0.000 A 
ATOM      6  C   UNL     1       1.078   6.879  20.805  0.00  0.00    +0.000 A 
ATOM      7  F   UNL     1       0.102   7.336  21.606  0.00  0.00    +0.000 F 
ATOM      8  C   UNL     1       2.951   3.685  20.368  0.00  0.00    +0.000 A 
ATOM      9  O   UNL     1       2.441   2.959  21.222  0.00  0.00    +0.000 OA
ATOM     10  C   UNL     1       4.033   3.174  19.521  0.00  0.00    +0.000 A 
ATOM     11  C   UNL     1       4.533   4.025  18.615  0.00  0.00    +0.000 A 
ATOM     12  N   UNL     1       4.150   5.351  18.390  0.00  0.00    +0.000 N 
ENDROOT
BRANCH   1  17
ATOM     13  C   UNL     1      -0.438  11.780  18.116  0.00  0.00    +0.000 C 
ATOM     14  C   UNL     1       0.819  11.151  18.723  0.00  0.00    +0.000 C 
ATOM     15  C   UNL     1       0.821  11.222  20.257  0.00  0.00    +0.000 C 
ATOM     16  C   UNL     1       1.706  10.045  20.677  0.00  0.00    +0.000 C 
ATOM     17  N   UNL     1       1.366   9.022  19.703  0.00  0.00    +0.000 N 
ATOM     18  C   UNL     1       0.869   9.614  18.459  0.00  0.00    +0.000 C 
BRANCH  14  19
ATOM     19  N   UNL     1       2.001  11.858  18.196  0.00  0.00    +0.000 NA
ATOM     20  H   UNL     1       2.800  11.223  18.177  0.00  0.00    +0.000 HD
ATOM     21  H   UNL     1       2.262  12.613  18.830  0.00  0.00    +0.000 HD
ENDBRANCH  14  19
ENDBRANCH   1  17
BRANCH  12  22
ATOM     22  C   UNL     1       4.783   6.245  17.345  0.00  0.00    +0.000 C 
ATOM     23  C   UNL     1       5.085   5.471  16.030  0.00  0.00    +0.000 C 
ATOM     24  C   UNL     1       3.839   7.399  16.947  0.00  0.00    +0.000 C 
ATOM     25  C   UNL     1       6.145   6.786  17.818  0.00  0.00    +0.000 C 
ENDBRANCH  12  22
BRANCH  10  26
ATOM     26  C   UNL     1       4.584   1.804  19.623  0.00  0.00    +0.000 C 
ATOM     27  O   UNL     1       5.309   1.436  20.535  0.00  0.00    +0.000 OA
BRANCH  26  28
ATOM     28  O   UNL     1       4.212   0.975  18.623  0.00  0.00    +0.000 OA
ATOM     29  H   UNL     1       3.485   1.328  18.052  0.00  0.00    +0.000 HD
ENDBRANCH  26  28
ENDBRANCH  10  26
TORSDOF 5
ENDMDL
