MODEL 1
REMARK VINA RESULT:      -8.9      0.000      0.000
REMARK  Name = 
REMARK  4 active torsions:
REMARK  status: ('A' for Active; 'I' for Inactive)
REMARK    1  A    between atoms: C_1  and  S_2
REMARK    2  A    between atoms: S_2  and  C_3
REMARK    3  A    between atoms: C_6  and  C_7
REMARK    4  A    between atoms: N_17  and  C_18
REMARK                            x       y       z     vdW  Elec       q    Type
REMARK                         _______ _______ _______ _____ _____    ______ ____
ROOT
ATOM      1  C   UNL     1       3.669   6.071  18.258  0.00  0.00    +0.000 C 
ATOM      2  N   UNL     1       4.164   6.566  16.966  0.00  0.00    +0.000 N 
ATOM      3  C   UNL     1       5.000   5.681  16.280  0.00  0.00    +0.000 A 
ATOM      4  C   UNL     1       5.926   6.186  15.367  0.00  0.00    +0.000 A 
ATOM      5  C   UNL     1       6.708   5.324  14.594  0.00  0.00    +0.000 A 
ATOM      6  C   UNL     1       6.536   3.947  14.705  0.00  0.00    +0.000 A 
ATOM      7  C   UNL     1       5.576   3.437  15.578  0.00  0.00    +0.000 A 
ATOM      8  C   UNL     1       4.799   4.309  16.355  0.00  0.00    +0.000 A 
ATOM      9  C   UNL     1       3.741   3.799  17.253  0.00  0.00    +0.000 C 
ATOM     10  O   UNL     1       3.470   2.601  17.167  0.00  0.00    +0.000 OA
ATOM     11  N   UNL     1       3.143   4.704  18.157  0.00  0.00    +0.000 N 
ATOM     12  H   UNL     1       3.388   6.803  16.354  0.00  0.00    +0.000 HD
ENDROOT
BRANCH  11  13
ATOM     13  C   UNL     1       2.573   4.085  19.341  0.00  0.00    +0.000 A 
ATOM     14  C   UNL     1       1.179   3.958  19.461  0.00  0.00    +0.000 A 
ATOM     15  C   UNL     1       0.602   3.218  20.501  0.00  0.00    +0.000 A 
ATOM     16  C   UNL     1       1.407   2.581  21.442  0.00  0.00    +0.000 A 
ATOM     17  C   UNL     1       2.790   2.721  21.363  0.00  0.00    +0.000 A 
ATOM     18  C   UNL     1       3.359   3.473  20.333  0.00  0.00    +0.000 A 
ATOM     19  F   UNL     1       4.699   3.496  20.273  0.00  0.00    +0.000 F 
ENDBRANCH  11  13
BRANCH   1  23
ATOM     20  C   UNL     1       1.098   9.308  19.672  0.00  0.00    +0.000 A 
ATOM     21  C   UNL     1       1.457   9.227  18.326  0.00  0.00    +0.000 A 
ATOM     22  C   UNL     1       2.190   8.133  17.845  0.00  0.00    +0.000 A 
ATOM     23  C   UNL     1       2.640   7.120  18.714  0.00  0.00    +0.000 A 
ATOM     24  C   UNL     1       2.242   7.190  20.057  0.00  0.00    +0.000 A 
ATOM     25  C   UNL     1       1.474   8.264  20.525  0.00  0.00    +0.000 A 
BRANCH  20  27
ATOM     26  C   UNL     1       0.010  10.176  22.114  0.00  0.00    +0.000 C 
ATOM     27  S   UNL     1       0.270  10.714  20.404  0.00  0.00    +0.000 S 
ENDBRANCH  20  27
ENDBRANCH   1  23
TORSDOF 3
ENDMDL
MODEL 2
REMARK VINA RESULT:      -8.8      0.981      1.343
REMARK  Name = 
REMARK  4 active torsions:
REMARK  status: ('A' for Active; 'I' for Inactive)
REMARK    1  A    between atoms: C_1  and  S_2
REMARK    2  A    between atoms: S_2  and  C_3
REMARK    3  A    between atoms: C_6  and  C_7
REMARK    4  A    between atoms: N_17  and  C_18
REMARK                            x       y       z     vdW  Elec       q    Type
REMARK                         _______ _______ _______ _____ _____    ______ ____
ROOT
ATOM      1  C   UNL     1       3.716   5.959  18.348  0.00  0.00    +0.000 C 
ATOM      2  N   UNL     1       4.278   6.557  17.129  0.00  0.00    +0.000 N 
ATOM      3  C   UNL     1       5.142   5.727  16.411  0.00  0.00    +0.000 A 
ATOM      4  C   UNL     1       6.115   6.299  15.591  0.00  0.00    +0.000 A 
ATOM      5  C   UNL     1       6.929   5.498  14.786  0.00  0.00    +0.000 A 
ATOM      6  C   UNL     1       6.744   4.118  14.770  0.00  0.00    +0.000 A 
ATOM      7  C   UNL     1       5.738   3.545  15.548  0.00  0.00    +0.000 A 
ATOM      8  C   UNL     1       4.929   4.355  16.358  0.00  0.00    +0.000 A 
ATOM      9  C   UNL     1       3.825   3.781  17.156  0.00  0.00    +0.000 C 
ATOM     10  O   UNL     1       3.552   2.597  16.954  0.00  0.00    +0.000 OA
ATOM     11  N   UNL     1       3.188   4.611  18.104  0.00  0.00    +0.000 N 
ATOM     12  H   UNL     1       3.534   6.854  16.503  0.00  0.00    +0.000 HD
ENDROOT
BRANCH  11  13
ATOM     13  C   UNL     1       2.557   3.898  19.201  0.00  0.00    +0.000 A 
ATOM     14  C   UNL     1       3.264   3.688  20.397  0.00  0.00    +0.000 A 
ATOM     15  C   UNL     1       2.636   3.160  21.532  0.00  0.00    +0.000 A 
ATOM     16  C   UNL     1       1.282   2.835  21.498  0.00  0.00    +0.000 A 
ATOM     17  C   UNL     1       0.569   3.003  20.314  0.00  0.00    +0.000 A 
ATOM     18  C   UNL     1       1.205   3.515  19.182  0.00  0.00    +0.000 A 
ATOM     19  F   UNL     1       0.437   3.726  18.103  0.00  0.00    +0.000 F 
ENDBRANCH  11  13
BRANCH   1  23
ATOM     20  C   UNL     1       1.098   9.098  19.891  0.00  0.00    +0.000 A 
ATOM     21  C   UNL     1       1.486   9.097  18.551  0.00  0.00    +0.000 A 
ATOM     22  C   UNL     1       2.235   8.035  18.024  0.00  0.00    +0.000 A 
ATOM     23  C   UNL     1       2.672   6.976  18.842  0.00  0.00    +0.000 A 
ATOM     24  C   UNL     1       2.246   6.965  20.178  0.00  0.00    +0.000 A 
ATOM     25  C   UNL     1       1.462   8.008  20.690  0.00  0.00    +0.000 A 
BRANCH  20  27
ATOM     26  C   UNL     1      -0.070   9.808  22.347  0.00  0.00    +0.000 C 
ATOM     27  S   UNL     1       0.247  10.456  20.686  0.00  0.00    +0.000 S 
ENDBRANCH  20  27
ENDBRANCH   1  23
TORSDOF 3
ENDMDL
MODEL 3
REMARK VINA RESULT:      -8.6      0.652      1.262
REMARK  Name = 
REMARK  4 active torsions:
REMARK  status: ('A' for Active; 'I' for Inactive)
REMARK    1  A    between atoms: C_1  and  S_2
REMARK    2  A    between atoms: S_2  and  C_3
REMARK    3  A    between atoms: C_6  and  C_7
REMARK    4  A    between atoms: N_17  and  C_18
REMARK                            x       y       z     vdW  Elec       q    Type
REMARK                         _______ _______ _______ _____ _____    ______ ____
ROOT
ATOM      1  C   UNL     1       3.891   6.070  18.201  0.00  0.00    +0.000 C 
ATOM      2  N   UNL     1       4.407   6.556  16.914  0.00  0.00    +0.000 N 
ATOM      3  C   UNL     1       5.127   5.613  16.176  0.00  0.00    +0.000 A 
ATOM      4  C   UNL     1       6.082   6.049  15.257  0.00  0.00    +0.000 A 
ATOM      5  C   UNL     1       6.749   5.137  14.435  0.00  0.00    +0.000 A 
ATOM      6  C   UNL     1       6.433   3.783  14.504  0.00  0.00    +0.000 A 
ATOM      7  C   UNL     1       5.444   3.347  15.385  0.00  0.00    +0.000 A 
ATOM      8  C   UNL     1       4.783   4.268  16.211  0.00  0.00    +0.000 A 
ATOM      9  C   UNL     1       3.697   3.842  17.118  0.00  0.00    +0.000 C 
ATOM     10  O   UNL     1       3.297   2.683  16.999  0.00  0.00    +0.000 OA
ATOM     11  N   UNL     1       3.219   4.771  18.068  0.00  0.00    +0.000 N 
ATOM     12  H   UNL     1       3.647   6.897  16.331  0.00  0.00    +0.000 HD
ENDROOT
BRANCH  11  13
ATOM     13  C   UNL     1       2.613   4.173  19.245  0.00  0.00    +0.000 A 
ATOM     14  C   UNL     1       1.214   4.117  19.358  0.00  0.00    +0.000 A 
ATOM     15  C   UNL     1       0.595   3.400  20.390  0.00  0.00    +0.000 A 
ATOM     16  C   UNL     1       1.363   2.717  21.330  0.00  0.00    +0.000 A 
ATOM     17  C   UNL     1       2.751   2.787  21.258  0.00  0.00    +0.000 A 
ATOM     18  C   UNL     1       3.362   3.516  20.236  0.00  0.00    +0.000 A 
ATOM     19  F   UNL     1       4.702   3.472  20.182  0.00  0.00    +0.000 F 
ENDBRANCH  11  13
BRANCH   1  23
ATOM     20  C   UNL     1       0.984   9.046  19.535  0.00  0.00    +0.000 A 
ATOM     21  C   UNL     1       1.470   8.086  20.423  0.00  0.00    +0.000 A 
ATOM     22  C   UNL     1       2.483   7.198  20.033  0.00  0.00    +0.000 A 
ATOM     23  C   UNL     1       2.991   7.206  18.719  0.00  0.00    +0.000 A 
ATOM     24  C   UNL     1       2.524   8.198  17.845  0.00  0.00    +0.000 A 
ATOM     25  C   UNL     1       1.541   9.110  18.253  0.00  0.00    +0.000 A 
BRANCH  20  27
ATOM     26  C   UNL     1      -1.049  10.501  18.250  0.00  0.00    +0.000 C 
ATOM     27  S   UNL     1      -0.383  10.142  19.896  0.00  0.00    +0.000 S 
ENDBRANCH  20  27
ENDBRANCH   1  23
TORSDOF 3
ENDMDL
MODEL 4
REMARK VINA RESULT:      -8.1      1.182      1.839
REMARK  Name = 
REMARK  4 active torsions:
REMARK  status: ('A' for Active; 'I' for Inactive)
REMARK    1  A    between atoms: C_1  and  S_2
REMARK    2  A    between atoms: S_2  and  C_3
REMARK    3  A    between atoms: C_6  and  C_7
REMARK    4  A    between atoms: N_17  and  C_18
REMARK                            x       y       z     vdW  Elec       q    Type
REMARK                         _______ _______ _______ _____ _____    ______ ____
ROOT
ATOM      1  C   UNL     1       3.971   6.001  18.207  0.00  0.00    +0.000 C 
ATOM      2  N   UNL     1       4.554   6.553  16.976  0.00  0.00    +0.000 N 
ATOM      3  C   UNL     1       5.298   5.645  16.219  0.00  0.00    +0.000 A 
ATOM      4  C   UNL     1       6.300   6.121  15.372  0.00  0.00    +0.000 A 
ATOM      5  C   UNL     1       6.996   5.249  14.531  0.00  0.00    +0.000 A 
ATOM      6  C   UNL     1       6.663   3.898  14.506  0.00  0.00    +0.000 A 
ATOM      7  C   UNL     1       5.628   3.425  15.311  0.00  0.00    +0.000 A 
ATOM      8  C   UNL     1       4.938   4.305  16.158  0.00  0.00    +0.000 A 
ATOM      9  C   UNL     1       3.805   3.842  16.987  0.00  0.00    +0.000 C 
ATOM     10  O   UNL     1       3.399   2.697  16.781  0.00  0.00    +0.000 OA
ATOM     11  N   UNL     1       3.293   4.721  17.966  0.00  0.00    +0.000 N 
ATOM     12  H   UNL     1       3.826   6.937  16.378  0.00  0.00    +0.000 HD
ENDROOT
BRANCH  11  13
ATOM     13  C   UNL     1       2.625   4.064  19.076  0.00  0.00    +0.000 A 
ATOM     14  C   UNL     1       3.316   3.853  20.281  0.00  0.00    +0.000 A 
ATOM     15  C   UNL     1       2.659   3.382  21.425  0.00  0.00    +0.000 A 
ATOM     16  C   UNL     1       1.292   3.115  21.391  0.00  0.00    +0.000 A 
ATOM     17  C   UNL     1       0.594   3.284  20.198  0.00  0.00    +0.000 A 
ATOM     18  C   UNL     1       1.258   3.740  19.058  0.00  0.00    +0.000 A 
ATOM     19  F   UNL     1       0.505   3.957  17.969  0.00  0.00    +0.000 F 
ENDBRANCH  11  13
BRANCH   1  23
ATOM     20  C   UNL     1       1.036   8.928  19.585  0.00  0.00    +0.000 A 
ATOM     21  C   UNL     1       1.495   7.929  20.445  0.00  0.00    +0.000 A 
ATOM     22  C   UNL     1       2.517   7.055  20.045  0.00  0.00    +0.000 A 
ATOM     23  C   UNL     1       3.060   7.116  18.747  0.00  0.00    +0.000 A 
ATOM     24  C   UNL     1       2.620   8.146  17.904  0.00  0.00    +0.000 A 
ATOM     25  C   UNL     1       1.628   9.044  18.323  0.00  0.00    +0.000 A 
BRANCH  20  27
ATOM     26  C   UNL     1      -1.018  10.365  18.313  0.00  0.00    +0.000 C 
ATOM     27  S   UNL     1      -0.338  10.011  19.955  0.00  0.00    +0.000 S 
ENDBRANCH  20  27
ENDBRANCH   1  23
TORSDOF 3
ENDMDL
MODEL 5
REMARK VINA RESULT:      -7.9      2.789      5.998
REMARK  Name = 
REMARK  4 active torsions:
REMARK  status: ('A' for Active; 'I' for Inactive)
REMARK    1  A    between atoms: C_1  and  S_2
REMARK    2  A    between atoms: S_2  and  C_3
REMARK    3  A    between atoms: C_6  and  C_7
REMARK    4  A    between atoms: N_17  and  C_18
REMARK                            x       y       z     vdW  Elec       q    Type
REMARK                         _______ _______ _______ _____ _____    ______ ____
ROOT
ATOM      1  C   UNL     1       2.535   6.837  18.174  0.00  0.00    +0.000 C 
ATOM      2  N   UNL     1       2.685   8.279  17.935  0.00  0.00    +0.000 N 
ATOM      3  C   UNL     1       1.756   9.085  18.598  0.00  0.00    +0.000 A 
ATOM      4  C   UNL     1       1.443  10.340  18.074  0.00  0.00    +0.000 A 
ATOM      5  C   UNL     1       0.593  11.208  18.763  0.00  0.00    +0.000 A 
ATOM      6  C   UNL     1       0.081  10.836  20.003  0.00  0.00    +0.000 A 
ATOM      7  C   UNL     1       0.430   9.604  20.555  0.00  0.00    +0.000 A 
ATOM      8  C   UNL     1       1.280   8.736  19.855  0.00  0.00    +0.000 A 
ATOM      9  C   UNL     1       1.705   7.445  20.436  0.00  0.00    +0.000 C 
ATOM     10  O   UNL     1       1.412   7.244  21.616  0.00  0.00    +0.000 OA
ATOM     11  N   UNL     1       2.384   6.530  19.602  0.00  0.00    +0.000 N 
ATOM     12  H   UNL     1       3.616   8.590  18.201  0.00  0.00    +0.000 HD
ENDROOT
BRANCH  11  13
ATOM     13  C   UNL     1       2.269   5.141  20.010  0.00  0.00    +0.000 A 
ATOM     14  C   UNL     1       1.003   4.535  20.075  0.00  0.00    +0.000 A 
ATOM     15  C   UNL     1       0.865   3.159  20.298  0.00  0.00    +0.000 A 
ATOM     16  C   UNL     1       1.993   2.356  20.454  0.00  0.00    +0.000 A 
ATOM     17  C   UNL     1       3.256   2.940  20.427  0.00  0.00    +0.000 A 
ATOM     18  C   UNL     1       3.386   4.314  20.220  0.00  0.00    +0.000 A 
ATOM     19  F   UNL     1       4.635   4.794  20.125  0.00  0.00    +0.000 F 
ENDBRANCH  11  13
BRANCH   1  23
ATOM     20  C   UNL     1       5.865   5.169  15.891  0.00  0.00    +0.000 A 
ATOM     21  C   UNL     1       5.971   6.433  16.474  0.00  0.00    +0.000 A 
ATOM     22  C   UNL     1       4.950   6.928  17.298  0.00  0.00    +0.000 A 
ATOM     23  C   UNL     1       3.765   6.196  17.508  0.00  0.00    +0.000 A 
ATOM     24  C   UNL     1       3.684   4.912  16.950  0.00  0.00    +0.000 A 
ATOM     25  C   UNL     1       4.725   4.404  16.161  0.00  0.00    +0.000 A 
BRANCH  20  27
ATOM     26  C   UNL     1       5.996   3.801  13.439  0.00  0.00    +0.000 C 
ATOM     27  S   UNL     1       7.053   4.499  14.734  0.00  0.00    +0.000 S 
ENDBRANCH  20  27
ENDBRANCH   1  23
TORSDOF 3
ENDMDL
MODEL 6
REMARK VINA RESULT:      -7.8      2.930      6.113
REMARK  Name = 
REMARK  4 active torsions:
REMARK  status: ('A' for Active; 'I' for Inactive)
REMARK    1  A    between atoms: C_1  and  S_2
REMARK    2  A    between atoms: S_2  and  C_3
REMARK    3  A    between atoms: C_6  and  C_7
REMARK    4  A    between atoms: N_17  and  C_18
REMARK                            x       y       z     vdW  Elec       q    Type
REMARK                         _______ _______ _______ _____ _____    ______ ____
ROOT
ATOM      1  C   UNL     1       2.541   6.849  18.182  0.00  0.00    +0.000 C 
ATOM      2  N   UNL     1       2.737   8.295  18.011  0.00  0.00    +0.000 N 
ATOM      3  C   UNL     1       1.780   9.096  18.639  0.00  0.00    +0.000 A 
ATOM      4  C   UNL     1       1.531  10.377  18.145  0.00  0.00    +0.000 A 
ATOM      5  C   UNL     1       0.652  11.238  18.807  0.00  0.00    +0.000 A 
ATOM      6  C   UNL     1       0.046  10.831  19.992  0.00  0.00    +0.000 A 
ATOM      7  C   UNL     1       0.331   9.571  20.518  0.00  0.00    +0.000 A 
ATOM      8  C   UNL     1       1.210   8.710  19.845  0.00  0.00    +0.000 A 
ATOM      9  C   UNL     1       1.567   7.389  20.403  0.00  0.00    +0.000 C 
ATOM     10  O   UNL     1       1.187   7.150  21.550  0.00  0.00    +0.000 OA
ATOM     11  N   UNL     1       2.284   6.491  19.582  0.00  0.00    +0.000 N 
ATOM     12  H   UNL     1       3.653   8.573  18.354  0.00  0.00    +0.000 HD
ENDROOT
BRANCH  11  13
ATOM     13  C   UNL     1       2.112   5.091  19.927  0.00  0.00    +0.000 A 
ATOM     14  C   UNL     1       2.584   4.612  21.160  0.00  0.00    +0.000 A 
ATOM     15  C   UNL     1       2.288   3.315  21.600  0.00  0.00    +0.000 A 
ATOM     16  C   UNL     1       1.506   2.469  20.817  0.00  0.00    +0.000 A 
ATOM     17  C   UNL     1       1.056   2.911  19.576  0.00  0.00    +0.000 A 
ATOM     18  C   UNL     1       1.368   4.198  19.137  0.00  0.00    +0.000 A 
ATOM     19  F   UNL     1       0.832   4.583  17.968  0.00  0.00    +0.000 F 
ENDBRANCH  11  13
BRANCH   1  23
ATOM     20  C   UNL     1       5.974   5.166  16.067  0.00  0.00    +0.000 A 
ATOM     21  C   UNL     1       6.047   6.440  16.631  0.00  0.00    +0.000 A 
ATOM     22  C   UNL     1       4.990   6.942  17.404  0.00  0.00    +0.000 A 
ATOM     23  C   UNL     1       3.802   6.205  17.578  0.00  0.00    +0.000 A 
ATOM     24  C   UNL     1       3.753   4.911  17.040  0.00  0.00    +0.000 A 
ATOM     25  C   UNL     1       4.828   4.398  16.303  0.00  0.00    +0.000 A 
BRANCH  20  27
ATOM     26  C   UNL     1       6.219   3.835  13.603  0.00  0.00    +0.000 C 
ATOM     27  S   UNL     1       7.212   4.484  14.971  0.00  0.00    +0.000 S 
ENDBRANCH  20  27
ENDBRANCH   1  23
TORSDOF 3
ENDMDL
MODEL 7
REMARK VINA RESULT:      -7.6      2.770      5.981
REMARK  Name = 
REMARK  4 active torsions:
REMARK  status: ('A' for Active; 'I' for Inactive)
REMARK    1  A    between atoms: C_1  and  S_2
REMARK    2  A    between atoms: S_2  and  C_3
REMARK    3  A    between atoms: C_6  and  C_7
REMARK    4  A    between atoms: N_17  and  C_18
REMARK                            x       y       z     vdW  Elec       q    Type
REMARK                         _______ _______ _______ _____ _____    ______ ____
ROOT
ATOM      1  C   UNL     1       2.996   6.285  17.780  0.00  0.00    +0.000 C 
ATOM      2  N   UNL     1       3.103   7.750  17.810  0.00  0.00    +0.000 N 
ATOM      3  C   UNL     1       2.176   8.389  18.638  0.00  0.00    +0.000 A 
ATOM      4  C   UNL     1       1.816   9.710  18.368  0.00  0.00    +0.000 A 
ATOM      5  C   UNL     1       0.967  10.408  19.231  0.00  0.00    +0.000 A 
ATOM      6  C   UNL     1       0.507   9.796  20.394  0.00  0.00    +0.000 A 
ATOM      7  C   UNL     1       0.905   8.495  20.696  0.00  0.00    +0.000 A 
ATOM      8  C   UNL     1       1.752   7.798  19.821  0.00  0.00    +0.000 A 
ATOM      9  C   UNL     1       2.229   6.436  20.139  0.00  0.00    +0.000 C 
ATOM     10  O   UNL     1       1.980   6.010  21.268  0.00  0.00    +0.000 OA
ATOM     11  N   UNL     1       2.902   5.713  19.129  0.00  0.00    +0.000 N 
ATOM     12  H   UNL     1       4.034   8.034  18.103  0.00  0.00    +0.000 HD
ENDROOT
BRANCH  11  13
ATOM     13  C   UNL     1       2.835   4.270  19.274  0.00  0.00    +0.000 A 
ATOM     14  C   UNL     1       1.630   3.596  19.009  0.00  0.00    +0.000 A 
ATOM     15  C   UNL     1       1.571   2.197  18.972  0.00  0.00    +0.000 A 
ATOM     16  C   UNL     1       2.719   1.439  19.192  0.00  0.00    +0.000 A 
ATOM     17  C   UNL     1       3.916   2.084  19.490  0.00  0.00    +0.000 A 
ATOM     18  C   UNL     1       3.965   3.478  19.541  0.00  0.00    +0.000 A 
ATOM     19  F   UNL     1       5.169   4.032  19.752  0.00  0.00    +0.000 F 
ENDBRANCH  11  13
BRANCH   1  23
ATOM     20  C   UNL     1       6.255   5.112  15.117  0.00  0.00    +0.000 A 
ATOM     21  C   UNL     1       6.286   6.344  15.772  0.00  0.00    +0.000 A 
ATOM     22  C   UNL     1       5.300   6.680  16.711  0.00  0.00    +0.000 A 
ATOM     23  C   UNL     1       4.219   5.817  16.971  0.00  0.00    +0.000 A 
ATOM     24  C   UNL     1       4.216   4.566  16.338  0.00  0.00    +0.000 A 
ATOM     25  C   UNL     1       5.226   4.217  15.431  0.00  0.00    +0.000 A 
BRANCH  20  27
ATOM     26  C   UNL     1       6.352   3.648  12.720  0.00  0.00    +0.000 C 
ATOM     27  S   UNL     1       7.394   4.639  13.822  0.00  0.00    +0.000 S 
ENDBRANCH  20  27
ENDBRANCH   1  23
TORSDOF 3
ENDMDL
MODEL 8
REMARK VINA RESULT:      -7.4      2.814      6.083
REMARK  Name = 
REMARK  4 active torsions:
REMARK  status: ('A' for Active; 'I' for Inactive)
REMARK    1  A    between atoms: C_1  and  S_2
REMARK    2  A    between atoms: S_2  and  C_3
REMARK    3  A    between atoms: C_6  and  C_7
REMARK    4  A    between atoms: N_17  and  C_18
REMARK                            x       y       z     vdW  Elec       q    Type
REMARK                         _______ _______ _______ _____ _____    ______ ____
ROOT
ATOM      1  C   UNL     1       2.169   7.030  18.265  0.00  0.00    +0.000 C 
ATOM      2  N   UNL     1       2.242   8.465  17.960  0.00  0.00    +0.000 N 
ATOM      3  C   UNL     1       1.392   9.272  18.721  0.00  0.00    +0.000 A 
ATOM      4  C   UNL     1       0.973  10.499  18.206  0.00  0.00    +0.000 A 
ATOM      5  C   UNL     1       0.203  11.372  18.980  0.00  0.00    +0.000 A 
ATOM      6  C   UNL     1      -0.117  11.033  20.292  0.00  0.00    +0.000 A 
ATOM      7  C   UNL     1       0.342   9.831  20.829  0.00  0.00    +0.000 A 
ATOM      8  C   UNL     1       1.109   8.958  20.044  0.00  0.00    +0.000 A 
ATOM      9  C   UNL     1       1.650   7.701  20.601  0.00  0.00    +0.000 C 
ATOM     10  O   UNL     1       1.532   7.536  21.816  0.00  0.00    +0.000 OA
ATOM     11  N   UNL     1       2.230   6.772  19.709  0.00  0.00    +0.000 N 
ATOM     12  H   UNL     1       3.192   8.808  18.080  0.00  0.00    +0.000 HD
ENDROOT
BRANCH  11  13
ATOM     13  C   UNL     1       2.215   5.397  20.176  0.00  0.00    +0.000 A 
ATOM     14  C   UNL     1       0.988   4.738  20.366  0.00  0.00    +0.000 A 
ATOM     15  C   UNL     1       0.935   3.367  20.648  0.00  0.00    +0.000 A 
ATOM     16  C   UNL     1       2.107   2.621  20.741  0.00  0.00    +0.000 A 
ATOM     17  C   UNL     1       3.336   3.260  20.590  0.00  0.00    +0.000 A 
ATOM     18  C   UNL     1       3.383   4.630  20.324  0.00  0.00    +0.000 A 
ATOM     19  F   UNL     1       4.596   5.161  20.110  0.00  0.00    +0.000 F 
ENDBRANCH  11  13
BRANCH   1  23
ATOM     20  C   UNL     1       5.610   5.137  16.352  0.00  0.00    +0.000 A 
ATOM     21  C   UNL     1       4.460   4.397  16.628  0.00  0.00    +0.000 A 
ATOM     22  C   UNL     1       3.313   5.021  17.141  0.00  0.00    +0.000 A 
ATOM     23  C   UNL     1       3.310   6.395  17.452  0.00  0.00    +0.000 A 
ATOM     24  C   UNL     1       4.457   7.137  17.136  0.00  0.00    +0.000 A 
ATOM     25  C   UNL     1       5.586   6.517  16.585  0.00  0.00    +0.000 A 
BRANCH  20  27
ATOM     26  C   UNL     1       7.164   4.783  14.037  0.00  0.00    +0.000 C 
ATOM     27  S   UNL     1       7.156   4.418  15.811  0.00  0.00    +0.000 S 
ENDBRANCH  20  27
ENDBRANCH   1  23
TORSDOF 3
ENDMDL
MODEL 9
REMARK VINA RESULT:      -7.3      3.709      7.090
REMARK  Name = 
REMARK  4 active torsions:
REMARK  status: ('A' for Active; 'I' for Inactive)
REMARK    1  A    between atoms: C_1  and  S_2
REMARK    2  A    between atoms: S_2  and  C_3
REMARK    3  A    between atoms: C_6  and  C_7
REMARK    4  A    between atoms: N_17  and  C_18
REMARK                            x       y       z     vdW  Elec       q    Type
REMARK                         _______ _______ _______ _____ _____    ______ ____
ROOT
ATOM      1  C   UNL     1       4.751   3.870  17.363  0.00  0.00    +0.000 C 
ATOM      2  N   UNL     1       3.448   3.232  17.130  0.00  0.00    +0.000 N 
ATOM      3  C   UNL     1       2.571   3.272  18.218  0.00  0.00    +0.000 A 
ATOM      4  C   UNL     1       1.579   2.298  18.332  0.00  0.00    +0.000 A 
ATOM      5  C   UNL     1       0.627   2.366  19.352  0.00  0.00    +0.000 A 
ATOM      6  C   UNL     1       0.643   3.436  20.243  0.00  0.00    +0.000 A 
ATOM      7  C   UNL     1       1.601   4.439  20.103  0.00  0.00    +0.000 A 
ATOM      8  C   UNL     1       2.556   4.361  19.080  0.00  0.00    +0.000 A 
ATOM      9  C   UNL     1       3.553   5.434  18.877  0.00  0.00    +0.000 C 
ATOM     10  O   UNL     1       3.404   6.461  19.540  0.00  0.00    +0.000 OA
ATOM     11  N   UNL     1       4.611   5.198  17.972  0.00  0.00    +0.000 N 
ATOM     12  H   UNL     1       2.980   3.657  16.334  0.00  0.00    +0.000 HD
ENDROOT
BRANCH  11  13
ATOM     13  C   UNL     1       5.807   5.981  18.226  0.00  0.00    +0.000 A 
ATOM     14  C   UNL     1       6.709   5.575  19.224  0.00  0.00    +0.000 A 
ATOM     15  C   UNL     1       7.951   6.202  19.383  0.00  0.00    +0.000 A 
ATOM     16  C   UNL     1       8.323   7.248  18.541  0.00  0.00    +0.000 A 
ATOM     17  C   UNL     1       7.432   7.689  17.566  0.00  0.00    +0.000 A 
ATOM     18  C   UNL     1       6.190   7.069  17.423  0.00  0.00    +0.000 A 
ATOM     19  F   UNL     1       5.417   7.493  16.411  0.00  0.00    +0.000 F 
ENDBRANCH  11  13
BRANCH   1  23
ATOM     20  C   UNL     1       6.620   4.299  13.437  0.00  0.00    +0.000 A 
ATOM     21  C   UNL     1       7.385   4.404  14.599  0.00  0.00    +0.000 A 
ATOM     22  C   UNL     1       6.814   4.159  15.857  0.00  0.00    +0.000 A 
ATOM     23  C   UNL     1       5.443   3.866  15.988  0.00  0.00    +0.000 A 
ATOM     24  C   UNL     1       4.691   3.724  14.814  0.00  0.00    +0.000 A 
ATOM     25  C   UNL     1       5.276   3.929  13.557  0.00  0.00    +0.000 A 
BRANCH  20  27
ATOM     26  C   UNL     1       8.371   6.067  12.130  0.00  0.00    +0.000 C 
ATOM     27  S   UNL     1       7.222   4.706  11.803  0.00  0.00    +0.000 S 
ENDBRANCH  20  27
ENDBRANCH   1  23
TORSDOF 3
ENDMDL
