MODEL 1
REMARK VINA RESULT:      -8.7      0.000      0.000
REMARK  Name = 
REMARK  3 active torsions:
REMARK  status: ('A' for Active; 'I' for Inactive)
REMARK    1  A    between atoms: C_1  and  C_2
REMARK    2  A    between atoms: N_4  and  C_5
REMARK    3  A    between atoms: C_13  and  C_14
REMARK                            x       y       z     vdW  Elec       q    Type
REMARK                         _______ _______ _______ _____ _____    ______ ____
ROOT
ATOM      1  C   UNL     1       7.791   7.728  17.923  0.00  0.00    +0.000 C 
ATOM      2  C   UNL     1       7.224   6.518  17.288  0.00  0.00    +0.000 A 
ATOM      3  N   UNL     1       7.544   6.203  16.014  0.00  0.00    +0.000 NA
ATOM      4  N   UNL     1       6.725   5.142  15.696  0.00  0.00    +0.000 N 
ATOM      5  C   UNL     1       6.051   4.723  16.798  0.00  0.00    +0.000 A 
ATOM      6  S   UNL     1       5.065   3.463  17.250  0.00  0.00    +0.000 S 
ATOM      7  C   UNL     1       4.981   4.106  18.873  0.00  0.00    +0.000 A 
ATOM      8  C   UNL     1       5.732   5.282  19.007  0.00  0.00    +0.000 A 
ATOM      9  C   UNL     1       6.348   5.563  17.791  0.00  0.00    +0.000 A 
ENDROOT
BRANCH   4  10
ATOM     10  C   UNL     1       6.594   4.706  14.361  0.00  0.00    +0.000 A 
ATOM     11  C   UNL     1       5.504   3.907  14.002  0.00  0.00    +0.000 A 
ATOM     12  C   UNL     1       5.396   3.443  12.691  0.00  0.00    +0.000 A 
ATOM     13  C   UNL     1       6.394   3.734  11.760  0.00  0.00    +0.000 A 
ATOM     14  C   UNL     1       7.490   4.516  12.127  0.00  0.00    +0.000 A 
ATOM     15  C   UNL     1       7.583   5.021  13.422  0.00  0.00    +0.000 A 
ENDBRANCH   4  10
BRANCH   7  16
ATOM     16  C   UNL     1       4.207   3.361  19.861  0.00  0.00    +0.000 C 
ATOM     17  O   UNL     1       4.559   2.274  20.321  0.00  0.00    +0.000 OA
ATOM     18  N   UNL     1       3.040   3.965  20.281  0.00  0.00    +0.000 N 
ATOM     19  C   UNL     1       2.054   3.375  21.178  0.00  0.00    +0.000 C 
ATOM     20  C   UNL     1       0.976   3.875  20.220  0.00  0.00    +0.000 C 
ATOM     21  C   UNL     1       2.050   4.652  19.461  0.00  0.00    +0.000 C 
ENDBRANCH   7  16
TORSDOF 2
ENDMDL
MODEL 2
REMARK VINA RESULT:      -8.6      0.129      1.063
REMARK  Name = 
REMARK  3 active torsions:
REMARK  status: ('A' for Active; 'I' for Inactive)
REMARK    1  A    between atoms: C_1  and  C_2
REMARK    2  A    between atoms: N_4  and  C_5
REMARK    3  A    between atoms: C_13  and  C_14
REMARK                            x       y       z     vdW  Elec       q    Type
REMARK                         _______ _______ _______ _____ _____    ______ ____
ROOT
ATOM      1  C   UNL     1       7.747   7.769  17.892  0.00  0.00    +0.000 C 
ATOM      2  C   UNL     1       7.213   6.536  17.270  0.00  0.00    +0.000 A 
ATOM      3  N   UNL     1       7.582   6.190  16.018  0.00  0.00    +0.000 NA
ATOM      4  N   UNL     1       6.783   5.114  15.698  0.00  0.00    +0.000 N 
ATOM      5  C   UNL     1       6.072   4.719  16.786  0.00  0.00    +0.000 A 
ATOM      6  S   UNL     1       5.079   3.464  17.236  0.00  0.00    +0.000 S 
ATOM      7  C   UNL     1       4.930   4.150  18.836  0.00  0.00    +0.000 A 
ATOM      8  C   UNL     1       5.667   5.335  18.965  0.00  0.00    +0.000 A 
ATOM      9  C   UNL     1       6.325   5.589  17.766  0.00  0.00    +0.000 A 
ENDROOT
BRANCH   4  10
ATOM     10  C   UNL     1       6.705   4.640  14.372  0.00  0.00    +0.000 A 
ATOM     11  C   UNL     1       7.626   5.093  13.424  0.00  0.00    +0.000 A 
ATOM     12  C   UNL     1       7.524   4.653  12.104  0.00  0.00    +0.000 A 
ATOM     13  C   UNL     1       6.481   3.808  11.725  0.00  0.00    +0.000 A 
ATOM     14  C   UNL     1       5.552   3.372  12.671  0.00  0.00    +0.000 A 
ATOM     15  C   UNL     1       5.672   3.770  14.001  0.00  0.00    +0.000 A 
ENDBRANCH   4  10
BRANCH   7  16
ATOM     16  C   UNL     1       4.125   3.426  19.814  0.00  0.00    +0.000 C 
ATOM     17  O   UNL     1       4.418   2.308  20.242  0.00  0.00    +0.000 OA
ATOM     18  N   UNL     1       3.001   4.086  20.266  0.00  0.00    +0.000 N 
ATOM     19  C   UNL     1       1.993   3.532  21.161  0.00  0.00    +0.000 C 
ATOM     20  C   UNL     1       0.934   4.120  20.231  0.00  0.00    +0.000 C 
ATOM     21  C   UNL     1       2.044   4.852  19.478  0.00  0.00    +0.000 C 
ENDBRANCH   7  16
TORSDOF 2
ENDMDL
MODEL 3
REMARK VINA RESULT:      -8.1      1.473      1.980
REMARK  Name = 
REMARK  3 active torsions:
REMARK  status: ('A' for Active; 'I' for Inactive)
REMARK    1  A    between atoms: C_1  and  C_2
REMARK    2  A    between atoms: N_4  and  C_5
REMARK    3  A    between atoms: C_13  and  C_14
REMARK                            x       y       z     vdW  Elec       q    Type
REMARK                         _______ _______ _______ _____ _____    ______ ____
ROOT
ATOM      1  C   UNL     1       8.132   5.721  19.160  0.00  0.00    +0.000 C 
ATOM      2  C   UNL     1       7.254   5.183  18.097  0.00  0.00    +0.000 A 
ATOM      3  N   UNL     1       7.764   4.862  16.889  0.00  0.00    +0.000 NA
ATOM      4  N   UNL     1       6.668   4.566  16.109  0.00  0.00    +0.000 N 
ATOM      5  C   UNL     1       5.543   4.547  16.870  0.00  0.00    +0.000 A 
ATOM      6  S   UNL     1       3.942   4.123  16.716  0.00  0.00    +0.000 S 
ATOM      7  C   UNL     1       3.671   4.523  18.396  0.00  0.00    +0.000 A 
ATOM      8  C   UNL     1       4.844   4.968  19.021  0.00  0.00    +0.000 A 
ATOM      9  C   UNL     1       5.888   4.927  18.102  0.00  0.00    +0.000 A 
ENDROOT
BRANCH   4  10
ATOM     10  C   UNL     1       6.790   4.433  14.710  0.00  0.00    +0.000 A 
ATOM     11  C   UNL     1       7.676   5.261  14.015  0.00  0.00    +0.000 A 
ATOM     12  C   UNL     1       7.768   5.154  12.627  0.00  0.00    +0.000 A 
ATOM     13  C   UNL     1       6.944   4.265  11.936  0.00  0.00    +0.000 A 
ATOM     14  C   UNL     1       6.047   3.454  12.632  0.00  0.00    +0.000 A 
ATOM     15  C   UNL     1       5.981   3.520  14.022  0.00  0.00    +0.000 A 
ENDBRANCH   4  10
BRANCH   7  16
ATOM     16  C   UNL     1       2.330   4.322  18.935  0.00  0.00    +0.000 C 
ATOM     17  O   UNL     1       1.378   5.062  18.682  0.00  0.00    +0.000 OA
ATOM     18  N   UNL     1       2.174   3.217  19.746  0.00  0.00    +0.000 N 
ATOM     19  C   UNL     1       0.964   2.865  20.478  0.00  0.00    +0.000 C 
ATOM     20  C   UNL     1       1.853   2.577  21.685  0.00  0.00    +0.000 C 
ATOM     21  C   UNL     1       3.078   2.744  20.787  0.00  0.00    +0.000 C 
ENDBRANCH   7  16
TORSDOF 2
ENDMDL
MODEL 4
REMARK VINA RESULT:      -8.0      1.413      1.645
REMARK  Name = 
REMARK  3 active torsions:
REMARK  status: ('A' for Active; 'I' for Inactive)
REMARK    1  A    between atoms: C_1  and  C_2
REMARK    2  A    between atoms: N_4  and  C_5
REMARK    3  A    between atoms: C_13  and  C_14
REMARK                            x       y       z     vdW  Elec       q    Type
REMARK                         _______ _______ _______ _____ _____    ______ ____
ROOT
ATOM      1  C   UNL     1       8.180   5.974  19.072  0.00  0.00    +0.000 C 
ATOM      2  C   UNL     1       7.272   5.395  18.056  0.00  0.00    +0.000 A 
ATOM      3  N   UNL     1       7.742   5.054  16.837  0.00  0.00    +0.000 NA
ATOM      4  N   UNL     1       6.623   4.720  16.107  0.00  0.00    +0.000 N 
ATOM      5  C   UNL     1       5.528   4.701  16.910  0.00  0.00    +0.000 A 
ATOM      6  S   UNL     1       3.930   4.247  16.827  0.00  0.00    +0.000 S 
ATOM      7  C   UNL     1       3.715   4.683  18.506  0.00  0.00    +0.000 A 
ATOM      8  C   UNL     1       4.903   5.163  19.076  0.00  0.00    +0.000 A 
ATOM      9  C   UNL     1       5.912   5.116  18.119  0.00  0.00    +0.000 A 
ENDROOT
BRANCH   4  10
ATOM     10  C   UNL     1       6.694   4.555  14.708  0.00  0.00    +0.000 A 
ATOM     11  C   UNL     1       5.891   3.595  14.086  0.00  0.00    +0.000 A 
ATOM     12  C   UNL     1       5.990   3.406  12.708  0.00  0.00    +0.000 A 
ATOM     13  C   UNL     1       6.921   4.134  11.965  0.00  0.00    +0.000 A 
ATOM     14  C   UNL     1       7.735   5.078  12.592  0.00  0.00    +0.000 A 
ATOM     15  C   UNL     1       7.611   5.307  13.961  0.00  0.00    +0.000 A 
ENDBRANCH   4  10
BRANCH   7  16
ATOM     16  C   UNL     1       2.399   4.472  19.101  0.00  0.00    +0.000 C 
ATOM     17  O   UNL     1       1.460   5.260  18.969  0.00  0.00    +0.000 OA
ATOM     18  N   UNL     1       2.250   3.303  19.817  0.00  0.00    +0.000 N 
ATOM     19  C   UNL     1       1.070   2.921  20.582  0.00  0.00    +0.000 C 
ATOM     20  C   UNL     1       2.012   2.499  21.706  0.00  0.00    +0.000 C 
ATOM     21  C   UNL     1       3.192   2.711  20.758  0.00  0.00    +0.000 C 
ENDBRANCH   7  16
TORSDOF 2
ENDMDL
MODEL 5
REMARK VINA RESULT:      -7.9      1.218      1.835
REMARK  Name = 
REMARK  3 active torsions:
REMARK  status: ('A' for Active; 'I' for Inactive)
REMARK    1  A    between atoms: C_1  and  C_2
REMARK    2  A    between atoms: N_4  and  C_5
REMARK    3  A    between atoms: C_13  and  C_14
REMARK                            x       y       z     vdW  Elec       q    Type
REMARK                         _______ _______ _______ _____ _____    ______ ____
ROOT
ATOM      1  C   UNL     1       7.817   7.685  17.919  0.00  0.00    +0.000 C 
ATOM      2  C   UNL     1       7.083   6.610  17.215  0.00  0.00    +0.000 A 
ATOM      3  N   UNL     1       7.587   6.066  16.087  0.00  0.00    +0.000 NA
ATOM      4  N   UNL     1       6.589   5.242  15.615  0.00  0.00    +0.000 N 
ATOM      5  C   UNL     1       5.579   5.163  16.519  0.00  0.00    +0.000 A 
ATOM      6  S   UNL     1       4.184   4.290  16.755  0.00  0.00    +0.000 S 
ATOM      7  C   UNL     1       3.913   5.125  18.266  0.00  0.00    +0.000 A 
ATOM      8  C   UNL     1       4.926   6.054  18.537  0.00  0.00    +0.000 A 
ATOM      9  C   UNL     1       5.868   6.004  17.515  0.00  0.00    +0.000 A 
ENDROOT
BRANCH   4  10
ATOM     10  C   UNL     1       6.655   4.699  14.315  0.00  0.00    +0.000 A 
ATOM     11  C   UNL     1       7.619   5.170  13.419  0.00  0.00    +0.000 A 
ATOM     12  C   UNL     1       7.658   4.659  12.122  0.00  0.00    +0.000 A 
ATOM     13  C   UNL     1       6.710   3.723  11.708  0.00  0.00    +0.000 A 
ATOM     14  C   UNL     1       5.736   3.269  12.599  0.00  0.00    +0.000 A 
ATOM     15  C   UNL     1       5.718   3.739  13.910  0.00  0.00    +0.000 A 
ENDBRANCH   4  10
BRANCH   7  16
ATOM     16  C   UNL     1       2.740   4.750  19.050  0.00  0.00    +0.000 C 
ATOM     17  O   UNL     1       1.774   5.494  19.226  0.00  0.00    +0.000 OA
ATOM     18  N   UNL     1       2.759   3.476  19.578  0.00  0.00    +0.000 N 
ATOM     19  C   UNL     1       1.757   2.913  20.473  0.00  0.00    +0.000 C 
ATOM     20  C   UNL     1       2.907   2.372  21.320  0.00  0.00    +0.000 C 
ATOM     21  C   UNL     1       3.878   2.797  20.219  0.00  0.00    +0.000 C 
ENDBRANCH   7  16
TORSDOF 2
ENDMDL
MODEL 6
REMARK VINA RESULT:      -7.8      2.524      6.761
REMARK  Name = 
REMARK  3 active torsions:
REMARK  status: ('A' for Active; 'I' for Inactive)
REMARK    1  A    between atoms: C_1  and  C_2
REMARK    2  A    between atoms: N_4  and  C_5
REMARK    3  A    between atoms: C_13  and  C_14
REMARK                            x       y       z     vdW  Elec       q    Type
REMARK                         _______ _______ _______ _____ _____    ______ ____
ROOT
ATOM      1  C   UNL     1       2.943   8.875  17.665  0.00  0.00    +0.000 C 
ATOM      2  C   UNL     1       3.097   7.405  17.738  0.00  0.00    +0.000 A 
ATOM      3  N   UNL     1       2.277   6.671  18.520  0.00  0.00    +0.000 NA
ATOM      4  N   UNL     1       2.800   5.397  18.485  0.00  0.00    +0.000 N 
ATOM      5  C   UNL     1       3.807   5.329  17.577  0.00  0.00    +0.000 A 
ATOM      6  S   UNL     1       4.766   4.172  16.864  0.00  0.00    +0.000 S 
ATOM      7  C   UNL     1       5.539   5.404  15.895  0.00  0.00    +0.000 A 
ATOM      8  C   UNL     1       5.016   6.678  16.158  0.00  0.00    +0.000 A 
ATOM      9  C   UNL     1       4.005   6.562  17.106  0.00  0.00    +0.000 A 
ENDROOT
BRANCH   4  10
ATOM     10  C   UNL     1       2.357   4.408  19.388  0.00  0.00    +0.000 A 
ATOM     11  C   UNL     1       1.537   3.374  18.928  0.00  0.00    +0.000 A 
ATOM     12  C   UNL     1       1.068   2.418  19.829  0.00  0.00    +0.000 A 
ATOM     13  C   UNL     1       1.374   2.524  21.186  0.00  0.00    +0.000 A 
ATOM     14  C   UNL     1       2.178   3.568  21.645  0.00  0.00    +0.000 A 
ATOM     15  C   UNL     1       2.689   4.502  20.746  0.00  0.00    +0.000 A 
ENDBRANCH   4  10
BRANCH   7  16
ATOM     16  C   UNL     1       6.562   4.980  14.945  0.00  0.00    +0.000 C 
ATOM     17  O   UNL     1       7.703   5.445  14.922  0.00  0.00    +0.000 OA
ATOM     18  N   UNL     1       6.183   3.988  14.065  0.00  0.00    +0.000 N 
ATOM     19  C   UNL     1       6.990   3.474  12.966  0.00  0.00    +0.000 C 
ATOM     20  C   UNL     1       5.741   3.559  12.091  0.00  0.00    +0.000 C 
ATOM     21  C   UNL     1       4.922   3.876  13.342  0.00  0.00    +0.000 C 
ENDBRANCH   7  16
TORSDOF 2
ENDMDL
MODEL 7
REMARK VINA RESULT:      -7.8      2.987      6.927
REMARK  Name = 
REMARK  3 active torsions:
REMARK  status: ('A' for Active; 'I' for Inactive)
REMARK    1  A    between atoms: C_1  and  C_2
REMARK    2  A    between atoms: N_4  and  C_5
REMARK    3  A    between atoms: C_13  and  C_14
REMARK                            x       y       z     vdW  Elec       q    Type
REMARK                         _______ _______ _______ _____ _____    ______ ____
ROOT
ATOM      1  C   UNL     1       3.509   2.346  18.997  0.00  0.00    +0.000 C 
ATOM      2  C   UNL     1       3.703   3.735  18.524  0.00  0.00    +0.000 A 
ATOM      3  N   UNL     1       3.142   4.767  19.191  0.00  0.00    +0.000 NA
ATOM      4  N   UNL     1       3.375   5.868  18.397  0.00  0.00    +0.000 N 
ATOM      5  C   UNL     1       4.195   5.539  17.366  0.00  0.00    +0.000 A 
ATOM      6  S   UNL     1       5.033   6.301  16.149  0.00  0.00    +0.000 S 
ATOM      7  C   UNL     1       5.686   4.765  15.632  0.00  0.00    +0.000 A 
ATOM      8  C   UNL     1       5.231   3.709  16.433  0.00  0.00    +0.000 A 
ATOM      9  C   UNL     1       4.407   4.223  17.429  0.00  0.00    +0.000 A 
ENDROOT
BRANCH   4  10
ATOM     10  C   UNL     1       2.714   7.090  18.644  0.00  0.00    +0.000 A 
ATOM     11  C   UNL     1       2.142   7.322  19.898  0.00  0.00    +0.000 A 
ATOM     12  C   UNL     1       1.456   8.514  20.130  0.00  0.00    +0.000 A 
ATOM     13  C   UNL     1       1.299   9.443  19.101  0.00  0.00    +0.000 A 
ATOM     14  C   UNL     1       1.855   9.200  17.844  0.00  0.00    +0.000 A 
ATOM     15  C   UNL     1       2.581   8.033  17.617  0.00  0.00    +0.000 A 
ENDBRANCH   4  10
BRANCH   7  16
ATOM     16  C   UNL     1       6.614   4.765  14.505  0.00  0.00    +0.000 C 
ATOM     17  O   UNL     1       7.596   5.505  14.433  0.00  0.00    +0.000 OA
ATOM     18  N   UNL     1       6.340   3.851  13.508  0.00  0.00    +0.000 N 
ATOM     19  C   UNL     1       7.056   3.732  12.245  0.00  0.00    +0.000 C 
ATOM     20  C   UNL     1       5.698   3.623  11.557  0.00  0.00    +0.000 C 
ATOM     21  C   UNL     1       5.040   3.528  12.933  0.00  0.00    +0.000 C 
ENDBRANCH   7  16
TORSDOF 2
ENDMDL
MODEL 8
REMARK VINA RESULT:      -7.8      2.947      6.875
REMARK  Name = 
REMARK  3 active torsions:
REMARK  status: ('A' for Active; 'I' for Inactive)
REMARK    1  A    between atoms: C_1  and  C_2
REMARK    2  A    between atoms: N_4  and  C_5
REMARK    3  A    between atoms: C_13  and  C_14
REMARK                            x       y       z     vdW  Elec       q    Type
REMARK                         _______ _______ _______ _____ _____    ______ ____
ROOT
ATOM      1  C   UNL     1       4.224   2.635  19.633  0.00  0.00    +0.000 C 
ATOM      2  C   UNL     1       4.191   3.962  18.980  0.00  0.00    +0.000 A 
ATOM      3  N   UNL     1       3.529   4.989  19.555  0.00  0.00    +0.000 NA
ATOM      4  N   UNL     1       3.557   5.997  18.617  0.00  0.00    +0.000 N 
ATOM      5  C   UNL     1       4.355   5.647  17.575  0.00  0.00    +0.000 A 
ATOM      6  S   UNL     1       5.006   6.347  16.215  0.00  0.00    +0.000 S 
ATOM      7  C   UNL     1       5.840   4.857  15.843  0.00  0.00    +0.000 A 
ATOM      8  C   UNL     1       5.586   3.865  16.799  0.00  0.00    +0.000 A 
ATOM      9  C   UNL     1       4.755   4.391  17.783  0.00  0.00    +0.000 A 
ENDROOT
BRANCH   4  10
ATOM     10  C   UNL     1       2.745   7.142  18.761  0.00  0.00    +0.000 A 
ATOM     11  C   UNL     1       2.635   8.046  17.700  0.00  0.00    +0.000 A 
ATOM     12  C   UNL     1       1.862   9.196  17.857  0.00  0.00    +0.000 A 
ATOM     13  C   UNL     1       1.246   9.466  19.080  0.00  0.00    +0.000 A 
ATOM     14  C   UNL     1       1.374   8.571  20.143  0.00  0.00    +0.000 A 
ATOM     15  C   UNL     1       2.106   7.396  19.981  0.00  0.00    +0.000 A 
ENDBRANCH   4  10
BRANCH   7  16
ATOM     16  C   UNL     1       6.692   4.832  14.658  0.00  0.00    +0.000 C 
ATOM     17  O   UNL     1       7.665   5.573  14.504  0.00  0.00    +0.000 OA
ATOM     18  N   UNL     1       6.357   3.894  13.704  0.00  0.00    +0.000 N 
ATOM     19  C   UNL     1       6.991   3.746  12.400  0.00  0.00    +0.000 C 
ATOM     20  C   UNL     1       5.591   3.618  11.804  0.00  0.00    +0.000 C 
ATOM     21  C   UNL     1       5.025   3.555  13.221  0.00  0.00    +0.000 C 
ENDBRANCH   7  16
TORSDOF 2
ENDMDL
MODEL 9
REMARK VINA RESULT:      -7.7      2.537      6.791
REMARK  Name = 
REMARK  3 active torsions:
REMARK  status: ('A' for Active; 'I' for Inactive)
REMARK    1  A    between atoms: C_1  and  C_2
REMARK    2  A    between atoms: N_4  and  C_5
REMARK    3  A    between atoms: C_13  and  C_14
REMARK                            x       y       z     vdW  Elec       q    Type
REMARK                         _______ _______ _______ _____ _____    ______ ____
ROOT
ATOM      1  C   UNL     1       2.860   8.956  17.715  0.00  0.00    +0.000 C 
ATOM      2  C   UNL     1       3.012   7.486  17.790  0.00  0.00    +0.000 A 
ATOM      3  N   UNL     1       2.181   6.753  18.562  0.00  0.00    +0.000 NA
ATOM      4  N   UNL     1       2.704   5.479  18.534  0.00  0.00    +0.000 N 
ATOM      5  C   UNL     1       3.722   5.410  17.638  0.00  0.00    +0.000 A 
ATOM      6  S   UNL     1       4.687   4.252  16.937  0.00  0.00    +0.000 S 
ATOM      7  C   UNL     1       5.473   5.482  15.977  0.00  0.00    +0.000 A 
ATOM      8  C   UNL     1       4.949   6.757  16.233  0.00  0.00    +0.000 A 
ATOM      9  C   UNL     1       3.926   6.643  17.169  0.00  0.00    +0.000 A 
ENDROOT
BRANCH   4  10
ATOM     10  C   UNL     1       2.248   4.491  19.431  0.00  0.00    +0.000 A 
ATOM     11  C   UNL     1       2.573   4.590  20.787  0.00  0.00    +0.000 A 
ATOM     12  C   UNL     1       2.155   3.591  21.667  0.00  0.00    +0.000 A 
ATOM     13  C   UNL     1       1.463   2.479  21.188  0.00  0.00    +0.000 A 
ATOM     14  C   UNL     1       1.157   2.374  19.830  0.00  0.00    +0.000 A 
ATOM     15  C   UNL     1       1.530   3.388  18.951  0.00  0.00    +0.000 A 
ENDBRANCH   4  10
BRANCH   7  16
ATOM     16  C   UNL     1       6.508   5.057  15.040  0.00  0.00    +0.000 C 
ATOM     17  O   UNL     1       7.645   5.533  15.020  0.00  0.00    +0.000 OA
ATOM     18  N   UNL     1       6.145   4.051  14.169  0.00  0.00    +0.000 N 
ATOM     19  C   UNL     1       6.966   3.531  13.082  0.00  0.00    +0.000 C 
ATOM     20  C   UNL     1       5.723   3.595  12.197  0.00  0.00    +0.000 C 
ATOM     21  C   UNL     1       4.891   3.918  13.438  0.00  0.00    +0.000 C 
ENDBRANCH   7  16
TORSDOF 2
ENDMDL
