MODEL 1
REMARK VINA RESULT:      -6.6      0.000      0.000
REMARK  Name = 
REMARK  5 active torsions:
REMARK  status: ('A' for Active; 'I' for Inactive)
REMARK    1  A    between atoms: C_1  and  N_2
REMARK    2  A    between atoms: C_6  and  C_7
REMARK    3  A    between atoms: C_7  and  C_8
REMARK    4  A    between atoms: C_7  and  C_10
REMARK    5  A    between atoms: C_16  and  C_17
REMARK                            x       y       z     vdW  Elec       q    Type
REMARK                         _______ _______ _______ _____ _____    ______ ____
ROOT
ATOM      1  C   UNL     1       4.476   3.639  18.947  0.00  0.00    +0.000 C 
ENDROOT
BRANCH   1   2
ATOM      2  C   UNL     1       5.144   4.279  17.718  0.00  0.00    +0.000 A 
ATOM      3  C   UNL     1       4.652   4.021  16.418  0.00  0.00    +0.000 A 
ATOM      4  C   UNL     1       5.192   4.649  15.291  0.00  0.00    +0.000 A 
ATOM      5  C   UNL     1       6.253   5.535  15.432  0.00  0.00    +0.000 A 
ATOM      6  C   UNL     1       6.787   5.761  16.695  0.00  0.00    +0.000 A 
ATOM      7  F   UNL     1       7.832   6.595  16.804  0.00  0.00    +0.000 F 
ATOM      8  C   UNL     1       6.258   5.141  17.832  0.00  0.00    +0.000 A 
BRANCH   8   9
ATOM      9  C   UNL     1       6.894   5.394  19.087  0.00  0.00    +0.000 C 
ATOM     10  N   UNL     1       7.421   5.523  20.115  0.00  0.00    +0.000 NA
ENDBRANCH   8   9
ENDBRANCH   1   2
BRANCH   1  16
ATOM     11  C   UNL     1       2.617   2.944  21.378  0.00  0.00    +0.000 C 
ATOM     12  N   UNL     1       2.618   4.193  20.643  0.00  0.00    +0.000 N 
ATOM     13  C   UNL     1       1.753   5.221  20.928  0.00  0.00    +0.000 A 
ATOM     14  C   UNL     1       1.992   6.248  20.049  0.00  0.00    +0.000 A 
ATOM     15  C   UNL     1       3.025   5.822  19.191  0.00  0.00    +0.000 A 
ATOM     16  C   UNL     1       3.419   4.543  19.569  0.00  0.00    +0.000 A 
ENDBRANCH   1  16
BRANCH   1  17
ATOM     17  C   UNL     1       3.894   2.310  18.628  0.00  0.00    +0.000 C 
ATOM     18  N   UNL     1       3.445   1.265  18.391  0.00  0.00    +0.000 NA
ENDBRANCH   1  17
TORSDOF 4
ENDMDL
MODEL 2
REMARK VINA RESULT:      -6.6      2.049      3.427
REMARK  Name = 
REMARK  5 active torsions:
REMARK  status: ('A' for Active; 'I' for Inactive)
REMARK    1  A    between atoms: C_1  and  N_2
REMARK    2  A    between atoms: C_6  and  C_7
REMARK    3  A    between atoms: C_7  and  C_8
REMARK    4  A    between atoms: C_7  and  C_10
REMARK    5  A    between atoms: C_16  and  C_17
REMARK                            x       y       z     vdW  Elec       q    Type
REMARK                         _______ _______ _______ _____ _____    ______ ____
ROOT
ATOM      1  C   UNL     1       3.371   5.277  17.912  0.00  0.00    +0.000 C 
ENDROOT
BRANCH   1   2
ATOM      2  C   UNL     1       4.900   5.222  18.062  0.00  0.00    +0.000 A 
ATOM      3  C   UNL     1       5.513   5.551  19.293  0.00  0.00    +0.000 A 
ATOM      4  C   UNL     1       6.895   5.437  19.479  0.00  0.00    +0.000 A 
ATOM      5  C   UNL     1       7.702   5.012  18.432  0.00  0.00    +0.000 A 
ATOM      6  C   UNL     1       7.127   4.736  17.198  0.00  0.00    +0.000 A 
ATOM      7  F   UNL     1       7.930   4.357  16.192  0.00  0.00    +0.000 F 
ATOM      8  C   UNL     1       5.747   4.845  16.995  0.00  0.00    +0.000 A 
BRANCH   8   9
ATOM      9  C   UNL     1       5.242   4.585  15.684  0.00  0.00    +0.000 C 
ATOM     10  N   UNL     1       4.886   4.420  14.590  0.00  0.00    +0.000 NA
ENDBRANCH   8   9
ENDBRANCH   1   2
BRANCH   1  16
ATOM     11  C   UNL     1       3.023   2.158  17.855  0.00  0.00    +0.000 C 
ATOM     12  N   UNL     1       2.525   3.047  18.885  0.00  0.00    +0.000 N 
ATOM     13  C   UNL     1       1.797   2.600  19.961  0.00  0.00    +0.000 A 
ATOM     14  C   UNL     1       1.460   3.680  20.738  0.00  0.00    +0.000 A 
ATOM     15  C   UNL     1       1.985   4.822  20.104  0.00  0.00    +0.000 A 
ATOM     16  C   UNL     1       2.655   4.424  18.952  0.00  0.00    +0.000 A 
ENDBRANCH   1  16
BRANCH   1  17
ATOM     17  C   UNL     1       2.863   6.673  17.952  0.00  0.00    +0.000 C 
ATOM     18  N   UNL     1       2.464   7.763  17.999  0.00  0.00    +0.000 NA
ENDBRANCH   1  17
TORSDOF 4
ENDMDL
MODEL 3
REMARK VINA RESULT:      -6.5      2.559      5.365
REMARK  Name = 
REMARK  5 active torsions:
REMARK  status: ('A' for Active; 'I' for Inactive)
REMARK    1  A    between atoms: C_1  and  N_2
REMARK    2  A    between atoms: C_6  and  C_7
REMARK    3  A    between atoms: C_7  and  C_8
REMARK    4  A    between atoms: C_7  and  C_10
REMARK    5  A    between atoms: C_16  and  C_17
REMARK                            x       y       z     vdW  Elec       q    Type
REMARK                         _______ _______ _______ _____ _____    ______ ____
ROOT
ATOM      1  C   UNL     1       5.194   4.547  18.456  0.00  0.00    +0.000 C 
ENDROOT
BRANCH   1   2
ATOM      2  C   UNL     1       3.843   4.546  19.191  0.00  0.00    +0.000 A 
ATOM      3  C   UNL     1       3.352   5.728  19.791  0.00  0.00    +0.000 A 
ATOM      4  C   UNL     1       2.094   5.775  20.400  0.00  0.00    +0.000 A 
ATOM      5  C   UNL     1       1.303   4.634  20.444  0.00  0.00    +0.000 A 
ATOM      6  C   UNL     1       1.789   3.448  19.908  0.00  0.00    +0.000 A 
ATOM      7  F   UNL     1       1.021   2.351  19.990  0.00  0.00    +0.000 F 
ATOM      8  C   UNL     1       3.046   3.385  19.296  0.00  0.00    +0.000 A 
BRANCH   8   9
ATOM      9  C   UNL     1       3.488   2.116  18.810  0.00  0.00    +0.000 C 
ATOM     10  N   UNL     1       3.787   1.083  18.368  0.00  0.00    +0.000 NA
ENDBRANCH   8   9
ENDBRANCH   1   2
BRANCH   1  16
ATOM     11  C   UNL     1       5.988   3.485  15.611  0.00  0.00    +0.000 C 
ATOM     12  N   UNL     1       5.504   4.818  15.913  0.00  0.00    +0.000 N 
ATOM     13  C   UNL     1       5.371   5.793  14.955  0.00  0.00    +0.000 A 
ATOM     14  C   UNL     1       4.913   6.937  15.559  0.00  0.00    +0.000 A 
ATOM     15  C   UNL     1       4.780   6.653  16.931  0.00  0.00    +0.000 A 
ATOM     16  C   UNL     1       5.142   5.328  17.149  0.00  0.00    +0.000 A 
ENDBRANCH   1  16
BRANCH   1  17
ATOM     17  C   UNL     1       6.291   5.058  19.318  0.00  0.00    +0.000 C 
ATOM     18  N   UNL     1       7.144   5.449  20.004  0.00  0.00    +0.000 NA
ENDBRANCH   1  17
TORSDOF 4
ENDMDL
MODEL 4
REMARK VINA RESULT:      -6.4      2.810      5.269
REMARK  Name = 
REMARK  5 active torsions:
REMARK  status: ('A' for Active; 'I' for Inactive)
REMARK    1  A    between atoms: C_1  and  N_2
REMARK    2  A    between atoms: C_6  and  C_7
REMARK    3  A    between atoms: C_7  and  C_8
REMARK    4  A    between atoms: C_7  and  C_10
REMARK    5  A    between atoms: C_16  and  C_17
REMARK                            x       y       z     vdW  Elec       q    Type
REMARK                         _______ _______ _______ _____ _____    ______ ____
ROOT
ATOM      1  C   UNL     1       5.362   3.812  18.006  0.00  0.00    +0.000 C 
ENDROOT
BRANCH   1   2
ATOM      2  C   UNL     1       3.874   3.665  18.365  0.00  0.00    +0.000 A 
ATOM      3  C   UNL     1       2.884   4.332  17.609  0.00  0.00    +0.000 A 
ATOM      4  C   UNL     1       1.520   4.156  17.866  0.00  0.00    +0.000 A 
ATOM      5  C   UNL     1       1.112   3.325  18.901  0.00  0.00    +0.000 A 
ATOM      6  C   UNL     1       2.070   2.703  19.693  0.00  0.00    +0.000 A 
ATOM      7  F   UNL     1       1.654   1.931  20.707  0.00  0.00    +0.000 F 
ATOM      8  C   UNL     1       3.438   2.869  19.448  0.00  0.00    +0.000 A 
BRANCH   8   9
ATOM      9  C   UNL     1       4.357   2.229  20.336  0.00  0.00    +0.000 C 
ATOM     10  N   UNL     1       5.045   1.671  21.089  0.00  0.00    +0.000 NA
ENDBRANCH   8   9
ENDBRANCH   1   2
BRANCH   1  16
ATOM     11  C   UNL     1       5.129   6.757  16.947  0.00  0.00    +0.000 C 
ATOM     12  N   UNL     1       5.454   5.593  16.147  0.00  0.00    +0.000 N 
ATOM     13  C   UNL     1       5.668   5.661  14.792  0.00  0.00    +0.000 A 
ATOM     14  C   UNL     1       5.932   4.396  14.329  0.00  0.00    +0.000 A 
ATOM     15  C   UNL     1       5.859   3.529  15.436  0.00  0.00    +0.000 A 
ATOM     16  C   UNL     1       5.568   4.279  16.570  0.00  0.00    +0.000 A 
ENDBRANCH   1  16
BRANCH   1  17
ATOM     17  C   UNL     1       6.070   4.716  18.949  0.00  0.00    +0.000 C 
ATOM     18  N   UNL     1       6.637   5.420  19.679  0.00  0.00    +0.000 NA
ENDBRANCH   1  17
TORSDOF 4
ENDMDL
MODEL 5
REMARK VINA RESULT:      -6.4      2.935      5.411
REMARK  Name = 
REMARK  5 active torsions:
REMARK  status: ('A' for Active; 'I' for Inactive)
REMARK    1  A    between atoms: C_1  and  N_2
REMARK    2  A    between atoms: C_6  and  C_7
REMARK    3  A    between atoms: C_7  and  C_8
REMARK    4  A    between atoms: C_7  and  C_10
REMARK    5  A    between atoms: C_16  and  C_17
REMARK                            x       y       z     vdW  Elec       q    Type
REMARK                         _______ _______ _______ _____ _____    ______ ____
ROOT
ATOM      1  C   UNL     1       3.823   6.271  18.287  0.00  0.00    +0.000 C 
ENDROOT
BRANCH   1   2
ATOM      2  C   UNL     1       2.926   5.030  18.419  0.00  0.00    +0.000 A 
ATOM      3  C   UNL     1       3.030   3.967  17.493  0.00  0.00    +0.000 A 
ATOM      4  C   UNL     1       2.281   2.794  17.633  0.00  0.00    +0.000 A 
ATOM      5  C   UNL     1       1.391   2.663  18.692  0.00  0.00    +0.000 A 
ATOM      6  C   UNL     1       1.233   3.718  19.583  0.00  0.00    +0.000 A 
ATOM      7  F   UNL     1       0.345   3.582  20.579  0.00  0.00    +0.000 F 
ATOM      8  C   UNL     1       1.975   4.897  19.456  0.00  0.00    +0.000 A 
BRANCH   8   9
ATOM      9  C   UNL     1       1.720   5.950  20.389  0.00  0.00    +0.000 C 
ATOM     10  N   UNL     1       1.538   6.855  21.094  0.00  0.00    +0.000 NA
ENDBRANCH   8   9
ENDBRANCH   1   2
BRANCH   1  16
ATOM     11  C   UNL     1       6.668   5.406  19.289  0.00  0.00    +0.000 C 
ATOM     12  N   UNL     1       6.289   5.631  17.908  0.00  0.00    +0.000 N 
ATOM     13  C   UNL     1       7.178   5.514  16.868  0.00  0.00    +0.000 A 
ATOM     14  C   UNL     1       6.520   5.806  15.699  0.00  0.00    +0.000 A 
ATOM     15  C   UNL     1       5.194   6.128  16.043  0.00  0.00    +0.000 A 
ATOM     16  C   UNL     1       5.050   6.010  17.421  0.00  0.00    +0.000 A 
ENDBRANCH   1  16
BRANCH   1  17
ATOM     17  C   UNL     1       3.069   7.444  17.771  0.00  0.00    +0.000 C 
ATOM     18  N   UNL     1       2.472   8.361  17.381  0.00  0.00    +0.000 NA
ENDBRANCH   1  17
TORSDOF 4
ENDMDL
MODEL 6
REMARK VINA RESULT:      -6.4      1.231      1.776
REMARK  Name = 
REMARK  5 active torsions:
REMARK  status: ('A' for Active; 'I' for Inactive)
REMARK    1  A    between atoms: C_1  and  N_2
REMARK    2  A    between atoms: C_6  and  C_7
REMARK    3  A    between atoms: C_7  and  C_8
REMARK    4  A    between atoms: C_7  and  C_10
REMARK    5  A    between atoms: C_16  and  C_17
REMARK                            x       y       z     vdW  Elec       q    Type
REMARK                         _______ _______ _______ _____ _____    ______ ____
ROOT
ATOM      1  C   UNL     1       4.414   3.613  19.781  0.00  0.00    +0.000 C 
ENDROOT
BRANCH   1   2
ATOM      2  C   UNL     1       4.891   4.011  18.374  0.00  0.00    +0.000 A 
ATOM      3  C   UNL     1       4.196   3.564  17.227  0.00  0.00    +0.000 A 
ATOM      4  C   UNL     1       4.563   3.971  15.941  0.00  0.00    +0.000 A 
ATOM      5  C   UNL     1       5.649   4.819  15.766  0.00  0.00    +0.000 A 
ATOM      6  C   UNL     1       6.380   5.227  16.876  0.00  0.00    +0.000 A 
ATOM      7  F   UNL     1       7.444   6.020  16.681  0.00  0.00    +0.000 F 
ATOM      8  C   UNL     1       6.026   4.828  18.169  0.00  0.00    +0.000 A 
BRANCH   8   9
ATOM      9  C   UNL     1       6.856   5.256  19.251  0.00  0.00    +0.000 C 
ATOM     10  N   UNL     1       7.570   5.539  20.123  0.00  0.00    +0.000 NA
ENDBRANCH   8   9
ENDBRANCH   1   2
BRANCH   1  16
ATOM     11  C   UNL     1       2.693   6.237  19.830  0.00  0.00    +0.000 C 
ATOM     12  N   UNL     1       2.180   4.886  19.944  0.00  0.00    +0.000 N 
ATOM     13  C   UNL     1       0.846   4.613  20.123  0.00  0.00    +0.000 A 
ATOM     14  C   UNL     1       0.689   3.252  20.212  0.00  0.00    +0.000 A 
ATOM     15  C   UNL     1       1.972   2.682  20.101  0.00  0.00    +0.000 A 
ATOM     16  C   UNL     1       2.900   3.703  19.926  0.00  0.00    +0.000 A 
ENDBRANCH   1  16
BRANCH   1  17
ATOM     17  C   UNL     1       4.888   2.258  20.162  0.00  0.00    +0.000 C 
ATOM     18  N   UNL     1       5.268   1.204  20.470  0.00  0.00    +0.000 NA
ENDBRANCH   1  17
TORSDOF 4
ENDMDL
MODEL 7
REMARK VINA RESULT:      -6.2      2.233      3.483
REMARK  Name = 
REMARK  5 active torsions:
REMARK  status: ('A' for Active; 'I' for Inactive)
REMARK    1  A    between atoms: C_1  and  N_2
REMARK    2  A    between atoms: C_6  and  C_7
REMARK    3  A    between atoms: C_7  and  C_8
REMARK    4  A    between atoms: C_7  and  C_10
REMARK    5  A    between atoms: C_16  and  C_17
REMARK                            x       y       z     vdW  Elec       q    Type
REMARK                         _______ _______ _______ _____ _____    ______ ____
ROOT
ATOM      1  C   UNL     1       3.170   5.767  17.998  0.00  0.00    +0.000 C 
ENDROOT
BRANCH   1   2
ATOM      2  C   UNL     1       4.695   5.732  18.186  0.00  0.00    +0.000 A 
ATOM      3  C   UNL     1       5.258   5.328  19.419  0.00  0.00    +0.000 A 
ATOM      4  C   UNL     1       6.641   5.214  19.593  0.00  0.00    +0.000 A 
ATOM      5  C   UNL     1       7.499   5.524  18.546  0.00  0.00    +0.000 A 
ATOM      6  C   UNL     1       6.969   5.976  17.343  0.00  0.00    +0.000 A 
ATOM      7  F   UNL     1       7.818   6.300  16.356  0.00  0.00    +0.000 F 
ATOM      8  C   UNL     1       5.588   6.095  17.153  0.00  0.00    +0.000 A 
BRANCH   8   9
ATOM      9  C   UNL     1       5.129   6.609  15.901  0.00  0.00    +0.000 C 
ATOM     10  N   UNL     1       4.826   7.054  14.871  0.00  0.00    +0.000 NA
ENDBRANCH   8   9
ENDBRANCH   1   2
BRANCH   1  16
ATOM     11  C   UNL     1       2.665   2.700  17.563  0.00  0.00    +0.000 C 
ATOM     12  N   UNL     1       2.245   3.472  18.716  0.00  0.00    +0.000 N 
ATOM     13  C   UNL     1       1.531   2.926  19.754  0.00  0.00    +0.000 A 
ATOM     14  C   UNL     1       1.274   3.912  20.673  0.00  0.00    +0.000 A 
ATOM     15  C   UNL     1       1.835   5.101  20.168  0.00  0.00    +0.000 A 
ATOM     16  C   UNL     1       2.447   4.822  18.950  0.00  0.00    +0.000 A 
ENDBRANCH   1  16
BRANCH   1  17
ATOM     17  C   UNL     1       2.629   7.145  18.131  0.00  0.00    +0.000 C 
ATOM     18  N   UNL     1       2.216   8.225  18.245  0.00  0.00    +0.000 NA
ENDBRANCH   1  17
TORSDOF 4
ENDMDL
MODEL 8
REMARK VINA RESULT:      -6.2      2.428      5.414
REMARK  Name = 
REMARK  5 active torsions:
REMARK  status: ('A' for Active; 'I' for Inactive)
REMARK    1  A    between atoms: C_1  and  N_2
REMARK    2  A    between atoms: C_6  and  C_7
REMARK    3  A    between atoms: C_7  and  C_8
REMARK    4  A    between atoms: C_7  and  C_10
REMARK    5  A    between atoms: C_16  and  C_17
REMARK                            x       y       z     vdW  Elec       q    Type
REMARK                         _______ _______ _______ _____ _____    ______ ____
ROOT
ATOM      1  C   UNL     1       5.430   4.206  18.553  0.00  0.00    +0.000 C 
ENDROOT
BRANCH   1   2
ATOM      2  C   UNL     1       4.021   4.385  19.143  0.00  0.00    +0.000 A 
ATOM      3  C   UNL     1       3.611   5.638  19.654  0.00  0.00    +0.000 A 
ATOM      4  C   UNL     1       2.311   5.849  20.127  0.00  0.00    +0.000 A 
ATOM      5  C   UNL     1       1.395   4.805  20.122  0.00  0.00    +0.000 A 
ATOM      6  C   UNL     1       1.794   3.551  19.676  0.00  0.00    +0.000 A 
ATOM      7  F   UNL     1       0.901   2.550  19.710  0.00  0.00    +0.000 F 
ATOM      8  C   UNL     1       3.090   3.324  19.200  0.00  0.00    +0.000 A 
BRANCH   8   9
ATOM      9  C   UNL     1       3.431   1.995  18.801  0.00  0.00    +0.000 C 
ATOM     10  N   UNL     1       3.721   0.941  18.405  0.00  0.00    +0.000 NA
ENDBRANCH   8   9
ENDBRANCH   1   2
BRANCH   1  16
ATOM     11  C   UNL     1       5.353   7.057  17.242  0.00  0.00    +0.000 C 
ATOM     12  N   UNL     1       5.440   5.798  16.528  0.00  0.00    +0.000 N 
ATOM     13  C   UNL     1       5.466   5.725  15.157  0.00  0.00    +0.000 A 
ATOM     14  C   UNL     1       5.531   4.403  14.793  0.00  0.00    +0.000 A 
ATOM     15  C   UNL     1       5.527   3.649  15.982  0.00  0.00    +0.000 A 
ATOM     16  C   UNL     1       5.478   4.522  17.063  0.00  0.00    +0.000 A 
ENDBRANCH   1  16
BRANCH   1  17
ATOM     17  C   UNL     1       6.441   5.014  19.283  0.00  0.00    +0.000 C 
ATOM     18  N   UNL     1       7.242   5.636  19.850  0.00  0.00    +0.000 NA
ENDBRANCH   1  17
TORSDOF 4
ENDMDL
MODEL 9
REMARK VINA RESULT:      -6.2      1.711      2.104
REMARK  Name = 
REMARK  5 active torsions:
REMARK  status: ('A' for Active; 'I' for Inactive)
REMARK    1  A    between atoms: C_1  and  N_2
REMARK    2  A    between atoms: C_6  and  C_7
REMARK    3  A    between atoms: C_7  and  C_8
REMARK    4  A    between atoms: C_7  and  C_10
REMARK    5  A    between atoms: C_16  and  C_17
REMARK                            x       y       z     vdW  Elec       q    Type
REMARK                         _______ _______ _______ _____ _____    ______ ____
ROOT
ATOM      1  C   UNL     1       3.465   4.845  18.297  0.00  0.00    +0.000 C 
ENDROOT
BRANCH   1   2
ATOM      2  C   UNL     1       4.595   4.610  17.280  0.00  0.00    +0.000 A 
ATOM      3  C   UNL     1       4.298   4.243  15.948  0.00  0.00    +0.000 A 
ATOM      4  C   UNL     1       5.301   4.097  14.985  0.00  0.00    +0.000 A 
ATOM      5  C   UNL     1       6.631   4.295  15.334  0.00  0.00    +0.000 A 
ATOM      6  C   UNL     1       6.950   4.603  16.651  0.00  0.00    +0.000 A 
ATOM      7  F   UNL     1       8.243   4.758  16.973  0.00  0.00    +0.000 F 
ATOM      8  C   UNL     1       5.957   4.752  17.627  0.00  0.00    +0.000 A 
BRANCH   8   9
ATOM      9  C   UNL     1       6.374   5.026  18.966  0.00  0.00    +0.000 C 
ATOM     10  N   UNL     1       6.780   5.215  20.039  0.00  0.00    +0.000 NA
ENDBRANCH   8   9
ENDBRANCH   1   2
BRANCH   1  16
ATOM     11  C   UNL     1       1.806   6.208  20.586  0.00  0.00    +0.000 C 
ATOM     12  N   UNL     1       2.302   6.865  19.393  0.00  0.00    +0.000 N 
ATOM     13  C   UNL     1       2.059   8.189  19.121  0.00  0.00    +0.000 A 
ATOM     14  C   UNL     1       2.641   8.500  17.917  0.00  0.00    +0.000 A 
ATOM     15  C   UNL     1       3.243   7.322  17.435  0.00  0.00    +0.000 A 
ATOM     16  C   UNL     1       3.036   6.305  18.361  0.00  0.00    +0.000 A 
ENDBRANCH   1  16
BRANCH   1  17
ATOM     17  C   UNL     1       2.291   3.975  18.026  0.00  0.00    +0.000 C 
ATOM     18  N   UNL     1       1.376   3.295  17.799  0.00  0.00    +0.000 NA
ENDBRANCH   1  17
TORSDOF 4
ENDMDL
