MODEL 1
REMARK VINA RESULT:      -7.1      0.000      0.000
REMARK  Name = 
REMARK  10 active torsions:
REMARK  status: ('A' for Active; 'I' for Inactive)
REMARK    1  A    between atoms: N_2  and  C_4
REMARK    2  A    between atoms: C_7  and  S_8
REMARK    3  A    between atoms: S_8  and  N_11
REMARK    4  A    between atoms: N_11  and  C_12
REMARK    5  A    between atoms: C_12  and  P_13
REMARK    6  A    between atoms: C_12  and  P_17
REMARK    7  A    between atoms: P_13  and  O_15
REMARK    8  A    between atoms: P_13  and  O_16
REMARK    9  A    between atoms: P_17  and  O_19
REMARK   10  A    between atoms: P_17  and  O_20
REMARK                            x       y       z     vdW  Elec       q    Type
REMARK                         _______ _______ _______ _____ _____    ______ ____
ROOT
ATOM      1  N   UNL     1       4.185   3.582  19.215  0.00  0.00    +0.000 NA
ATOM      2  H   UNL     1       4.368   3.038  20.068  0.00  0.00    +0.000 HD
ENDROOT
BRANCH   1   3
ATOM      3  S   UNL     1       5.255   4.871  18.969  0.00  0.00    +0.000 S 
ATOM      4  O   UNL     1       6.367   4.657  19.875  0.00  0.00    +0.000 OA
ATOM      5  O   UNL     1       4.477   6.091  18.978  0.00  0.00    +0.000 OA
BRANCH   3   9
ATOM      6  C   UNL     1       6.689   4.559  14.650  0.00  0.00    +0.000 A 
ATOM      7  C   UNL     1       7.592   4.979  15.641  0.00  0.00    +0.000 A 
ATOM      8  C   UNL     1       7.177   5.043  16.981  0.00  0.00    +0.000 A 
ATOM      9  C   UNL     1       5.877   4.659  17.313  0.00  0.00    +0.000 A 
ATOM     10  C   UNL     1       5.065   4.060  16.346  0.00  0.00    +0.000 A 
ATOM     11  C   UNL     1       5.431   4.076  15.003  0.00  0.00    +0.000 A 
BRANCH   6  13
ATOM     12  O   UNL     1       6.509   3.827  12.457  0.00  0.00    +0.000 OA
ATOM     13  N   UNL     1       7.054   4.631  13.231  0.00  0.00    +0.000 N 
ATOM     14  O   UNL     1       7.886   5.482  12.888  0.00  0.00    +0.000 OA
ENDBRANCH   6  13
ENDBRANCH   3   9
ENDBRANCH   1   3
BRANCH   1  15
ATOM     15  C   UNL     1       2.711   3.933  19.128  0.00  0.00    +0.000 C 
BRANCH  15  16
ATOM     16  P   UNL     1       1.524   2.625  18.649  0.00  0.00    +0.000 P 
ATOM     17  O   UNL     1       0.844   3.551  17.635  0.00  0.00    +0.000 OA
BRANCH  16  18
ATOM     18  O   UNL     1       2.663   1.853  17.745  0.00  0.00    +0.000 OA
ATOM     19  H   UNL     1       2.848   2.375  16.937  0.00  0.00    +0.000 HD
ENDBRANCH  16  18
BRANCH  16  20
ATOM     20  O   UNL     1       0.402   1.389  18.196  0.00  0.00    +0.000 OA
ATOM     21  H   UNL     1       0.431   1.358  17.218  0.00  0.00    +0.000 HD
ENDBRANCH  16  20
ENDBRANCH  15  16
BRANCH  15  22
ATOM     22  P   UNL     1       2.003   4.267  20.843  0.00  0.00    +0.000 P 
ATOM     23  O   UNL     1       2.448   3.304  21.885  0.00  0.00    +0.000 OA
BRANCH  22  24
ATOM     24  O   UNL     1       2.264   5.817  21.154  0.00  0.00    +0.000 OA
ATOM     25  H   UNL     1       1.477   6.360  21.398  0.00  0.00    +0.000 HD
ENDBRANCH  22  24
BRANCH  22  26
ATOM     26  O   UNL     1       0.411   4.292  20.669  0.00  0.00    +0.000 OA
ATOM     27  H   UNL     1       0.091   3.505  20.176  0.00  0.00    +0.000 HD
ENDBRANCH  22  26
ENDBRANCH  15  22
ENDBRANCH   1  15
TORSDOF 10
ENDMDL
MODEL 2
REMARK VINA RESULT:      -6.9      3.185      6.864
REMARK  Name = 
REMARK  10 active torsions:
REMARK  status: ('A' for Active; 'I' for Inactive)
REMARK    1  A    between atoms: N_2  and  C_4
REMARK    2  A    between atoms: C_7  and  S_8
REMARK    3  A    between atoms: S_8  and  N_11
REMARK    4  A    between atoms: N_11  and  C_12
REMARK    5  A    between atoms: C_12  and  P_13
REMARK    6  A    between atoms: C_12  and  P_17
REMARK    7  A    between atoms: P_13  and  O_15
REMARK    8  A    between atoms: P_13  and  O_16
REMARK    9  A    between atoms: P_17  and  O_19
REMARK   10  A    between atoms: P_17  and  O_20
REMARK                            x       y       z     vdW  Elec       q    Type
REMARK                         _______ _______ _______ _____ _____    ______ ____
ROOT
ATOM      1  N   UNL     1       5.083   3.608  18.235  0.00  0.00    +0.000 NA
ATOM      2  H   UNL     1       5.638   2.849  17.819  0.00  0.00    +0.000 HD
ENDROOT
BRANCH   1   3
ATOM      3  S   UNL     1       3.408   3.385  18.125  0.00  0.00    +0.000 S 
ATOM      4  O   UNL     1       3.079   2.304  19.035  0.00  0.00    +0.000 OA
ATOM      5  O   UNL     1       3.066   3.340  16.720  0.00  0.00    +0.000 OA
BRANCH   3   9
ATOM      6  C   UNL     1       1.807   7.228  19.988  0.00  0.00    +0.000 A 
ATOM      7  C   UNL     1       2.178   7.228  18.633  0.00  0.00    +0.000 A 
ATOM      8  C   UNL     1       2.635   6.044  18.035  0.00  0.00    +0.000 A 
ATOM      9  C   UNL     1       2.689   4.872  18.791  0.00  0.00    +0.000 A 
ATOM     10  C   UNL     1       2.131   4.851  20.073  0.00  0.00    +0.000 A 
ATOM     11  C   UNL     1       1.761   6.035  20.705  0.00  0.00    +0.000 A 
BRANCH   6  13
ATOM     12  O   UNL     1       1.468   8.479  21.911  0.00  0.00    +0.000 OA
ATOM     13  N   UNL     1       1.473   8.484  20.670  0.00  0.00    +0.000 N 
ATOM     14  O   UNL     1       1.211   9.472  19.970  0.00  0.00    +0.000 OA
ENDBRANCH   6  13
ENDBRANCH   3   9
ENDBRANCH   1   3
BRANCH   1  15
ATOM     15  C   UNL     1       5.594   4.953  17.752  0.00  0.00    +0.000 C 
BRANCH  15  16
ATOM     16  P   UNL     1       7.092   5.655  18.535  0.00  0.00    +0.000 P 
ATOM     17  O   UNL     1       6.570   5.320  19.936  0.00  0.00    +0.000 OA
BRANCH  16  18
ATOM     18  O   UNL     1       7.981   4.327  18.140  0.00  0.00    +0.000 OA
ATOM     19  H   UNL     1       7.734   4.022  17.243  0.00  0.00    +0.000 HD
ENDBRANCH  16  18
BRANCH  16  20
ATOM     20  O   UNL     1       8.507   6.319  19.275  0.00  0.00    +0.000 OA
ATOM     21  H   UNL     1       8.746   7.096  18.729  0.00  0.00    +0.000 HD
ENDBRANCH  16  20
ENDBRANCH  15  16
BRANCH  15  22
ATOM     22  P   UNL     1       6.294   4.811  16.007  0.00  0.00    +0.000 P 
ATOM     23  O   UNL     1       7.502   5.644  15.764  0.00  0.00    +0.000 OA
BRANCH  22  24
ATOM     24  O   UNL     1       6.438   3.246  15.696  0.00  0.00    +0.000 OA
ATOM     25  H   UNL     1       6.561   2.990  14.751  0.00  0.00    +0.000 HD
ENDBRANCH  22  24
BRANCH  22  26
ATOM     26  O   UNL     1       5.089   5.173  15.015  0.00  0.00    +0.000 OA
ATOM     27  H   UNL     1       5.333   5.900  14.403  0.00  0.00    +0.000 HD
ENDBRANCH  22  26
ENDBRANCH  15  22
ENDBRANCH   1  15
TORSDOF 10
ENDMDL
MODEL 3
REMARK VINA RESULT:      -6.9      3.289      6.848
REMARK  Name = 
REMARK  10 active torsions:
REMARK  status: ('A' for Active; 'I' for Inactive)
REMARK    1  A    between atoms: N_2  and  C_4
REMARK    2  A    between atoms: C_7  and  S_8
REMARK    3  A    between atoms: S_8  and  N_11
REMARK    4  A    between atoms: N_11  and  C_12
REMARK    5  A    between atoms: C_12  and  P_13
REMARK    6  A    between atoms: C_12  and  P_17
REMARK    7  A    between atoms: P_13  and  O_15
REMARK    8  A    between atoms: P_13  and  O_16
REMARK    9  A    between atoms: P_17  and  O_19
REMARK   10  A    between atoms: P_17  and  O_20
REMARK                            x       y       z     vdW  Elec       q    Type
REMARK                         _______ _______ _______ _____ _____    ______ ____
ROOT
ATOM      1  N   UNL     1       4.989   3.595  18.043  0.00  0.00    +0.000 NA
ATOM      2  H   UNL     1       5.388   2.841  17.469  0.00  0.00    +0.000 HD
ENDROOT
BRANCH   1   3
ATOM      3  S   UNL     1       3.304   3.532  18.199  0.00  0.00    +0.000 S 
ATOM      4  O   UNL     1       3.024   2.519  19.199  0.00  0.00    +0.000 OA
ATOM      5  O   UNL     1       2.745   3.475  16.866  0.00  0.00    +0.000 OA
BRANCH   3   9
ATOM      6  C   UNL     1       1.853   7.534  19.838  0.00  0.00    +0.000 A 
ATOM      7  C   UNL     1       1.947   6.433  20.707  0.00  0.00    +0.000 A 
ATOM      8  C   UNL     1       2.428   5.205  20.227  0.00  0.00    +0.000 A 
ATOM      9  C   UNL     1       2.836   5.103  18.895  0.00  0.00    +0.000 A 
ATOM     10  C   UNL     1       2.920   6.256  18.108  0.00  0.00    +0.000 A 
ATOM     11  C   UNL     1       2.361   7.454  18.544  0.00  0.00    +0.000 A 
BRANCH   6  13
ATOM     12  O   UNL     1       0.662   8.776  21.393  0.00  0.00    +0.000 OA
ATOM     13  N   UNL     1       1.212   8.778  20.279  0.00  0.00    +0.000 N 
ATOM     14  O   UNL     1       1.251   9.753  19.517  0.00  0.00    +0.000 OA
ENDBRANCH   6  13
ENDBRANCH   3   9
ENDBRANCH   1   3
BRANCH   1  15
ATOM     15  C   UNL     1       5.554   4.935  17.608  0.00  0.00    +0.000 C 
BRANCH  15  16
ATOM     16  P   UNL     1       7.024   5.592  18.478  0.00  0.00    +0.000 P 
ATOM     17  O   UNL     1       6.430   5.234  19.844  0.00  0.00    +0.000 OA
BRANCH  16  18
ATOM     18  O   UNL     1       7.908   4.257  18.094  0.00  0.00    +0.000 OA
ATOM     19  H   UNL     1       7.835   3.598  18.814  0.00  0.00    +0.000 HD
ENDBRANCH  16  18
BRANCH  16  20
ATOM     20  O   UNL     1       8.413   6.213  19.300  0.00  0.00    +0.000 OA
ATOM     21  H   UNL     1       9.165   6.061  18.691  0.00  0.00    +0.000 HD
ENDBRANCH  16  20
ENDBRANCH  15  16
BRANCH  15  22
ATOM     22  P   UNL     1       6.339   4.803  15.899  0.00  0.00    +0.000 P 
ATOM     23  O   UNL     1       7.573   5.616  15.730  0.00  0.00    +0.000 OA
BRANCH  22  24
ATOM     24  O   UNL     1       6.471   3.240  15.573  0.00  0.00    +0.000 OA
ATOM     25  H   UNL     1       7.382   2.860  15.574  0.00  0.00    +0.000 HD
ENDBRANCH  22  24
BRANCH  22  26
ATOM     26  O   UNL     1       5.194   5.201  14.852  0.00  0.00    +0.000 OA
ATOM     27  H   UNL     1       5.571   5.418  13.972  0.00  0.00    +0.000 HD
ENDBRANCH  22  26
ENDBRANCH  15  22
ENDBRANCH   1  15
TORSDOF 10
ENDMDL
MODEL 4
REMARK VINA RESULT:      -6.9      0.663      1.163
REMARK  Name = 
REMARK  10 active torsions:
REMARK  status: ('A' for Active; 'I' for Inactive)
REMARK    1  A    between atoms: N_2  and  C_4
REMARK    2  A    between atoms: C_7  and  S_8
REMARK    3  A    between atoms: S_8  and  N_11
REMARK    4  A    between atoms: N_11  and  C_12
REMARK    5  A    between atoms: C_12  and  P_13
REMARK    6  A    between atoms: C_12  and  P_17
REMARK    7  A    between atoms: P_13  and  O_15
REMARK    8  A    between atoms: P_13  and  O_16
REMARK    9  A    between atoms: P_17  and  O_19
REMARK   10  A    between atoms: P_17  and  O_20
REMARK                            x       y       z     vdW  Elec       q    Type
REMARK                         _______ _______ _______ _____ _____    ______ ____
ROOT
ATOM      1  N   UNL     1       4.162   3.513  19.186  0.00  0.00    +0.000 NA
ATOM      2  H   UNL     1       4.502   2.889  19.929  0.00  0.00    +0.000 HD
ENDROOT
BRANCH   1   3
ATOM      3  S   UNL     1       5.134   4.873  18.919  0.00  0.00    +0.000 S 
ATOM      4  O   UNL     1       6.248   4.766  19.842  0.00  0.00    +0.000 OA
ATOM      5  O   UNL     1       4.267   6.030  18.889  0.00  0.00    +0.000 OA
BRANCH   3   9
ATOM      6  C   UNL     1       6.701   4.606  14.644  0.00  0.00    +0.000 A 
ATOM      7  C   UNL     1       7.612   4.809  15.694  0.00  0.00    +0.000 A 
ATOM      8  C   UNL     1       7.151   4.855  17.018  0.00  0.00    +0.000 A 
ATOM      9  C   UNL     1       5.791   4.668  17.276  0.00  0.00    +0.000 A 
ATOM     10  C   UNL     1       4.940   4.272  16.240  0.00  0.00    +0.000 A 
ATOM     11  C   UNL     1       5.367   4.314  14.916  0.00  0.00    +0.000 A 
BRANCH   6  13
ATOM     12  O   UNL     1       6.680   3.882  12.441  0.00  0.00    +0.000 OA
ATOM     13  N   UNL     1       7.139   4.708  13.247  0.00  0.00    +0.000 N 
ATOM     14  O   UNL     1       7.943   5.603  12.954  0.00  0.00    +0.000 OA
ENDBRANCH   6  13
ENDBRANCH   3   9
ENDBRANCH   1   3
BRANCH   1  15
ATOM     15  C   UNL     1       2.684   3.798  19.383  0.00  0.00    +0.000 C 
BRANCH  15  16
ATOM     16  P   UNL     1       1.464   2.621  18.693  0.00  0.00    +0.000 P 
ATOM     17  O   UNL     1       1.804   3.041  17.259  0.00  0.00    +0.000 OA
BRANCH  16  18
ATOM     18  O   UNL     1       2.471   1.345  18.956  0.00  0.00    +0.000 OA
ATOM     19  H   UNL     1       3.367   1.675  19.175  0.00  0.00    +0.000 HD
ENDBRANCH  16  18
BRANCH  16  20
ATOM     20  O   UNL     1       0.311   1.508  18.040  0.00  0.00    +0.000 OA
ATOM     21  H   UNL     1      -0.372   2.063  17.611  0.00  0.00    +0.000 HD
ENDBRANCH  16  20
ENDBRANCH  15  16
BRANCH  15  22
ATOM     22  P   UNL     1       2.201   3.591  21.193  0.00  0.00    +0.000 P 
ATOM     23  O   UNL     1       2.297   4.838  21.998  0.00  0.00    +0.000 OA
BRANCH  22  24
ATOM     24  O   UNL     1       0.781   2.847  21.208  0.00  0.00    +0.000 OA
ATOM     25  H   UNL     1       0.702   2.053  21.789  0.00  0.00    +0.000 HD
ENDBRANCH  22  24
BRANCH  22  26
ATOM     26  O   UNL     1       3.126   2.416  21.768  0.00  0.00    +0.000 OA
ATOM     27  H   UNL     1       2.719   1.535  21.624  0.00  0.00    +0.000 HD
ENDBRANCH  22  26
ENDBRANCH  15  22
ENDBRANCH   1  15
TORSDOF 10
ENDMDL
MODEL 5
REMARK VINA RESULT:      -6.8      3.295      6.860
REMARK  Name = 
REMARK  10 active torsions:
REMARK  status: ('A' for Active; 'I' for Inactive)
REMARK    1  A    between atoms: N_2  and  C_4
REMARK    2  A    between atoms: C_7  and  S_8
REMARK    3  A    between atoms: S_8  and  N_11
REMARK    4  A    between atoms: N_11  and  C_12
REMARK    5  A    between atoms: C_12  and  P_13
REMARK    6  A    between atoms: C_12  and  P_17
REMARK    7  A    between atoms: P_13  and  O_15
REMARK    8  A    between atoms: P_13  and  O_16
REMARK    9  A    between atoms: P_17  and  O_19
REMARK   10  A    between atoms: P_17  and  O_20
REMARK                            x       y       z     vdW  Elec       q    Type
REMARK                         _______ _______ _______ _____ _____    ______ ____
ROOT
ATOM      1  N   UNL     1       5.035   3.647  17.900  0.00  0.00    +0.000 NA
ATOM      2  H   UNL     1       5.411   2.993  17.201  0.00  0.00    +0.000 HD
ENDROOT
BRANCH   1   3
ATOM      3  S   UNL     1       3.361   3.532  18.129  0.00  0.00    +0.000 S 
ATOM      4  O   UNL     1       3.156   2.508  19.135  0.00  0.00    +0.000 OA
ATOM      5  O   UNL     1       2.746   3.462  16.821  0.00  0.00    +0.000 OA
BRANCH   3   9
ATOM      6  C   UNL     1       1.861   7.481  19.851  0.00  0.00    +0.000 A 
ATOM      7  C   UNL     1       2.036   6.383  20.711  0.00  0.00    +0.000 A 
ATOM      8  C   UNL     1       2.534   5.173  20.204  0.00  0.00    +0.000 A 
ATOM      9  C   UNL     1       2.876   5.086  18.853  0.00  0.00    +0.000 A 
ATOM     10  C   UNL     1       2.881   6.241  18.066  0.00  0.00    +0.000 A 
ATOM     11  C   UNL     1       2.305   7.419  18.533  0.00  0.00    +0.000 A 
BRANCH   6  13
ATOM     12  O   UNL     1       1.249   9.702  19.594  0.00  0.00    +0.000 OA
ATOM     13  N   UNL     1       1.202   8.702  20.328  0.00  0.00    +0.000 N 
ATOM     14  O   UNL     1       0.643   8.667  21.432  0.00  0.00    +0.000 OA
ENDBRANCH   6  13
ENDBRANCH   3   9
ENDBRANCH   1   3
BRANCH   1  15
ATOM     15  C   UNL     1       5.562   5.047  17.641  0.00  0.00    +0.000 C 
BRANCH  15  16
ATOM     16  P   UNL     1       7.049   5.607  18.550  0.00  0.00    +0.000 P 
ATOM     17  O   UNL     1       6.444   5.178  19.891  0.00  0.00    +0.000 OA
BRANCH  16  18
ATOM     18  O   UNL     1       7.897   4.276  18.081  0.00  0.00    +0.000 OA
ATOM     19  H   UNL     1       7.425   3.827  17.350  0.00  0.00    +0.000 HD
ENDBRANCH  16  18
BRANCH  16  20
ATOM     20  O   UNL     1       8.454   6.135  19.410  0.00  0.00    +0.000 OA
ATOM     21  H   UNL     1       8.963   6.673  18.770  0.00  0.00    +0.000 HD
ENDBRANCH  16  20
ENDBRANCH  15  16
BRANCH  15  22
ATOM     22  P   UNL     1       6.294   5.173  15.908  0.00  0.00    +0.000 P 
ATOM     23  O   UNL     1       6.577   3.861  15.267  0.00  0.00    +0.000 OA
BRANCH  22  24
ATOM     24  O   UNL     1       5.354   6.175  15.084  0.00  0.00    +0.000 OA
ATOM     25  H   UNL     1       5.807   6.850  14.524  0.00  0.00    +0.000 HD
ENDBRANCH  22  24
BRANCH  22  26
ATOM     26  O   UNL     1       7.605   6.084  16.045  0.00  0.00    +0.000 OA
ATOM     27  H   UNL     1       8.286   5.652  16.604  0.00  0.00    +0.000 HD
ENDBRANCH  22  26
ENDBRANCH  15  22
ENDBRANCH   1  15
TORSDOF 10
ENDMDL
MODEL 6
REMARK VINA RESULT:      -6.8      3.254      6.806
REMARK  Name = 
REMARK  10 active torsions:
REMARK  status: ('A' for Active; 'I' for Inactive)
REMARK    1  A    between atoms: N_2  and  C_4
REMARK    2  A    between atoms: C_7  and  S_8
REMARK    3  A    between atoms: S_8  and  N_11
REMARK    4  A    between atoms: N_11  and  C_12
REMARK    5  A    between atoms: C_12  and  P_13
REMARK    6  A    between atoms: C_12  and  P_17
REMARK    7  A    between atoms: P_13  and  O_15
REMARK    8  A    between atoms: P_13  and  O_16
REMARK    9  A    between atoms: P_17  and  O_19
REMARK   10  A    between atoms: P_17  and  O_20
REMARK                            x       y       z     vdW  Elec       q    Type
REMARK                         _______ _______ _______ _____ _____    ______ ____
ROOT
ATOM      1  N   UNL     1       4.933   3.692  17.437  0.00  0.00    +0.000 NA
ATOM      2  H   UNL     1       5.100   3.366  16.477  0.00  0.00    +0.000 HD
ENDROOT
BRANCH   1   3
ATOM      3  S   UNL     1       3.349   3.457  17.987  0.00  0.00    +0.000 S 
ATOM      4  O   UNL     1       3.419   2.430  19.009  0.00  0.00    +0.000 OA
ATOM      5  O   UNL     1       2.498   3.329  16.823  0.00  0.00    +0.000 OA
BRANCH   3   9
ATOM      6  C   UNL     1       1.939   7.333  19.934  0.00  0.00    +0.000 A 
ATOM      7  C   UNL     1       2.104   6.188  20.732  0.00  0.00    +0.000 A 
ATOM      8  C   UNL     1       2.574   4.998  20.155  0.00  0.00    +0.000 A 
ATOM      9  C   UNL     1       2.900   4.978  18.797  0.00  0.00    +0.000 A 
ATOM     10  C   UNL     1       2.915   6.173  18.073  0.00  0.00    +0.000 A 
ATOM     11  C   UNL     1       2.366   7.334  18.608  0.00  0.00    +0.000 A 
BRANCH   6  13
ATOM     12  O   UNL     1       1.256   8.647  21.719  0.00  0.00    +0.000 OA
ATOM     13  N   UNL     1       1.307   8.538  20.482  0.00  0.00    +0.000 N 
ATOM     14  O   UNL     1       0.856   9.372  19.685  0.00  0.00    +0.000 OA
ENDBRANCH   6  13
ENDBRANCH   3   9
ENDBRANCH   1   3
BRANCH   1  15
ATOM     15  C   UNL     1       5.482   5.096  17.614  0.00  0.00    +0.000 C 
BRANCH  15  16
ATOM     16  P   UNL     1       6.942   5.338  18.691  0.00  0.00    +0.000 P 
ATOM     17  O   UNL     1       6.242   4.650  19.869  0.00  0.00    +0.000 OA
BRANCH  16  18
ATOM     18  O   UNL     1       7.748   4.101  17.961  0.00  0.00    +0.000 OA
ATOM     19  H   UNL     1       7.103   3.455  17.606  0.00  0.00    +0.000 HD
ENDBRANCH  16  18
BRANCH  16  20
ATOM     20  O   UNL     1       8.321   5.567  19.709  0.00  0.00    +0.000 OA
ATOM     21  H   UNL     1       8.660   6.459  19.492  0.00  0.00    +0.000 HD
ENDBRANCH  16  20
ENDBRANCH  15  16
BRANCH  15  22
ATOM     22  P   UNL     1       6.274   5.707  16.016  0.00  0.00    +0.000 P 
ATOM     23  O   UNL     1       5.345   6.438  15.114  0.00  0.00    +0.000 OA
BRANCH  22  24
ATOM     24  O   UNL     1       7.613   6.483  16.434  0.00  0.00    +0.000 OA
ATOM     25  H   UNL     1       8.465   6.102  16.117  0.00  0.00    +0.000 HD
ENDBRANCH  22  24
BRANCH  22  26
ATOM     26  O   UNL     1       6.918   4.416  15.319  0.00  0.00    +0.000 OA
ATOM     27  H   UNL     1       6.231   3.763  15.066  0.00  0.00    +0.000 HD
ENDBRANCH  22  26
ENDBRANCH  15  22
ENDBRANCH   1  15
TORSDOF 10
ENDMDL
MODEL 7
REMARK VINA RESULT:      -6.7      3.228      6.861
REMARK  Name = 
REMARK  10 active torsions:
REMARK  status: ('A' for Active; 'I' for Inactive)
REMARK    1  A    between atoms: N_2  and  C_4
REMARK    2  A    between atoms: C_7  and  S_8
REMARK    3  A    between atoms: S_8  and  N_11
REMARK    4  A    between atoms: N_11  and  C_12
REMARK    5  A    between atoms: C_12  and  P_13
REMARK    6  A    between atoms: C_12  and  P_17
REMARK    7  A    between atoms: P_13  and  O_15
REMARK    8  A    between atoms: P_13  and  O_16
REMARK    9  A    between atoms: P_17  and  O_19
REMARK   10  A    between atoms: P_17  and  O_20
REMARK                            x       y       z     vdW  Elec       q    Type
REMARK                         _______ _______ _______ _____ _____    ______ ____
ROOT
ATOM      1  N   UNL     1       5.167   3.670  18.255  0.00  0.00    +0.000 NA
ATOM      2  H   UNL     1       5.728   2.972  17.750  0.00  0.00    +0.000 HD
ENDROOT
BRANCH   1   3
ATOM      3  S   UNL     1       3.496   3.406  18.179  0.00  0.00    +0.000 S 
ATOM      4  O   UNL     1       3.208   2.342  19.121  0.00  0.00    +0.000 OA
ATOM      5  O   UNL     1       3.132   3.318  16.782  0.00  0.00    +0.000 OA
BRANCH   3   9
ATOM      6  C   UNL     1       1.833   7.250  19.985  0.00  0.00    +0.000 A 
ATOM      7  C   UNL     1       2.241   7.248  18.641  0.00  0.00    +0.000 A 
ATOM      8  C   UNL     1       2.719   6.063  18.059  0.00  0.00    +0.000 A 
ATOM      9  C   UNL     1       2.754   4.893  18.820  0.00  0.00    +0.000 A 
ATOM     10  C   UNL     1       2.161   4.874  20.086  0.00  0.00    +0.000 A 
ATOM     11  C   UNL     1       1.770   6.059  20.704  0.00  0.00    +0.000 A 
BRANCH   6  13
ATOM     12  O   UNL     1       1.184   9.476  19.932  0.00  0.00    +0.000 OA
ATOM     13  N   UNL     1       1.476   8.507  20.653  0.00  0.00    +0.000 N 
ATOM     14  O   UNL     1       1.492   8.532  21.891  0.00  0.00    +0.000 OA
ENDBRANCH   6  13
ENDBRANCH   3   9
ENDBRANCH   1   3
BRANCH   1  15
ATOM     15  C   UNL     1       5.623   5.070  17.887  0.00  0.00    +0.000 C 
BRANCH  15  16
ATOM     16  P   UNL     1       7.147   5.728  18.659  0.00  0.00    +0.000 P 
ATOM     17  O   UNL     1       6.682   5.291  20.053  0.00  0.00    +0.000 OA
BRANCH  16  18
ATOM     18  O   UNL     1       8.027   4.438  18.138  0.00  0.00    +0.000 OA
ATOM     19  H   UNL     1       7.427   3.689  17.942  0.00  0.00    +0.000 HD
ENDBRANCH  16  18
BRANCH  16  20
ATOM     20  O   UNL     1       8.587   6.349  19.389  0.00  0.00    +0.000 OA
ATOM     21  H   UNL     1       8.307   7.152  19.874  0.00  0.00    +0.000 HD
ENDBRANCH  16  20
ENDBRANCH  15  16
BRANCH  15  22
ATOM     22  P   UNL     1       6.229   5.126  16.103  0.00  0.00    +0.000 P 
ATOM     23  O   UNL     1       6.560   3.795  15.528  0.00  0.00    +0.000 OA
BRANCH  22  24
ATOM     24  O   UNL     1       5.170   6.007  15.285  0.00  0.00    +0.000 OA
ATOM     25  H   UNL     1       5.106   5.839  14.316  0.00  0.00    +0.000 HD
ENDBRANCH  22  24
BRANCH  22  26
ATOM     26  O   UNL     1       7.479   6.128  16.090  0.00  0.00    +0.000 OA
ATOM     27  H   UNL     1       7.958   6.095  15.234  0.00  0.00    +0.000 HD
ENDBRANCH  22  26
ENDBRANCH  15  22
ENDBRANCH   1  15
TORSDOF 10
ENDMDL
MODEL 8
REMARK VINA RESULT:      -6.7      1.804      2.662
REMARK  Name = 
REMARK  10 active torsions:
REMARK  status: ('A' for Active; 'I' for Inactive)
REMARK    1  A    between atoms: N_2  and  C_4
REMARK    2  A    between atoms: C_7  and  S_8
REMARK    3  A    between atoms: S_8  and  N_11
REMARK    4  A    between atoms: N_11  and  C_12
REMARK    5  A    between atoms: C_12  and  P_13
REMARK    6  A    between atoms: C_12  and  P_17
REMARK    7  A    between atoms: P_13  and  O_15
REMARK    8  A    between atoms: P_13  and  O_16
REMARK    9  A    between atoms: P_17  and  O_19
REMARK   10  A    between atoms: P_17  and  O_20
REMARK                            x       y       z     vdW  Elec       q    Type
REMARK                         _______ _______ _______ _____ _____    ______ ____
ROOT
ATOM      1  N   UNL     1       3.189   5.023  19.709  0.00  0.00    +0.000 NA
ATOM      2  H   UNL     1       2.710   5.348  20.559  0.00  0.00    +0.000 HD
ENDROOT
BRANCH   1   3
ATOM      3  S   UNL     1       2.833   5.926  18.321  0.00  0.00    +0.000 S 
ATOM      4  O   UNL     1       2.914   7.321  18.710  0.00  0.00    +0.000 OA
ATOM      5  O   UNL     1       1.642   5.359  17.727  0.00  0.00    +0.000 OA
BRANCH   3   9
ATOM      6  C   UNL     1       6.089   5.151  15.222  0.00  0.00    +0.000 A 
ATOM      7  C   UNL     1       6.092   6.367  15.927  0.00  0.00    +0.000 A 
ATOM      8  C   UNL     1       5.120   6.605  16.911  0.00  0.00    +0.000 A 
ATOM      9  C   UNL     1       4.179   5.613  17.197  0.00  0.00    +0.000 A 
ATOM     10  C   UNL     1       4.317   4.345  16.627  0.00  0.00    +0.000 A 
ATOM     11  C   UNL     1       5.216   4.129  15.586  0.00  0.00    +0.000 A 
BRANCH   6  13
ATOM     12  O   UNL     1       6.674   4.097  13.241  0.00  0.00    +0.000 OA
ATOM     13  N   UNL     1       6.998   4.945  14.089  0.00  0.00    +0.000 N 
ATOM     14  O   UNL     1       8.034   5.622  14.045  0.00  0.00    +0.000 OA
ENDBRANCH   6  13
ENDBRANCH   3   9
ENDBRANCH   1   3
BRANCH   1  15
ATOM     15  C   UNL     1       3.034   3.520  19.566  0.00  0.00    +0.000 C 
BRANCH  15  16
ATOM     16  P   UNL     1       4.280   2.431  20.347  0.00  0.00    +0.000 P 
ATOM     17  O   UNL     1       3.981   1.302  19.354  0.00  0.00    +0.000 OA
BRANCH  16  18
ATOM     18  O   UNL     1       5.516   3.245  19.626  0.00  0.00    +0.000 OA
ATOM     19  H   UNL     1       5.220   4.148  19.389  0.00  0.00    +0.000 HD
ENDBRANCH  16  18
BRANCH  16  20
ATOM     20  O   UNL     1       5.458   1.401  21.085  0.00  0.00    +0.000 OA
ATOM     21  H   UNL     1       5.837   1.925  21.821  0.00  0.00    +0.000 HD
ENDBRANCH  16  20
ENDBRANCH  15  16
BRANCH  15  22
ATOM     22  P   UNL     1       1.547   2.908  20.549  0.00  0.00    +0.000 P 
ATOM     23  O   UNL     1       1.859   2.520  21.950  0.00  0.00    +0.000 OA
BRANCH  22  24
ATOM     24  O   UNL     1       0.388   3.999  20.358  0.00  0.00    +0.000 OA
ATOM     25  H   UNL     1       0.627   4.818  19.863  0.00  0.00    +0.000 HD
ENDBRANCH  22  24
BRANCH  22  26
ATOM     26  O   UNL     1       0.922   1.700  19.702  0.00  0.00    +0.000 OA
ATOM     27  H   UNL     1       0.166   1.285  20.171  0.00  0.00    +0.000 HD
ENDBRANCH  22  26
ENDBRANCH  15  22
ENDBRANCH   1  15
TORSDOF 10
ENDMDL
MODEL 9
REMARK VINA RESULT:      -6.7      4.453      7.133
REMARK  Name = 
REMARK  10 active torsions:
REMARK  status: ('A' for Active; 'I' for Inactive)
REMARK    1  A    between atoms: N_2  and  C_4
REMARK    2  A    between atoms: C_7  and  S_8
REMARK    3  A    between atoms: S_8  and  N_11
REMARK    4  A    between atoms: N_11  and  C_12
REMARK    5  A    between atoms: C_12  and  P_13
REMARK    6  A    between atoms: C_12  and  P_17
REMARK    7  A    between atoms: P_13  and  O_15
REMARK    8  A    between atoms: P_13  and  O_16
REMARK    9  A    between atoms: P_17  and  O_19
REMARK   10  A    between atoms: P_17  and  O_20
REMARK                            x       y       z     vdW  Elec       q    Type
REMARK                         _______ _______ _______ _____ _____    ______ ____
ROOT
ATOM      1  N   UNL     1       4.488   6.290  17.504  0.00  0.00    +0.000 NA
ATOM      2  H   UNL     1       5.112   7.016  17.881  0.00  0.00    +0.000 HD
ENDROOT
BRANCH   1   3
ATOM      3  S   UNL     1       3.177   5.910  18.507  0.00  0.00    +0.000 S 
ATOM      4  O   UNL     1       3.742   5.440  19.757  0.00  0.00    +0.000 OA
ATOM      5  O   UNL     1       2.252   5.113  17.730  0.00  0.00    +0.000 OA
BRANCH   3   9
ATOM      6  C   UNL     1       0.887   9.788  19.229  0.00  0.00    +0.000 A 
ATOM      7  C   UNL     1       1.147   8.935  20.316  0.00  0.00    +0.000 A 
ATOM      8  C   UNL     1       1.884   7.758  20.117  0.00  0.00    +0.000 A 
ATOM      9  C   UNL     1       2.375   7.464  18.843  0.00  0.00    +0.000 A 
ATOM     10  C   UNL     1       2.274   8.419  17.827  0.00  0.00    +0.000 A 
ATOM     11  C   UNL     1       1.469   9.544  17.988  0.00  0.00    +0.000 A 
BRANCH   6  13
ATOM     12  O   UNL     1      -0.354  11.540  18.354  0.00  0.00    +0.000 OA
ATOM     13  N   UNL     1      -0.007  10.941  19.385  0.00  0.00    +0.000 N 
ATOM     14  O   UNL     1      -0.360  11.252  20.531  0.00  0.00    +0.000 OA
ENDBRANCH   6  13
ENDBRANCH   3   9
ENDBRANCH   1   3
BRANCH   1  15
ATOM     15  C   UNL     1       5.303   5.104  17.020  0.00  0.00    +0.000 C 
BRANCH  15  16
ATOM     16  P   UNL     1       6.495   5.357  15.654  0.00  0.00    +0.000 P 
ATOM     17  O   UNL     1       5.499   6.237  14.890  0.00  0.00    +0.000 OA
BRANCH  16  18
ATOM     18  O   UNL     1       7.353   6.448  16.540  0.00  0.00    +0.000 OA
ATOM     19  H   UNL     1       7.216   7.346  16.175  0.00  0.00    +0.000 HD
ENDBRANCH  16  18
BRANCH  16  20
ATOM     20  O   UNL     1       7.621   5.596  14.363  0.00  0.00    +0.000 OA
ATOM     21  H   UNL     1       8.428   5.109  14.629  0.00  0.00    +0.000 HD
ENDBRANCH  16  20
ENDBRANCH  15  16
BRANCH  15  22
ATOM     22  P   UNL     1       6.559   4.582  18.325  0.00  0.00    +0.000 P 
ATOM     23  O   UNL     1       7.850   4.093  17.770  0.00  0.00    +0.000 OA
BRANCH  22  24
ATOM     24  O   UNL     1       6.652   5.784  19.381  0.00  0.00    +0.000 OA
ATOM     25  H   UNL     1       6.105   6.583  19.194  0.00  0.00    +0.000 HD
ENDBRANCH  22  24
BRANCH  22  26
ATOM     26  O   UNL     1       5.826   3.483  19.232  0.00  0.00    +0.000 OA
ATOM     27  H   UNL     1       5.822   2.603  18.798  0.00  0.00    +0.000 HD
ENDBRANCH  22  26
ENDBRANCH  15  22
ENDBRANCH   1  15
TORSDOF 10
ENDMDL
