MODEL 1
REMARK VINA RESULT:      -7.2      0.000      0.000
REMARK  Name = 
REMARK  7 active torsions:
REMARK  status: ('A' for Active; 'I' for Inactive)
REMARK    1  A    between atoms: C_1  and  N_2
REMARK    2  A    between atoms: N_2  and  C_3
REMARK    3  A    between atoms: N_2  and  C_4
REMARK    4  A    between atoms: C_4  and  C_5
REMARK    5  A    between atoms: C_5  and  C_6
REMARK    6  A    between atoms: C_6  and  N_7
REMARK    7  A    between atoms: C_8  and  C_10
REMARK                            x       y       z     vdW  Elec       q    Type
REMARK                         _______ _______ _______ _____ _____    ______ ____
ROOT
ATOM      1  N   UNL     1      -1.226  13.098  22.543  0.00  0.00    +0.000 N 
ATOM      2  C   UNL     1      -1.330  11.720  22.724  0.00  0.00    +0.000 C 
ATOM      3  O   UNL     1      -2.072  11.282  23.596  0.00  0.00    +0.000 OA
ATOM      4  C   UNL     1      -0.257  13.683  21.640  0.00  0.00    +0.000 A 
ATOM      5  N   UNL     1       0.860  13.043  21.212  0.00  0.00    +0.000 NA
ATOM      6  C   UNL     1       1.538  13.749  20.282  0.00  0.00    +0.000 A 
ATOM      7  C   UNL     1       2.674  13.286  19.618  0.00  0.00    +0.000 A 
ATOM      8  C   UNL     1       3.278  14.116  18.661  0.00  0.00    +0.000 A 
ATOM      9  C   UNL     1       2.743  15.390  18.383  0.00  0.00    +0.000 A 
ATOM     10  F   UNL     1       3.336  16.184  17.458  0.00  0.00    +0.000 F 
ATOM     11  C   UNL     1       1.590  15.838  19.053  0.00  0.00    +0.000 A 
ATOM     12  C   UNL     1       1.009  14.993  19.992  0.00  0.00    +0.000 A 
ATOM     13  S   UNL     1      -0.372  15.225  20.917  0.00  0.00    +0.000 S 
ENDROOT
BRANCH   2  14
ATOM     14  C   UNL     1      -0.569  10.698  21.906  0.00  0.00    +0.000 A 
ATOM     15  C   UNL     1      -0.663  10.668  20.503  0.00  0.00    +0.000 A 
ATOM     16  C   UNL     1       0.193   9.860  19.758  0.00  0.00    +0.000 A 
ATOM     17  C   UNL     1       0.214   9.918  18.353  0.00  0.00    +0.000 A 
ATOM     18  C   UNL     1       1.157   9.175  17.641  0.00  0.00    +0.000 A 
ATOM     19  C   UNL     1       2.063   8.351  18.321  0.00  0.00    +0.000 A 
ATOM     20  C   UNL     1       2.022   8.263  19.718  0.00  0.00    +0.000 A 
ATOM     21  C   UNL     1       1.088   9.020  20.442  0.00  0.00    +0.000 A 
ATOM     22  O   UNL     1       1.072   8.973  21.771  0.00  0.00    +0.000 OA
ATOM     23  C   UNL     1       0.291   9.758  22.516  0.00  0.00    +0.000 A 
ATOM     24  O   UNL     1       0.381   9.691  23.729  0.00  0.00    +0.000 OA
ENDBRANCH   2  14
BRANCH   1  25
ATOM     25  C   UNL     1      -2.141  14.019  23.241  0.00  0.00    +0.000 C 
BRANCH  25  26
ATOM     26  C   UNL     1      -3.587  14.105  22.698  0.00  0.00    +0.000 C 
BRANCH  26  27
ATOM     27  C   UNL     1      -4.694  13.678  23.690  0.00  0.00    +0.000 C 
BRANCH  27  29
ATOM     28  C   UNL     1      -6.890  12.544  23.868  0.00  0.00    +0.000 C 
ATOM     29  N   UNL     1      -5.607  12.637  23.148  0.00  0.00    +0.000 NA
ATOM     30  C   UNL     1      -5.836  12.763  21.699  0.00  0.00    +0.000 C 
ENDBRANCH  27  29
ENDBRANCH  26  27
ENDBRANCH  25  26
ENDBRANCH   1  25
TORSDOF 5
ENDMDL
MODEL 2
REMARK VINA RESULT:      -7.1      3.199      4.150
REMARK  Name = 
REMARK  7 active torsions:
REMARK  status: ('A' for Active; 'I' for Inactive)
REMARK    1  A    between atoms: C_1  and  N_2
REMARK    2  A    between atoms: N_2  and  C_3
REMARK    3  A    between atoms: N_2  and  C_4
REMARK    4  A    between atoms: C_4  and  C_5
REMARK    5  A    between atoms: C_5  and  C_6
REMARK    6  A    between atoms: C_6  and  N_7
REMARK    7  A    between atoms: C_8  and  C_10
REMARK                            x       y       z     vdW  Elec       q    Type
REMARK                         _______ _______ _______ _____ _____    ______ ____
ROOT
ATOM      1  N   UNL     1      -1.661  12.110  21.023  0.00  0.00    +0.000 N 
ATOM      2  C   UNL     1      -0.607  11.407  21.605  0.00  0.00    +0.000 C 
ATOM      3  O   UNL     1      -0.131  11.802  22.663  0.00  0.00    +0.000 OA
ATOM      4  C   UNL     1      -2.164  11.786  19.705  0.00  0.00    +0.000 A 
ATOM      5  N   UNL     1      -1.460  11.094  18.775  0.00  0.00    +0.000 NA
ATOM      6  C   UNL     1      -2.188  10.813  17.674  0.00  0.00    +0.000 A 
ATOM      7  C   UNL     1      -1.731  10.044  16.604  0.00  0.00    +0.000 A 
ATOM      8  C   UNL     1      -2.597   9.814  15.523  0.00  0.00    +0.000 A 
ATOM      9  C   UNL     1      -3.899  10.356  15.525  0.00  0.00    +0.000 A 
ATOM     10  F   UNL     1      -4.725  10.130  14.474  0.00  0.00    +0.000 F 
ATOM     11  C   UNL     1      -4.349  11.121  16.617  0.00  0.00    +0.000 A 
ATOM     12  C   UNL     1      -3.472  11.327  17.677  0.00  0.00    +0.000 A 
ATOM     13  S   UNL     1      -3.724  12.154  19.116  0.00  0.00    +0.000 S 
ENDROOT
BRANCH   2  14
ATOM     14  C   UNL     1       0.012  10.160  21.008  0.00  0.00    +0.000 A 
ATOM     15  C   UNL     1       0.670  10.194  19.765  0.00  0.00    +0.000 A 
ATOM     16  C   UNL     1       1.405   9.094  19.327  0.00  0.00    +0.000 A 
ATOM     17  C   UNL     1       2.185   9.154  18.159  0.00  0.00    +0.000 A 
ATOM     18  C   UNL     1       2.992   8.072  17.807  0.00  0.00    +0.000 A 
ATOM     19  C   UNL     1       3.006   6.917  18.599  0.00  0.00    +0.000 A 
ATOM     20  C   UNL     1       2.203   6.839  19.744  0.00  0.00    +0.000 A 
ATOM     21  C   UNL     1       1.402   7.929  20.114  0.00  0.00    +0.000 A 
ATOM     22  O   UNL     1       0.670   7.878  21.223  0.00  0.00    +0.000 OA
ATOM     23  C   UNL     1      -0.017   8.924  21.690  0.00  0.00    +0.000 A 
ATOM     24  O   UNL     1      -0.614   8.808  22.744  0.00  0.00    +0.000 OA
ENDBRANCH   2  14
BRANCH   1  25
ATOM     25  C   UNL     1      -2.337  13.194  21.758  0.00  0.00    +0.000 C 
BRANCH  25  26
ATOM     26  C   UNL     1      -3.385  12.769  22.813  0.00  0.00    +0.000 C 
BRANCH  26  27
ATOM     27  C   UNL     1      -4.777  13.427  22.668  0.00  0.00    +0.000 C 
BRANCH  27  29
ATOM     28  C   UNL     1      -6.783  12.692  23.922  0.00  0.00    +0.000 C 
ATOM     29  N   UNL     1      -5.903  12.462  22.762  0.00  0.00    +0.000 NA
ATOM     30  C   UNL     1      -6.695  12.369  21.524  0.00  0.00    +0.000 C 
ENDBRANCH  27  29
ENDBRANCH  26  27
ENDBRANCH  25  26
ENDBRANCH   1  25
TORSDOF 5
ENDMDL
MODEL 3
REMARK VINA RESULT:      -6.9      3.289      5.193
REMARK  Name = 
REMARK  7 active torsions:
REMARK  status: ('A' for Active; 'I' for Inactive)
REMARK    1  A    between atoms: C_1  and  N_2
REMARK    2  A    between atoms: N_2  and  C_3
REMARK    3  A    between atoms: N_2  and  C_4
REMARK    4  A    between atoms: C_4  and  C_5
REMARK    5  A    between atoms: C_5  and  C_6
REMARK    6  A    between atoms: C_6  and  N_7
REMARK    7  A    between atoms: C_8  and  C_10
REMARK                            x       y       z     vdW  Elec       q    Type
REMARK                         _______ _______ _______ _____ _____    ______ ____
ROOT
ATOM      1  N   UNL     1      -1.282  14.033  21.573  0.00  0.00    +0.000 N 
ATOM      2  C   UNL     1      -0.060  13.374  21.704  0.00  0.00    +0.000 C 
ATOM      3  O   UNL     1       0.870  13.937  22.271  0.00  0.00    +0.000 OA
ATOM      4  C   UNL     1      -2.367  13.489  20.785  0.00  0.00    +0.000 A 
ATOM      5  N   UNL     1      -2.202  12.558  19.812  0.00  0.00    +0.000 NA
ATOM      6  C   UNL     1      -3.375  12.121  19.308  0.00  0.00    +0.000 A 
ATOM      7  C   UNL     1      -3.493  11.107  18.357  0.00  0.00    +0.000 A 
ATOM      8  C   UNL     1      -4.777  10.738  17.925  0.00  0.00    +0.000 A 
ATOM      9  C   UNL     1      -5.918  11.384  18.443  0.00  0.00    +0.000 A 
ATOM     10  F   UNL     1      -7.151  11.020  18.016  0.00  0.00    +0.000 F 
ATOM     11  C   UNL     1      -5.783  12.397  19.410  0.00  0.00    +0.000 A 
ATOM     12  C   UNL     1      -4.500  12.738  19.825  0.00  0.00    +0.000 A 
ATOM     13  S   UNL     1      -4.021  13.866  20.972  0.00  0.00    +0.000 S 
ENDROOT
BRANCH   2  14
ATOM     14  C   UNL     1       0.211  11.980  21.179  0.00  0.00    +0.000 A 
ATOM     15  C   UNL     1       0.664  11.769  19.864  0.00  0.00    +0.000 A 
ATOM     16  C   UNL     1       1.099  10.508  19.463  0.00  0.00    +0.000 A 
ATOM     17  C   UNL     1       1.688  10.304  18.203  0.00  0.00    +0.000 A 
ATOM     18  C   UNL     1       2.210   9.052  17.874  0.00  0.00    +0.000 A 
ATOM     19  C   UNL     1       2.125   7.993  18.786  0.00  0.00    +0.000 A 
ATOM     20  C   UNL     1       1.508   8.181  20.029  0.00  0.00    +0.000 A 
ATOM     21  C   UNL     1       0.995   9.442  20.373  0.00  0.00    +0.000 A 
ATOM     22  O   UNL     1       0.446   9.639  21.568  0.00  0.00    +0.000 OA
ATOM     23  C   UNL     1       0.052  10.840  21.998  0.00  0.00    +0.000 A 
ATOM     24  O   UNL     1      -0.388  10.942  23.129  0.00  0.00    +0.000 OA
ENDBRANCH   2  14
BRANCH   1  25
ATOM     25  C   UNL     1      -1.529  15.303  22.279  0.00  0.00    +0.000 C 
BRANCH  25  26
ATOM     26  C   UNL     1      -0.991  16.588  21.606  0.00  0.00    +0.000 C 
BRANCH  26  27
ATOM     27  C   UNL     1      -1.560  16.888  20.200  0.00  0.00    +0.000 C 
BRANCH  27  29
ATOM     28  C   UNL     1      -0.072  15.638  18.662  0.00  0.00    +0.000 C 
ATOM     29  N   UNL     1      -0.518  16.959  19.141  0.00  0.00    +0.000 NA
ATOM     30  C   UNL     1      -0.900  17.817  18.007  0.00  0.00    +0.000 C 
ENDBRANCH  27  29
ENDBRANCH  26  27
ENDBRANCH  25  26
ENDBRANCH   1  25
TORSDOF 5
ENDMDL
MODEL 4
REMARK VINA RESULT:      -6.8      3.641      7.371
REMARK  Name = 
REMARK  7 active torsions:
REMARK  status: ('A' for Active; 'I' for Inactive)
REMARK    1  A    between atoms: C_1  and  N_2
REMARK    2  A    between atoms: N_2  and  C_3
REMARK    3  A    between atoms: N_2  and  C_4
REMARK    4  A    between atoms: C_4  and  C_5
REMARK    5  A    between atoms: C_5  and  C_6
REMARK    6  A    between atoms: C_6  and  N_7
REMARK    7  A    between atoms: C_8  and  C_10
REMARK                            x       y       z     vdW  Elec       q    Type
REMARK                         _______ _______ _______ _____ _____    ______ ____
ROOT
ATOM      1  N   UNL     1       0.682   9.575  20.426  0.00  0.00    +0.000 N 
ATOM      2  C   UNL     1       0.680  10.278  21.630  0.00  0.00    +0.000 C 
ATOM      3  O   UNL     1       1.459   9.954  22.519  0.00  0.00    +0.000 OA
ATOM      4  C   UNL     1      -0.312   9.806  19.400  0.00  0.00    +0.000 A 
ATOM      5  N   UNL     1      -1.517  10.385  19.630  0.00  0.00    +0.000 NA
ATOM      6  C   UNL     1      -2.214  10.602  18.495  0.00  0.00    +0.000 A 
ATOM      7  C   UNL     1      -3.445  11.256  18.442  0.00  0.00    +0.000 A 
ATOM      8  C   UNL     1      -4.060  11.430  17.192  0.00  0.00    +0.000 A 
ATOM      9  C   UNL     1      -3.442  10.948  16.020  0.00  0.00    +0.000 A 
ATOM     10  F   UNL     1      -4.048  11.119  14.820  0.00  0.00    +0.000 F 
ATOM     11  C   UNL     1      -2.196  10.299  16.089  0.00  0.00    +0.000 A 
ATOM     12  C   UNL     1      -1.606  10.147  17.340  0.00  0.00    +0.000 A 
ATOM     13  S   UNL     1      -0.129   9.458  17.739  0.00  0.00    +0.000 S 
ENDROOT
BRANCH   2  14
ATOM     14  C   UNL     1      -0.244  11.441  21.930  0.00  0.00    +0.000 A 
ATOM     15  C   UNL     1      -1.448  11.256  22.634  0.00  0.00    +0.000 A 
ATOM     16  C   UNL     1      -2.180  12.356  23.075  0.00  0.00    +0.000 A 
ATOM     17  C   UNL     1      -3.308  12.198  23.900  0.00  0.00    +0.000 A 
ATOM     18  C   UNL     1      -3.956  13.324  24.412  0.00  0.00    +0.000 A 
ATOM     19  C   UNL     1      -3.502  14.607  24.084  0.00  0.00    +0.000 A 
ATOM     20  C   UNL     1      -2.401  14.769  23.234  0.00  0.00    +0.000 A 
ATOM     21  C   UNL     1      -1.734  13.642  22.729  0.00  0.00    +0.000 A 
ATOM     22  O   UNL     1      -0.662  13.789  21.955  0.00  0.00    +0.000 OA
ATOM     23  C   UNL     1       0.084  12.760  21.544  0.00  0.00    +0.000 A 
ATOM     24  O   UNL     1       1.082  12.987  20.886  0.00  0.00    +0.000 OA
ENDBRANCH   2  14
BRANCH   1  25
ATOM     25  C   UNL     1       1.738   8.587  20.135  0.00  0.00    +0.000 C 
BRANCH  25  26
ATOM     26  C   UNL     1       1.457   7.126  20.557  0.00  0.00    +0.000 C 
BRANCH  26  27
ATOM     27  C   UNL     1       2.286   6.051  19.817  0.00  0.00    +0.000 C 
BRANCH  27  29
ATOM     28  C   UNL     1       0.946   4.063  20.441  0.00  0.00    +0.000 C 
ATOM     29  N   UNL     1       2.264   4.722  20.482  0.00  0.00    +0.000 NA
ATOM     30  C   UNL     1       3.312   3.810  19.995  0.00  0.00    +0.000 C 
ENDBRANCH  27  29
ENDBRANCH  26  27
ENDBRANCH  25  26
ENDBRANCH   1  25
TORSDOF 5
ENDMDL
MODEL 5
REMARK VINA RESULT:      -6.7      1.631      2.803
REMARK  Name = 
REMARK  7 active torsions:
REMARK  status: ('A' for Active; 'I' for Inactive)
REMARK    1  A    between atoms: C_1  and  N_2
REMARK    2  A    between atoms: N_2  and  C_3
REMARK    3  A    between atoms: N_2  and  C_4
REMARK    4  A    between atoms: C_4  and  C_5
REMARK    5  A    between atoms: C_5  and  C_6
REMARK    6  A    between atoms: C_6  and  N_7
REMARK    7  A    between atoms: C_8  and  C_10
REMARK                            x       y       z     vdW  Elec       q    Type
REMARK                         _______ _______ _______ _____ _____    ______ ____
ROOT
ATOM      1  N   UNL     1      -1.349  13.270  22.639  0.00  0.00    +0.000 N 
ATOM      2  C   UNL     1      -1.523  11.892  22.752  0.00  0.00    +0.000 C 
ATOM      3  O   UNL     1      -2.342  11.451  23.551  0.00  0.00    +0.000 OA
ATOM      4  C   UNL     1      -0.296  13.848  21.831  0.00  0.00    +0.000 A 
ATOM      5  N   UNL     1       0.820  13.177  21.452  0.00  0.00    +0.000 NA
ATOM      6  C   UNL     1       1.590  13.889  20.603  0.00  0.00    +0.000 A 
ATOM      7  C   UNL     1       2.750  13.404  19.998  0.00  0.00    +0.000 A 
ATOM      8  C   UNL     1       3.453  14.245  19.121  0.00  0.00    +0.000 A 
ATOM      9  C   UNL     1       2.992  15.552  18.863  0.00  0.00    +0.000 A 
ATOM     10  F   UNL     1       3.681  16.356  18.017  0.00  0.00    +0.000 F 
ATOM     11  C   UNL     1       1.814  16.023  19.472  0.00  0.00    +0.000 A 
ATOM     12  C   UNL     1       1.134  15.166  20.332  0.00  0.00    +0.000 A 
ATOM     13  S   UNL     1      -0.297  15.422  21.170  0.00  0.00    +0.000 S 
ENDROOT
BRANCH   2  14
ATOM     14  C   UNL     1      -0.750  10.871  21.944  0.00  0.00    +0.000 A 
ATOM     15  C   UNL     1      -0.835  10.833  20.540  0.00  0.00    +0.000 A 
ATOM     16  C   UNL     1       0.032  10.028  19.804  0.00  0.00    +0.000 A 
ATOM     17  C   UNL     1       0.061  10.080  18.400  0.00  0.00    +0.000 A 
ATOM     18  C   UNL     1       1.014   9.340  17.697  0.00  0.00    +0.000 A 
ATOM     19  C   UNL     1       1.921   8.526  18.387  0.00  0.00    +0.000 A 
ATOM     20  C   UNL     1       1.873   8.444  19.784  0.00  0.00    +0.000 A 
ATOM     21  C   UNL     1       0.929   9.198  20.498  0.00  0.00    +0.000 A 
ATOM     22  O   UNL     1       0.905   9.157  21.827  0.00  0.00    +0.000 OA
ATOM     23  C   UNL     1       0.113   9.940  22.564  0.00  0.00    +0.000 A 
ATOM     24  O   UNL     1       0.196   9.880  23.777  0.00  0.00    +0.000 OA
ENDBRANCH   2  14
BRANCH   1  25
ATOM     25  C   UNL     1      -2.272  14.201  23.313  0.00  0.00    +0.000 C 
BRANCH  25  26
ATOM     26  C   UNL     1      -1.850  14.705  24.713  0.00  0.00    +0.000 C 
BRANCH  26  27
ATOM     27  C   UNL     1      -1.312  16.154  24.762  0.00  0.00    +0.000 C 
BRANCH  27  29
ATOM     28  C   UNL     1       0.807  17.412  25.020  0.00  0.00    +0.000 C 
ATOM     29  N   UNL     1      -0.020  16.284  25.486  0.00  0.00    +0.000 NA
ATOM     30  C   UNL     1      -0.174  16.327  26.949  0.00  0.00    +0.000 C 
ENDBRANCH  27  29
ENDBRANCH  26  27
ENDBRANCH  25  26
ENDBRANCH   1  25
TORSDOF 5
ENDMDL
MODEL 6
REMARK VINA RESULT:      -6.7      3.138      4.580
REMARK  Name = 
REMARK  7 active torsions:
REMARK  status: ('A' for Active; 'I' for Inactive)
REMARK    1  A    between atoms: C_1  and  N_2
REMARK    2  A    between atoms: N_2  and  C_3
REMARK    3  A    between atoms: N_2  and  C_4
REMARK    4  A    between atoms: C_4  and  C_5
REMARK    5  A    between atoms: C_5  and  C_6
REMARK    6  A    between atoms: C_6  and  N_7
REMARK    7  A    between atoms: C_8  and  C_10
REMARK                            x       y       z     vdW  Elec       q    Type
REMARK                         _______ _______ _______ _____ _____    ______ ____
ROOT
ATOM      1  N   UNL     1      -0.437  13.651  20.922  0.00  0.00    +0.000 N 
ATOM      2  C   UNL     1       0.742  12.917  21.036  0.00  0.00    +0.000 C 
ATOM      3  O   UNL     1       1.747  13.457  21.485  0.00  0.00    +0.000 OA
ATOM      4  C   UNL     1      -1.611  13.121  20.261  0.00  0.00    +0.000 A 
ATOM      5  N   UNL     1      -1.581  12.095  19.375  0.00  0.00    +0.000 NA
ATOM      6  C   UNL     1      -2.815  11.704  18.991  0.00  0.00    +0.000 A 
ATOM      7  C   UNL     1      -3.070  10.619  18.152  0.00  0.00    +0.000 A 
ATOM      8  C   UNL     1      -4.403  10.310  17.841  0.00  0.00    +0.000 A 
ATOM      9  C   UNL     1      -5.457  11.084  18.369  0.00  0.00    +0.000 A 
ATOM     10  F   UNL     1      -6.740  10.777  18.059  0.00  0.00    +0.000 F 
ATOM     11  C   UNL     1      -5.184  12.168  19.222  0.00  0.00    +0.000 A 
ATOM     12  C   UNL     1      -3.854  12.449  19.519  0.00  0.00    +0.000 A 
ATOM     13  S   UNL     1      -3.218  13.637  20.519  0.00  0.00    +0.000 S 
ENDROOT
BRANCH   2  14
ATOM     14  C   UNL     1       0.878  11.464  20.631  0.00  0.00    +0.000 A 
ATOM     15  C   UNL     1       1.293  11.101  19.336  0.00  0.00    +0.000 A 
ATOM     16  C   UNL     1       1.606   9.776  19.043  0.00  0.00    +0.000 A 
ATOM     17  C   UNL     1       2.156   9.413  17.801  0.00  0.00    +0.000 A 
ATOM     18  C   UNL     1       2.558   8.095  17.578  0.00  0.00    +0.000 A 
ATOM     19  C   UNL     1       2.389   7.129  18.578  0.00  0.00    +0.000 A 
ATOM     20  C   UNL     1       1.808   7.479  19.804  0.00  0.00    +0.000 A 
ATOM     21  C   UNL     1       1.417   8.805  20.042  0.00  0.00    +0.000 A 
ATOM     22  O   UNL     1       0.905   9.152  21.219  0.00  0.00    +0.000 OA
ATOM     23  C   UNL     1       0.627  10.417  21.546  0.00  0.00    +0.000 A 
ATOM     24  O   UNL     1       0.214  10.654  22.666  0.00  0.00    +0.000 OA
ENDBRANCH   2  14
BRANCH   1  25
ATOM     25  C   UNL     1      -0.545  14.996  21.517  0.00  0.00    +0.000 C 
BRANCH  25  26
ATOM     26  C   UNL     1      -0.558  15.072  23.062  0.00  0.00    +0.000 C 
BRANCH  26  27
ATOM     27  C   UNL     1      -1.559  14.126  23.765  0.00  0.00    +0.000 C 
BRANCH  27  29
ATOM     28  C   UNL     1      -2.376  15.285  25.797  0.00  0.00    +0.000 C 
ATOM     29  N   UNL     1      -2.684  14.837  24.426  0.00  0.00    +0.000 NA
ATOM     30  C   UNL     1      -3.217  15.953  23.627  0.00  0.00    +0.000 C 
ENDBRANCH  27  29
ENDBRANCH  26  27
ENDBRANCH  25  26
ENDBRANCH   1  25
TORSDOF 5
ENDMDL
MODEL 7
REMARK VINA RESULT:      -6.7      3.221      5.455
REMARK  Name = 
REMARK  7 active torsions:
REMARK  status: ('A' for Active; 'I' for Inactive)
REMARK    1  A    between atoms: C_1  and  N_2
REMARK    2  A    between atoms: N_2  and  C_3
REMARK    3  A    between atoms: N_2  and  C_4
REMARK    4  A    between atoms: C_4  and  C_5
REMARK    5  A    between atoms: C_5  and  C_6
REMARK    6  A    between atoms: C_6  and  N_7
REMARK    7  A    between atoms: C_8  and  C_10
REMARK                            x       y       z     vdW  Elec       q    Type
REMARK                         _______ _______ _______ _____ _____    ______ ____
ROOT
ATOM      1  N   UNL     1      -0.482  13.704  20.935  0.00  0.00    +0.000 N 
ATOM      2  C   UNL     1       0.702  12.978  21.058  0.00  0.00    +0.000 C 
ATOM      3  O   UNL     1       1.700  13.525  21.512  0.00  0.00    +0.000 OA
ATOM      4  C   UNL     1      -1.648  13.166  20.267  0.00  0.00    +0.000 A 
ATOM      5  N   UNL     1      -1.606  12.138  19.383  0.00  0.00    +0.000 NA
ATOM      6  C   UNL     1      -2.834  11.738  18.992  0.00  0.00    +0.000 A 
ATOM      7  C   UNL     1      -3.077  10.650  18.153  0.00  0.00    +0.000 A 
ATOM      8  C   UNL     1      -4.406  10.332  17.835  0.00  0.00    +0.000 A 
ATOM      9  C   UNL     1      -5.468  11.100  18.353  0.00  0.00    +0.000 A 
ATOM     10  F   UNL     1      -6.747  10.784  18.036  0.00  0.00    +0.000 F 
ATOM     11  C   UNL     1      -5.207  12.188  19.207  0.00  0.00    +0.000 A 
ATOM     12  C   UNL     1      -3.881  12.477  19.511  0.00  0.00    +0.000 A 
ATOM     13  S   UNL     1      -3.260  13.671  20.513  0.00  0.00    +0.000 S 
ENDROOT
BRANCH   2  14
ATOM     14  C   UNL     1       0.849  11.525  20.656  0.00  0.00    +0.000 A 
ATOM     15  C   UNL     1       1.278  11.163  19.366  0.00  0.00    +0.000 A 
ATOM     16  C   UNL     1       1.602   9.839  19.079  0.00  0.00    +0.000 A 
ATOM     17  C   UNL     1       2.166   9.477  17.843  0.00  0.00    +0.000 A 
ATOM     18  C   UNL     1       2.577   8.161  17.626  0.00  0.00    +0.000 A 
ATOM     19  C   UNL     1       2.404   7.196  18.626  0.00  0.00    +0.000 A 
ATOM     20  C   UNL     1       1.810   7.544  19.845  0.00  0.00    +0.000 A 
ATOM     21  C   UNL     1       1.409   8.869  20.077  0.00  0.00    +0.000 A 
ATOM     22  O   UNL     1       0.884   9.215  21.248  0.00  0.00    +0.000 OA
ATOM     23  C   UNL     1       0.595  10.479  21.571  0.00  0.00    +0.000 A 
ATOM     24  O   UNL     1       0.170  10.715  22.686  0.00  0.00    +0.000 OA
ENDBRANCH   2  14
BRANCH   1  25
ATOM     25  C   UNL     1      -0.603  15.049  21.527  0.00  0.00    +0.000 C 
BRANCH  25  26
ATOM     26  C   UNL     1      -0.591  16.244  20.544  0.00  0.00    +0.000 C 
BRANCH  26  27
ATOM     27  C   UNL     1       0.780  16.560  19.901  0.00  0.00    +0.000 C 
BRANCH  27  29
ATOM     28  C   UNL     1      -0.269  17.885  18.089  0.00  0.00    +0.000 C 
ATOM     29  N   UNL     1       0.702  16.834  18.442  0.00  0.00    +0.000 NA
ATOM     30  C   UNL     1       2.013  17.118  17.834  0.00  0.00    +0.000 C 
ENDBRANCH  27  29
ENDBRANCH  26  27
ENDBRANCH  25  26
ENDBRANCH   1  25
TORSDOF 5
ENDMDL
MODEL 8
REMARK VINA RESULT:      -6.7      1.507      1.886
REMARK  Name = 
REMARK  7 active torsions:
REMARK  status: ('A' for Active; 'I' for Inactive)
REMARK    1  A    between atoms: C_1  and  N_2
REMARK    2  A    between atoms: N_2  and  C_3
REMARK    3  A    between atoms: N_2  and  C_4
REMARK    4  A    between atoms: C_4  and  C_5
REMARK    5  A    between atoms: C_5  and  C_6
REMARK    6  A    between atoms: C_6  and  N_7
REMARK    7  A    between atoms: C_8  and  C_10
REMARK                            x       y       z     vdW  Elec       q    Type
REMARK                         _______ _______ _______ _____ _____    ______ ____
ROOT
ATOM      1  N   UNL     1      -1.240  13.226  22.575  0.00  0.00    +0.000 N 
ATOM      2  C   UNL     1      -1.382  11.849  22.739  0.00  0.00    +0.000 C 
ATOM      3  O   UNL     1      -2.147  11.421  23.596  0.00  0.00    +0.000 OA
ATOM      4  C   UNL     1      -0.245  13.795  21.691  0.00  0.00    +0.000 A 
ATOM      5  N   UNL     1       0.861  13.131  21.270  0.00  0.00    +0.000 NA
ATOM      6  C   UNL     1       1.569  13.828  20.357  0.00  0.00    +0.000 A 
ATOM      7  C   UNL     1       2.701  13.343  19.702  0.00  0.00    +0.000 A 
ATOM      8  C   UNL     1       3.338  14.167  18.761  0.00  0.00    +0.000 A 
ATOM      9  C   UNL     1       2.840  15.458  18.491  0.00  0.00    +0.000 A 
ATOM     10  F   UNL     1       3.466  16.246  17.582  0.00  0.00    +0.000 F 
ATOM     11  C   UNL     1       1.691  15.929  19.151  0.00  0.00    +0.000 A 
ATOM     12  C   UNL     1       1.076  15.089  20.073  0.00  0.00    +0.000 A 
ATOM     13  S   UNL     1      -0.310  15.347  20.984  0.00  0.00    +0.000 S 
ENDROOT
BRANCH   2  14
ATOM     14  C   UNL     1      -0.638  10.816  21.919  0.00  0.00    +0.000 A 
ATOM     15  C   UNL     1      -0.738  10.785  20.516  0.00  0.00    +0.000 A 
ATOM     16  C   UNL     1       0.105   9.966  19.769  0.00  0.00    +0.000 A 
ATOM     17  C   UNL     1       0.122  10.022  18.364  0.00  0.00    +0.000 A 
ATOM     18  C   UNL     1       1.052   9.266  17.650  0.00  0.00    +0.000 A 
ATOM     19  C   UNL     1       1.950   8.432  18.327  0.00  0.00    +0.000 A 
ATOM     20  C   UNL     1       1.914   8.345  19.725  0.00  0.00    +0.000 A 
ATOM     21  C   UNL     1       0.992   9.115  20.451  0.00  0.00    +0.000 A 
ATOM     22  O   UNL     1       0.981   9.070  21.780  0.00  0.00    +0.000 OA
ATOM     23  C   UNL     1       0.212   9.866  22.528  0.00  0.00    +0.000 A 
ATOM     24  O   UNL     1       0.306   9.799  23.740  0.00  0.00    +0.000 OA
ENDBRANCH   2  14
BRANCH   1  25
ATOM     25  C   UNL     1      -2.140  14.163  23.272  0.00  0.00    +0.000 C 
BRANCH  25  26
ATOM     26  C   UNL     1      -1.612  14.785  24.586  0.00  0.00    +0.000 C 
BRANCH  26  27
ATOM     27  C   UNL     1      -2.606  15.707  25.329  0.00  0.00    +0.000 C 
BRANCH  27  29
ATOM     28  C   UNL     1      -4.824  16.507  24.567  0.00  0.00    +0.000 C 
ATOM     29  N   UNL     1      -3.360  16.617  24.428  0.00  0.00    +0.000 NA
ATOM     30  C   UNL     1      -2.936  18.023  24.533  0.00  0.00    +0.000 C 
ENDBRANCH  27  29
ENDBRANCH  26  27
ENDBRANCH  25  26
ENDBRANCH   1  25
TORSDOF 5
ENDMDL
MODEL 9
REMARK VINA RESULT:      -6.6      3.273      5.734
REMARK  Name = 
REMARK  7 active torsions:
REMARK  status: ('A' for Active; 'I' for Inactive)
REMARK    1  A    between atoms: C_1  and  N_2
REMARK    2  A    between atoms: N_2  and  C_3
REMARK    3  A    between atoms: N_2  and  C_4
REMARK    4  A    between atoms: C_4  and  C_5
REMARK    5  A    between atoms: C_5  and  C_6
REMARK    6  A    between atoms: C_6  and  N_7
REMARK    7  A    between atoms: C_8  and  C_10
REMARK                            x       y       z     vdW  Elec       q    Type
REMARK                         _______ _______ _______ _____ _____    ______ ____
ROOT
ATOM      1  N   UNL     1       0.169  13.120  20.528  0.00  0.00    +0.000 N 
ATOM      2  C   UNL     1       1.265  12.292  20.766  0.00  0.00    +0.000 C 
ATOM      3  O   UNL     1       2.307  12.779  21.190  0.00  0.00    +0.000 OA
ATOM      4  C   UNL     1      -1.034  12.636  19.886  0.00  0.00    +0.000 A 
ATOM      5  N   UNL     1      -1.085  11.518  19.118  0.00  0.00    +0.000 NA
ATOM      6  C   UNL     1      -2.341  11.208  18.735  0.00  0.00    +0.000 A 
ATOM      7  C   UNL     1      -2.682  10.066  18.010  0.00  0.00    +0.000 A 
ATOM      8  C   UNL     1      -4.031   9.854  17.686  0.00  0.00    +0.000 A 
ATOM      9  C   UNL     1      -5.015  10.783  18.085  0.00  0.00    +0.000 A 
ATOM     10  F   UNL     1      -6.314  10.568  17.763  0.00  0.00    +0.000 F 
ATOM     11  C   UNL     1      -4.656  11.924  18.824  0.00  0.00    +0.000 A 
ATOM     12  C   UNL     1      -3.313  12.105  19.138  0.00  0.00    +0.000 A 
ATOM     13  S   UNL     1      -2.587  13.331  20.025  0.00  0.00    +0.000 S 
ENDROOT
BRANCH   2  14
ATOM     14  C   UNL     1       1.265  10.797  20.527  0.00  0.00    +0.000 A 
ATOM     15  C   UNL     1       1.655  10.253  19.290  0.00  0.00    +0.000 A 
ATOM     16  C   UNL     1       1.842   8.879  19.153  0.00  0.00    +0.000 A 
ATOM     17  C   UNL     1       2.367   8.328  17.971  0.00  0.00    +0.000 A 
ATOM     18  C   UNL     1       2.642   6.961  17.904  0.00  0.00    +0.000 A 
ATOM     19  C   UNL     1       2.371   6.135  19.001  0.00  0.00    +0.000 A 
ATOM     20  C   UNL     1       1.815   6.674  20.168  0.00  0.00    +0.000 A 
ATOM     21  C   UNL     1       1.551   8.050  20.249  0.00  0.00    +0.000 A 
ATOM     22  O   UNL     1       1.063   8.574  21.369  0.00  0.00    +0.000 OA
ATOM     23  C   UNL     1       0.905   9.888  21.548  0.00  0.00    +0.000 A 
ATOM     24  O   UNL     1       0.505  10.288  22.626  0.00  0.00    +0.000 OA
ENDBRANCH   2  14
BRANCH   1  25
ATOM     25  C   UNL     1       0.182  14.527  20.967  0.00  0.00    +0.000 C 
BRANCH  25  26
ATOM     26  C   UNL     1       0.594  15.580  19.912  0.00  0.00    +0.000 C 
BRANCH  26  27
ATOM     27  C   UNL     1       1.971  16.245  20.142  0.00  0.00    +0.000 C 
BRANCH  27  29
ATOM     28  C   UNL     1       2.593  14.779  18.243  0.00  0.00    +0.000 C 
ATOM     29  N   UNL     1       3.068  15.625  19.353  0.00  0.00    +0.000 NA
ATOM     30  C   UNL     1       4.060  16.601  18.870  0.00  0.00    +0.000 C 
ENDBRANCH  27  29
ENDBRANCH  26  27
ENDBRANCH  25  26
ENDBRANCH   1  25
TORSDOF 5
ENDMDL
