MODEL 1
REMARK VINA RESULT:      -7.8      0.000      0.000
REMARK  Name = 
REMARK  5 active torsions:
REMARK  status: ('A' for Active; 'I' for Inactive)
REMARK    1  A    between atoms: C_1  and  N_2
REMARK    2  A    between atoms: N_2  and  C_3
REMARK    3  A    between atoms: N_2  and  C_4
REMARK    4  A    between atoms: C_7  and  C_8
REMARK    5  A    between atoms: C_13  and  N_14
REMARK                            x       y       z     vdW  Elec       q    Type
REMARK                         _______ _______ _______ _____ _____    ______ ____
ROOT
ATOM      1  C   UNL     1       1.135   9.250  19.521  0.00  0.00    +0.000 C 
ATOM      2  C   UNL     1       1.864   9.081  18.378  0.00  0.00    +0.000 C 
ATOM      3  O   UNL     1       1.993   9.749  17.315  0.00  0.00    +0.000 OA
ATOM      4  C   UNL     1       2.567   7.808  18.544  0.00  0.00    +0.000 A 
ATOM      5  C   UNL     1       3.408   7.220  17.617  0.00  0.00    +0.000 A 
ATOM      6  C   UNL     1       3.887   5.942  17.862  0.00  0.00    +0.000 A 
ATOM      7  C   UNL     1       3.584   5.285  19.076  0.00  0.00    +0.000 A 
ATOM      8  C   UNL     1       2.776   5.924  20.037  0.00  0.00    +0.000 A 
ATOM      9  C   UNL     1       2.278   7.182  19.731  0.00  0.00    +0.000 A 
ATOM     10  C   UNL     1       1.398   8.094  20.448  0.00  0.00    +0.000 C 
ATOM     11  O   UNL     1       0.995   7.899  21.579  0.00  0.00    +0.000 OA
ENDROOT
BRANCH   1  15
ATOM     12  C   UNL     1      -1.587  12.522  20.475  0.00  0.00    +0.000 A 
ATOM     13  C   UNL     1      -0.385  12.326  21.164  0.00  0.00    +0.000 A 
ATOM     14  C   UNL     1       0.493  11.277  20.844  0.00  0.00    +0.000 A 
ATOM     15  C   UNL     1       0.219  10.374  19.811  0.00  0.00    +0.000 A 
ATOM     16  C   UNL     1      -0.948  10.587  19.079  0.00  0.00    +0.000 A 
ATOM     17  C   UNL     1      -1.827  11.638  19.407  0.00  0.00    +0.000 A 
BRANCH  12  19
ATOM     18  C   UNL     1      -2.077  14.572  21.760  0.00  0.00    +0.000 C 
ATOM     19  N   UNL     1      -2.485  13.548  20.804  0.00  0.00    +0.000 N 
ATOM     20  C   UNL     1      -3.910  13.233  20.761  0.00  0.00    +0.000 C 
ENDBRANCH  12  19
ENDBRANCH   1  15
BRANCH   6  21
ATOM     21  N   UNL     1       4.673   5.309  16.817  0.00  0.00    +0.000 N 
ATOM     22  C   UNL     1       4.904   3.976  16.823  0.00  0.00    +0.000 A 
ATOM     23  C   UNL     1       5.711   3.383  15.853  0.00  0.00    +0.000 A 
ATOM     24  C   UNL     1       6.290   4.167  14.865  0.00  0.00    +0.000 A 
ATOM     25  C   UNL     1       6.042   5.528  14.856  0.00  0.00    +0.000 A 
ATOM     26  C   UNL     1       5.221   6.077  15.833  0.00  0.00    +0.000 A 
ENDBRANCH   6  21
TORSDOF 3
ENDMDL
MODEL 2
REMARK VINA RESULT:      -7.8      0.228      1.166
REMARK  Name = 
REMARK  5 active torsions:
REMARK  status: ('A' for Active; 'I' for Inactive)
REMARK    1  A    between atoms: C_1  and  N_2
REMARK    2  A    between atoms: N_2  and  C_3
REMARK    3  A    between atoms: N_2  and  C_4
REMARK    4  A    between atoms: C_7  and  C_8
REMARK    5  A    between atoms: C_13  and  N_14
REMARK                            x       y       z     vdW  Elec       q    Type
REMARK                         _______ _______ _______ _____ _____    ______ ____
ROOT
ATOM      1  C   UNL     1       1.102   9.273  19.537  0.00  0.00    +0.000 C 
ATOM      2  C   UNL     1       1.852   9.120  18.406  0.00  0.00    +0.000 C 
ATOM      3  O   UNL     1       2.002   9.804  17.355  0.00  0.00    +0.000 OA
ATOM      4  C   UNL     1       2.553   7.845  18.566  0.00  0.00    +0.000 A 
ATOM      5  C   UNL     1       3.411   7.270  17.646  0.00  0.00    +0.000 A 
ATOM      6  C   UNL     1       3.886   5.989  17.882  0.00  0.00    +0.000 A 
ATOM      7  C   UNL     1       3.561   5.315  19.081  0.00  0.00    +0.000 A 
ATOM      8  C   UNL     1       2.734   5.939  20.035  0.00  0.00    +0.000 A 
ATOM      9  C   UNL     1       2.241   7.202  19.739  0.00  0.00    +0.000 A 
ATOM     10  C   UNL     1       1.348   8.103  20.451  0.00  0.00    +0.000 C 
ATOM     11  O   UNL     1       0.923   7.891  21.571  0.00  0.00    +0.000 OA
ENDROOT
BRANCH   1  15
ATOM     12  C   UNL     1      -1.638  12.531  20.487  0.00  0.00    +0.000 A 
ATOM     13  C   UNL     1      -0.442  12.333  21.187  0.00  0.00    +0.000 A 
ATOM     14  C   UNL     1       0.442  11.289  20.868  0.00  0.00    +0.000 A 
ATOM     15  C   UNL     1       0.180  10.392  19.826  0.00  0.00    +0.000 A 
ATOM     16  C   UNL     1      -0.979  10.607  19.084  0.00  0.00    +0.000 A 
ATOM     17  C   UNL     1      -1.864  11.654  19.411  0.00  0.00    +0.000 A 
BRANCH  12  19
ATOM     18  C   UNL     1      -3.965  13.351  20.560  0.00  0.00    +0.000 C 
ATOM     19  N   UNL     1      -2.541  13.552  20.814  0.00  0.00    +0.000 N 
ATOM     20  C   UNL     1      -2.058  14.927  20.739  0.00  0.00    +0.000 C 
ENDBRANCH  12  19
ENDBRANCH   1  15
BRANCH   6  21
ATOM     21  N   UNL     1       4.692   5.371  16.843  0.00  0.00    +0.000 N 
ATOM     22  C   UNL     1       5.217   6.104  15.834  0.00  0.00    +0.000 A 
ATOM     23  C   UNL     1       5.937   5.497  14.806  0.00  0.00    +0.000 A 
ATOM     24  C   UNL     1       6.120   4.121  14.812  0.00  0.00    +0.000 A 
ATOM     25  C   UNL     1       5.592   3.377  15.852  0.00  0.00    +0.000 A 
ATOM     26  C   UNL     1       4.892   4.023  16.864  0.00  0.00    +0.000 A 
ENDBRANCH   6  21
TORSDOF 3
ENDMDL
MODEL 3
REMARK VINA RESULT:      -7.8      1.724      3.113
REMARK  Name = 
REMARK  5 active torsions:
REMARK  status: ('A' for Active; 'I' for Inactive)
REMARK    1  A    between atoms: C_1  and  N_2
REMARK    2  A    between atoms: N_2  and  C_3
REMARK    3  A    between atoms: N_2  and  C_4
REMARK    4  A    between atoms: C_7  and  C_8
REMARK    5  A    between atoms: C_13  and  N_14
REMARK                            x       y       z     vdW  Elec       q    Type
REMARK                         _______ _______ _______ _____ _____    ______ ____
ROOT
ATOM      1  C   UNL     1       2.640   7.148  18.904  0.00  0.00    +0.000 C 
ATOM      2  C   UNL     1       3.324   7.426  17.755  0.00  0.00    +0.000 C 
ATOM      3  O   UNL     1       3.452   8.458  17.040  0.00  0.00    +0.000 OA
ATOM      4  C   UNL     1       3.972   6.172  17.368  0.00  0.00    +0.000 A 
ATOM      5  C   UNL     1       4.754   5.976  16.245  0.00  0.00    +0.000 A 
ATOM      6  C   UNL     1       5.180   4.692  15.939  0.00  0.00    +0.000 A 
ATOM      7  C   UNL     1       4.885   3.616  16.806  0.00  0.00    +0.000 A 
ATOM      8  C   UNL     1       4.138   3.843  17.979  0.00  0.00    +0.000 A 
ATOM      9  C   UNL     1       3.691   5.134  18.222  0.00  0.00    +0.000 A 
ATOM     10  C   UNL     1       2.878   5.711  19.283  0.00  0.00    +0.000 C 
ATOM     11  O   UNL     1       2.501   5.094  20.261  0.00  0.00    +0.000 OA
ENDROOT
BRANCH   1  15
ATOM     12  C   UNL     1       0.200  10.007  21.118  0.00  0.00    +0.000 A 
ATOM     13  C   UNL     1       0.451  10.143  19.748  0.00  0.00    +0.000 A 
ATOM     14  C   UNL     1       1.227   9.212  19.038  0.00  0.00    +0.000 A 
ATOM     15  C   UNL     1       1.788   8.091  19.661  0.00  0.00    +0.000 A 
ATOM     16  C   UNL     1       1.504   7.911  21.012  0.00  0.00    +0.000 A 
ATOM     17  C   UNL     1       0.728   8.850  21.720  0.00  0.00    +0.000 A 
BRANCH  12  19
ATOM     18  C   UNL     1      -1.064  10.579  23.160  0.00  0.00    +0.000 C 
ATOM     19  N   UNL     1      -0.550  10.944  21.843  0.00  0.00    +0.000 N 
ATOM     20  C   UNL     1      -1.344  11.904  21.081  0.00  0.00    +0.000 C 
ENDBRANCH  12  19
ENDBRANCH   1  15
BRANCH   6  21
ATOM     21  N   UNL     1       5.902   4.504  14.693  0.00  0.00    +0.000 N 
ATOM     22  C   UNL     1       7.066   5.150  14.453  0.00  0.00    +0.000 A 
ATOM     23  C   UNL     1       7.723   5.014  13.230  0.00  0.00    +0.000 A 
ATOM     24  C   UNL     1       7.178   4.207  12.241  0.00  0.00    +0.000 A 
ATOM     25  C   UNL     1       5.994   3.539  12.496  0.00  0.00    +0.000 A 
ATOM     26  C   UNL     1       5.378   3.691  13.733  0.00  0.00    +0.000 A 
ENDBRANCH   6  21
TORSDOF 3
ENDMDL
MODEL 4
REMARK VINA RESULT:      -7.8      0.252      1.339
REMARK  Name = 
REMARK  5 active torsions:
REMARK  status: ('A' for Active; 'I' for Inactive)
REMARK    1  A    between atoms: C_1  and  N_2
REMARK    2  A    between atoms: N_2  and  C_3
REMARK    3  A    between atoms: N_2  and  C_4
REMARK    4  A    between atoms: C_7  and  C_8
REMARK    5  A    between atoms: C_13  and  N_14
REMARK                            x       y       z     vdW  Elec       q    Type
REMARK                         _______ _______ _______ _____ _____    ______ ____
ROOT
ATOM      1  C   UNL     1       1.091   9.238  19.541  0.00  0.00    +0.000 C 
ATOM      2  C   UNL     1       1.854   9.095  18.417  0.00  0.00    +0.000 C 
ATOM      3  O   UNL     1       2.013   9.786  17.373  0.00  0.00    +0.000 OA
ATOM      4  C   UNL     1       2.554   7.819  18.575  0.00  0.00    +0.000 A 
ATOM      5  C   UNL     1       3.422   7.251  17.660  0.00  0.00    +0.000 A 
ATOM      6  C   UNL     1       3.895   5.968  17.891  0.00  0.00    +0.000 A 
ATOM      7  C   UNL     1       3.558   5.285  19.081  0.00  0.00    +0.000 A 
ATOM      8  C   UNL     1       2.720   5.902  20.031  0.00  0.00    +0.000 A 
ATOM      9  C   UNL     1       2.230   7.166  19.740  0.00  0.00    +0.000 A 
ATOM     10  C   UNL     1       1.329   8.062  20.450  0.00  0.00    +0.000 C 
ATOM     11  O   UNL     1       0.893   7.841  21.564  0.00  0.00    +0.000 OA
ENDROOT
BRANCH   1  15
ATOM     12  C   UNL     1      -1.619  12.572  20.293  0.00  0.00    +0.000 A 
ATOM     13  C   UNL     1      -1.888  11.594  19.328  0.00  0.00    +0.000 A 
ATOM     14  C   UNL     1      -1.017  10.516  19.100  0.00  0.00    +0.000 A 
ATOM     15  C   UNL     1       0.166  10.355  19.830  0.00  0.00    +0.000 A 
ATOM     16  C   UNL     1       0.423  11.289  20.831  0.00  0.00    +0.000 A 
ATOM     17  C   UNL     1      -0.452  12.370  21.053  0.00  0.00    +0.000 A 
BRANCH  12  19
ATOM     18  C   UNL     1      -1.881  14.979  20.775  0.00  0.00    +0.000 C 
ATOM     19  N   UNL     1      -2.466  13.667  20.511  0.00  0.00    +0.000 N 
ATOM     20  C   UNL     1      -3.764  13.402  21.126  0.00  0.00    +0.000 C 
ENDBRANCH  12  19
ENDBRANCH   1  15
BRANCH   6  21
ATOM     21  N   UNL     1       4.712   5.359  16.856  0.00  0.00    +0.000 N 
ATOM     22  C   UNL     1       5.194   6.088  15.823  0.00  0.00    +0.000 A 
ATOM     23  C   UNL     1       5.926   5.486  14.799  0.00  0.00    +0.000 A 
ATOM     24  C   UNL     1       6.164   4.119  14.835  0.00  0.00    +0.000 A 
ATOM     25  C   UNL     1       5.679   3.379  15.899  0.00  0.00    +0.000 A 
ATOM     26  C   UNL     1       4.967   4.021  16.906  0.00  0.00    +0.000 A 
ENDBRANCH   6  21
TORSDOF 3
ENDMDL
MODEL 5
REMARK VINA RESULT:      -7.7      0.294      1.176
REMARK  Name = 
REMARK  5 active torsions:
REMARK  status: ('A' for Active; 'I' for Inactive)
REMARK    1  A    between atoms: C_1  and  N_2
REMARK    2  A    between atoms: N_2  and  C_3
REMARK    3  A    between atoms: N_2  and  C_4
REMARK    4  A    between atoms: C_7  and  C_8
REMARK    5  A    between atoms: C_13  and  N_14
REMARK                            x       y       z     vdW  Elec       q    Type
REMARK                         _______ _______ _______ _____ _____    ______ ____
ROOT
ATOM      1  C   UNL     1       1.157   9.188  19.622  0.00  0.00    +0.000 C 
ATOM      2  C   UNL     1       1.872   9.045  18.467  0.00  0.00    +0.000 C 
ATOM      3  O   UNL     1       1.994   9.741  17.421  0.00  0.00    +0.000 OA
ATOM      4  C   UNL     1       2.567   7.763  18.589  0.00  0.00    +0.000 A 
ATOM      5  C   UNL     1       3.392   7.194  17.636  0.00  0.00    +0.000 A 
ATOM      6  C   UNL     1       3.864   5.906  17.840  0.00  0.00    +0.000 A 
ATOM      7  C   UNL     1       3.571   5.219  19.039  0.00  0.00    +0.000 A 
ATOM      8  C   UNL     1       2.779   5.836  20.026  0.00  0.00    +0.000 A 
ATOM      9  C   UNL     1       2.287   7.106  19.762  0.00  0.00    +0.000 A 
ATOM     10  C   UNL     1       1.423   8.005  20.514  0.00  0.00    +0.000 C 
ATOM     11  O   UNL     1       1.031   7.781  21.643  0.00  0.00    +0.000 OA
ENDROOT
BRANCH   1  15
ATOM     12  C   UNL     1      -1.488  12.542  20.506  0.00  0.00    +0.000 A 
ATOM     13  C   UNL     1      -1.770  11.614  19.496  0.00  0.00    +0.000 A 
ATOM     14  C   UNL     1      -0.920  10.529  19.224  0.00  0.00    +0.000 A 
ATOM     15  C   UNL     1       0.254  10.310  19.954  0.00  0.00    +0.000 A 
ATOM     16  C   UNL     1       0.522  11.192  20.998  0.00  0.00    +0.000 A 
ATOM     17  C   UNL     1      -0.331  12.281  21.264  0.00  0.00    +0.000 A 
BRANCH  12  19
ATOM     18  C   UNL     1      -3.757  13.508  20.602  0.00  0.00    +0.000 C 
ATOM     19  N   UNL     1      -2.313  13.644  20.767  0.00  0.00    +0.000 N 
ATOM     20  C   UNL     1      -1.757  14.973  20.526  0.00  0.00    +0.000 C 
ENDBRANCH  12  19
ENDBRANCH   1  15
BRANCH   6  21
ATOM     21  N   UNL     1       4.633   5.296  16.769  0.00  0.00    +0.000 N 
ATOM     22  C   UNL     1       4.808   3.956  16.706  0.00  0.00    +0.000 A 
ATOM     23  C   UNL     1       5.599   3.381  15.711  0.00  0.00    +0.000 A 
ATOM     24  C   UNL     1       6.219   4.192  14.771  0.00  0.00    +0.000 A 
ATOM     25  C   UNL     1       6.029   5.561  14.832  0.00  0.00    +0.000 A 
ATOM     26  C   UNL     1       5.222   6.092  15.831  0.00  0.00    +0.000 A 
ENDBRANCH   6  21
TORSDOF 3
ENDMDL
MODEL 6
REMARK VINA RESULT:      -7.6      2.144      3.707
REMARK  Name = 
REMARK  5 active torsions:
REMARK  status: ('A' for Active; 'I' for Inactive)
REMARK    1  A    between atoms: C_1  and  N_2
REMARK    2  A    between atoms: N_2  and  C_3
REMARK    3  A    between atoms: N_2  and  C_4
REMARK    4  A    between atoms: C_7  and  C_8
REMARK    5  A    between atoms: C_13  and  N_14
REMARK                            x       y       z     vdW  Elec       q    Type
REMARK                         _______ _______ _______ _____ _____    ______ ____
ROOT
ATOM      1  C   UNL     1       0.100  10.827  21.034  0.00  0.00    +0.000 C 
ATOM      2  C   UNL     1       0.605   9.646  21.500  0.00  0.00    +0.000 C 
ATOM      3  O   UNL     1       0.697   9.125  22.646  0.00  0.00    +0.000 OA
ATOM      4  C   UNL     1       1.146   8.958  20.327  0.00  0.00    +0.000 A 
ATOM      5  C   UNL     1       1.782   7.730  20.330  0.00  0.00    +0.000 A 
ATOM      6  C   UNL     1       2.367   7.275  19.158  0.00  0.00    +0.000 A 
ATOM      7  C   UNL     1       2.245   8.019  17.962  0.00  0.00    +0.000 A 
ATOM      8  C   UNL     1       1.542   9.239  17.964  0.00  0.00    +0.000 A 
ATOM      9  C   UNL     1       1.013   9.681  19.168  0.00  0.00    +0.000 A 
ATOM     10  C   UNL     1       0.284  10.884  19.541  0.00  0.00    +0.000 C 
ATOM     11  O   UNL     1      -0.079  11.731  18.747  0.00  0.00    +0.000 OA
ENDROOT
BRANCH   1  15
ATOM     12  C   UNL     1      -1.634  13.976  23.504  0.00  0.00    +0.000 A 
ATOM     13  C   UNL     1      -0.521  14.198  22.684  0.00  0.00    +0.000 A 
ATOM     14  C   UNL     1       0.025  13.182  21.882  0.00  0.00    +0.000 A 
ATOM     15  C   UNL     1      -0.518  11.893  21.851  0.00  0.00    +0.000 A 
ATOM     16  C   UNL     1      -1.658  11.669  22.619  0.00  0.00    +0.000 A 
ATOM     17  C   UNL     1      -2.200  12.690  23.425  0.00  0.00    +0.000 A 
BRANCH  12  19
ATOM     18  C   UNL     1      -1.387  15.457  25.464  0.00  0.00    +0.000 C 
ATOM     19  N   UNL     1      -2.171  14.973  24.330  0.00  0.00    +0.000 N 
ATOM     20  C   UNL     1      -3.622  15.010  24.484  0.00  0.00    +0.000 C 
ENDBRANCH  12  19
ENDBRANCH   1  15
BRANCH   6  21
ATOM     21  N   UNL     1       3.124   6.037  19.223  0.00  0.00    +0.000 N 
ATOM     22  C   UNL     1       4.253   5.866  18.497  0.00  0.00    +0.000 A 
ATOM     23  C   UNL     1       4.941   4.653  18.515  0.00  0.00    +0.000 A 
ATOM     24  C   UNL     1       4.465   3.602  19.286  0.00  0.00    +0.000 A 
ATOM     25  C   UNL     1       3.317   3.785  20.037  0.00  0.00    +0.000 A 
ATOM     26  C   UNL     1       2.669   5.014  20.001  0.00  0.00    +0.000 A 
ENDBRANCH   6  21
TORSDOF 3
ENDMDL
MODEL 7
REMARK VINA RESULT:      -7.6      2.084      3.583
REMARK  Name = 
REMARK  5 active torsions:
REMARK  status: ('A' for Active; 'I' for Inactive)
REMARK    1  A    between atoms: C_1  and  N_2
REMARK    2  A    between atoms: N_2  and  C_3
REMARK    3  A    between atoms: N_2  and  C_4
REMARK    4  A    between atoms: C_7  and  C_8
REMARK    5  A    between atoms: C_13  and  N_14
REMARK                            x       y       z     vdW  Elec       q    Type
REMARK                         _______ _______ _______ _____ _____    ______ ____
ROOT
ATOM      1  C   UNL     1       0.142  10.797  21.019  0.00  0.00    +0.000 C 
ATOM      2  C   UNL     1       0.654   9.605  21.448  0.00  0.00    +0.000 C 
ATOM      3  O   UNL     1       0.760   9.054  22.578  0.00  0.00    +0.000 OA
ATOM      4  C   UNL     1       1.183   8.950  20.251  0.00  0.00    +0.000 A 
ATOM      5  C   UNL     1       1.821   7.723  20.213  0.00  0.00    +0.000 A 
ATOM      6  C   UNL     1       2.394   7.301  19.022  0.00  0.00    +0.000 A 
ATOM      7  C   UNL     1       2.257   8.077  17.849  0.00  0.00    +0.000 A 
ATOM      8  C   UNL     1       1.551   9.296  17.891  0.00  0.00    +0.000 A 
ATOM      9  C   UNL     1       1.035   9.704  19.112  0.00  0.00    +0.000 A 
ATOM     10  C   UNL     1       0.309  10.895  19.526  0.00  0.00    +0.000 C 
ATOM     11  O   UNL     1      -0.065  11.762  18.759  0.00  0.00    +0.000 OA
ENDROOT
BRANCH   1  15
ATOM     12  C   UNL     1      -1.751  13.865  23.475  0.00  0.00    +0.000 A 
ATOM     13  C   UNL     1      -2.192  12.536  23.468  0.00  0.00    +0.000 A 
ATOM     14  C   UNL     1      -1.571  11.551  22.684  0.00  0.00    +0.000 A 
ATOM     15  C   UNL     1      -0.469  11.840  21.871  0.00  0.00    +0.000 A 
ATOM     16  C   UNL     1       0.017  13.145  21.907  0.00  0.00    +0.000 A 
ATOM     17  C   UNL     1      -0.612  14.130  22.692  0.00  0.00    +0.000 A 
BRANCH  12  19
ATOM     18  C   UNL     1      -1.762  15.311  25.475  0.00  0.00    +0.000 C 
ATOM     19  N   UNL     1      -2.380  14.863  24.231  0.00  0.00    +0.000 N 
ATOM     20  C   UNL     1      -3.837  14.934  24.170  0.00  0.00    +0.000 C 
ENDBRANCH  12  19
ENDBRANCH   1  15
BRANCH   6  21
ATOM     21  N   UNL     1       3.153   6.064  19.045  0.00  0.00    +0.000 N 
ATOM     22  C   UNL     1       2.786   5.030  19.837  0.00  0.00    +0.000 A 
ATOM     23  C   UNL     1       3.554   3.868  19.902  0.00  0.00    +0.000 A 
ATOM     24  C   UNL     1       4.714   3.766  19.147  0.00  0.00    +0.000 A 
ATOM     25  C   UNL     1       5.080   4.820  18.330  0.00  0.00    +0.000 A 
ATOM     26  C   UNL     1       4.279   5.955  18.284  0.00  0.00    +0.000 A 
ENDBRANCH   6  21
TORSDOF 3
ENDMDL
MODEL 8
REMARK VINA RESULT:      -7.5      1.270      9.012
REMARK  Name = 
REMARK  5 active torsions:
REMARK  status: ('A' for Active; 'I' for Inactive)
REMARK    1  A    between atoms: C_1  and  N_2
REMARK    2  A    between atoms: N_2  and  C_3
REMARK    3  A    between atoms: N_2  and  C_4
REMARK    4  A    between atoms: C_7  and  C_8
REMARK    5  A    between atoms: C_13  and  N_14
REMARK                            x       y       z     vdW  Elec       q    Type
REMARK                         _______ _______ _______ _____ _____    ______ ____
ROOT
ATOM      1  C   UNL     1       2.270   7.691  18.837  0.00  0.00    +0.000 C 
ATOM      2  C   UNL     1       1.745   8.900  18.479  0.00  0.00    +0.000 C 
ATOM      3  O   UNL     1       1.840   9.625  17.450  0.00  0.00    +0.000 OA
ATOM      4  C   UNL     1       0.960   9.346  19.630  0.00  0.00    +0.000 A 
ATOM      5  C   UNL     1       0.267  10.539  19.725  0.00  0.00    +0.000 A 
ATOM      6  C   UNL     1      -0.313  10.883  20.937  0.00  0.00    +0.000 A 
ATOM      7  C   UNL     1      -0.263   9.991  22.033  0.00  0.00    +0.000 A 
ATOM      8  C   UNL     1       0.395   8.753  21.900  0.00  0.00    +0.000 A 
ATOM      9  C   UNL     1       1.003   8.469  20.686  0.00  0.00    +0.000 A 
ATOM     10  C   UNL     1       1.788   7.336  20.218  0.00  0.00    +0.000 C 
ATOM     11  O   UNL     1       1.975   6.326  20.870  0.00  0.00    +0.000 OA
ENDROOT
BRANCH   1  15
ATOM     12  C   UNL     1       4.973   5.178  16.512  0.00  0.00    +0.000 A 
ATOM     13  C   UNL     1       3.830   4.666  17.139  0.00  0.00    +0.000 A 
ATOM     14  C   UNL     1       2.957   5.483  17.876  0.00  0.00    +0.000 A 
ATOM     15  C   UNL     1       3.176   6.857  18.019  0.00  0.00    +0.000 A 
ATOM     16  C   UNL     1       4.279   7.393  17.357  0.00  0.00    +0.000 A 
ATOM     17  C   UNL     1       5.154   6.569  16.622  0.00  0.00    +0.000 A 
BRANCH  12  19
ATOM     18  C   UNL     1       7.267   4.318  16.209  0.00  0.00    +0.000 C 
ATOM     19  N   UNL     1       5.867   4.368  15.798  0.00  0.00    +0.000 N 
ATOM     20  C   UNL     1       5.602   4.167  14.376  0.00  0.00    +0.000 C 
ENDBRANCH  12  19
ENDBRANCH   1  15
BRANCH   6  21
ATOM     21  N   UNL     1      -0.934  12.193  21.036  0.00  0.00    +0.000 N 
ATOM     22  C   UNL     1      -1.887  12.449  21.962  0.00  0.00    +0.000 A 
ATOM     23  C   UNL     1      -2.524  13.689  22.011  0.00  0.00    +0.000 A 
ATOM     24  C   UNL     1      -2.182  14.676  21.098  0.00  0.00    +0.000 A 
ATOM     25  C   UNL     1      -1.199  14.414  20.160  0.00  0.00    +0.000 A 
ATOM     26  C   UNL     1      -0.579  13.170  20.154  0.00  0.00    +0.000 A 
ENDBRANCH   6  21
TORSDOF 3
ENDMDL
MODEL 9
REMARK VINA RESULT:      -7.4      1.328      8.972
REMARK  Name = 
REMARK  5 active torsions:
REMARK  status: ('A' for Active; 'I' for Inactive)
REMARK    1  A    between atoms: C_1  and  N_2
REMARK    2  A    between atoms: N_2  and  C_3
REMARK    3  A    between atoms: N_2  and  C_4
REMARK    4  A    between atoms: C_7  and  C_8
REMARK    5  A    between atoms: C_13  and  N_14
REMARK                            x       y       z     vdW  Elec       q    Type
REMARK                         _______ _______ _______ _____ _____    ______ ____
ROOT
ATOM      1  C   UNL     1       2.553   7.338  18.701  0.00  0.00    +0.000 C 
ATOM      2  C   UNL     1       1.998   8.556  18.431  0.00  0.00    +0.000 C 
ATOM      3  O   UNL     1       2.058   9.348  17.450  0.00  0.00    +0.000 OA
ATOM      4  C   UNL     1       1.226   8.911  19.623  0.00  0.00    +0.000 A 
ATOM      5  C   UNL     1       0.510  10.079  19.808  0.00  0.00    +0.000 A 
ATOM      6  C   UNL     1      -0.053  10.332  21.050  0.00  0.00    +0.000 A 
ATOM      7  C   UNL     1       0.036   9.373  22.084  0.00  0.00    +0.000 A 
ATOM      8  C   UNL     1       0.717   8.160  21.859  0.00  0.00    +0.000 A 
ATOM      9  C   UNL     1       1.307   7.968  20.618  0.00  0.00    +0.000 A 
ATOM     10  C   UNL     1       2.106   6.885  20.064  0.00  0.00    +0.000 C 
ATOM     11  O   UNL     1       2.327   5.839  20.645  0.00  0.00    +0.000 OA
ENDROOT
BRANCH   1  15
ATOM     12  C   UNL     1       5.192   5.154  16.000  0.00  0.00    +0.000 A 
ATOM     13  C   UNL     1       5.327   6.529  16.226  0.00  0.00    +0.000 A 
ATOM     14  C   UNL     1       4.481   7.224  17.106  0.00  0.00    +0.000 A 
ATOM     15  C   UNL     1       3.461   6.579  17.814  0.00  0.00    +0.000 A 
ATOM     16  C   UNL     1       3.347   5.201  17.642  0.00  0.00    +0.000 A 
ATOM     17  C   UNL     1       4.195   4.510  16.755  0.00  0.00    +0.000 A 
BRANCH  12  19
ATOM     18  C   UNL     1       7.435   4.771  15.042  0.00  0.00    +0.000 C 
ATOM     19  N   UNL     1       6.011   4.455  15.102  0.00  0.00    +0.000 N 
ATOM     20  C   UNL     1       5.400   3.983  13.863  0.00  0.00    +0.000 C 
ENDBRANCH  12  19
ENDBRANCH   1  15
BRANCH   6  21
ATOM     21  N   UNL     1      -0.699  11.618  21.244  0.00  0.00    +0.000 N 
ATOM     22  C   UNL     1      -0.824  12.161  22.477  0.00  0.00    +0.000 A 
ATOM     23  C   UNL     1      -1.500  13.366  22.666  0.00  0.00    +0.000 A 
ATOM     24  C   UNL     1      -2.055  14.022  21.576  0.00  0.00    +0.000 A 
ATOM     25  C   UNL     1      -1.914  13.470  20.315  0.00  0.00    +0.000 A 
ATOM     26  C   UNL     1      -1.221  12.274  20.169  0.00  0.00    +0.000 A 
ENDBRANCH   6  21
TORSDOF 3
ENDMDL
