MODEL 1
REMARK VINA RESULT:      -9.3      0.000      0.000
REMARK  Name = 
REMARK  10 active torsions:
REMARK  status: ('A' for Active; 'I' for Inactive)
REMARK    1  A    between atoms: C_1  and  C_2
REMARK    2  A    between atoms: C_4  and  C_5
REMARK    3  A    between atoms: C_6  and  C_7
REMARK    4  A    between atoms: C_7  and  N_8
REMARK    5  A    between atoms: N_8  and  C_9
REMARK    6  A    between atoms: C_11  and  C_12
REMARK    7  A    between atoms: N_19  and  C_20
REMARK    8  A    between atoms: N_30  and  C_31
REMARK    9  A    between atoms: C_31  and  C_32
REMARK   10  A    between atoms: C_31  and  C_33
REMARK                            x       y       z     vdW  Elec       q    Type
REMARK                         _______ _______ _______ _____ _____    ______ ____
ROOT
ATOM      1  C   UNL     1       3.528   6.609  18.051  0.00  0.00    +0.000 A 
ATOM      2  N   UNL     1       2.933   7.672  18.625  0.00  0.00    +0.000 NA
ATOM      3  C   UNL     1       2.195   7.444  19.736  0.00  0.00    +0.000 A 
ATOM      4  N   UNL     1       2.171   6.277  20.459  0.00  0.00    +0.000 NA
ATOM      5  C   UNL     1       2.637   5.235  19.709  0.00  0.00    +0.000 A 
ATOM      6  C   UNL     1       2.880   5.383  18.338  0.00  0.00    +0.000 A 
ATOM      7  N   UNL     1       1.722   4.797  17.766  0.00  0.00    +0.000 NA
ATOM      8  C   UNL     1       1.201   4.053  18.736  0.00  0.00    +0.000 A 
ATOM      9  N   UNL     1       2.201   3.895  19.703  0.00  0.00    +0.000 N 
ENDROOT
BRANCH   3  10
ATOM     10  C   UNL     1       1.266   8.529  20.080  0.00  0.00    +0.000 A 
ATOM     11  C   UNL     1       0.974   9.602  19.250  0.00  0.00    +0.000 A 
ATOM     12  C   UNL     1       0.090  10.610  19.668  0.00  0.00    +0.000 A 
ATOM     13  C   UNL     1      -0.481  10.570  20.942  0.00  0.00    +0.000 A 
ATOM     14  N   UNL     1      -1.350  11.525  21.408  0.00  0.00    +0.000 N 
ATOM     15  C   UNL     1      -1.325  11.835  22.846  0.00  0.00    +0.000 C 
ATOM     16  C   UNL     1      -2.754  12.128  23.350  0.00  0.00    +0.000 C 
ATOM     17  N   UNL     1      -3.416  13.202  22.571  0.00  0.00    +0.000 NA
ATOM     18  C   UNL     1      -4.769  13.430  23.073  0.00  0.00    +0.000 C 
ATOM     19  C   UNL     1      -3.440  12.805  21.144  0.00  0.00    +0.000 C 
ATOM     20  C   UNL     1      -2.024  12.522  20.575  0.00  0.00    +0.000 C 
ATOM     21  N   UNL     1      -0.205   9.534  21.755  0.00  0.00    +0.000 NA
ATOM     22  C   UNL     1       0.627   8.554  21.321  0.00  0.00    +0.000 A 
ENDBRANCH   3  10
BRANCH   9  23
ATOM     23  C   UNL     1       3.091   2.729  19.420  0.00  0.00    +0.000 C 
ATOM     24  C   UNL     1       4.023   2.305  20.555  0.00  0.00    +0.000 C 
ATOM     25  C   UNL     1       2.331   1.532  18.845  0.00  0.00    +0.000 C 
ENDBRANCH   9  23
BRANCH   1  26
ATOM     26  N   UNL     1       4.911   6.690  17.733  0.00  0.00    +0.000 N 
ATOM     27  H   UNL     1       4.964   7.051  16.780  0.00  0.00    +0.000 HD
BRANCH  26  28
ATOM     28  C   UNL     1       5.593   5.386  17.779  0.00  0.00    +0.000 C 
BRANCH  28  34
ATOM     29  C   UNL     1       7.328   4.272  12.305  0.00  0.00    +0.000 C 
ATOM     30  C   UNL     1       6.879   4.505  13.715  0.00  0.00    +0.000 A 
ATOM     31  C   UNL     1       5.906   3.761  14.291  0.00  0.00    +0.000 A 
ATOM     32  C   UNL     1       5.492   4.011  15.659  0.00  0.00    +0.000 A 
ATOM     33  C   UNL     1       4.362   3.171  16.177  0.00  0.00    +0.000 C 
ATOM     34  C   UNL     1       6.080   4.985  16.406  0.00  0.00    +0.000 A 
ATOM     35  C   UNL     1       7.153   5.810  15.760  0.00  0.00    +0.000 A 
ATOM     36  O   UNL     1       7.716   6.728  16.354  0.00  0.00    +0.000 OA
ATOM     37  N   UNL     1       7.475   5.501  14.451  0.00  0.00    +0.000 N 
ATOM     38  H   UNL     1       8.192   6.070  14.035  0.00  0.00    +0.000 HD
ENDBRANCH  28  34
ENDBRANCH  26  28
ENDBRANCH   1  26
TORSDOF 5
ENDMDL
MODEL 2
REMARK VINA RESULT:      -9.0      0.782      1.317
REMARK  Name = 
REMARK  10 active torsions:
REMARK  status: ('A' for Active; 'I' for Inactive)
REMARK    1  A    between atoms: C_1  and  C_2
REMARK    2  A    between atoms: C_4  and  C_5
REMARK    3  A    between atoms: C_6  and  C_7
REMARK    4  A    between atoms: C_7  and  N_8
REMARK    5  A    between atoms: N_8  and  C_9
REMARK    6  A    between atoms: C_11  and  C_12
REMARK    7  A    between atoms: N_19  and  C_20
REMARK    8  A    between atoms: N_30  and  C_31
REMARK    9  A    between atoms: C_31  and  C_32
REMARK   10  A    between atoms: C_31  and  C_33
REMARK                            x       y       z     vdW  Elec       q    Type
REMARK                         _______ _______ _______ _____ _____    ______ ____
ROOT
ATOM      1  C   UNL     1       3.282   6.667  18.112  0.00  0.00    +0.000 A 
ATOM      2  N   UNL     1       2.744   7.693  18.798  0.00  0.00    +0.000 NA
ATOM      3  C   UNL     1       2.163   7.407  19.986  0.00  0.00    +0.000 A 
ATOM      4  N   UNL     1       2.260   6.215  20.662  0.00  0.00    +0.000 NA
ATOM      5  C   UNL     1       2.648   5.213  19.820  0.00  0.00    +0.000 A 
ATOM      6  C   UNL     1       2.705   5.414  18.434  0.00  0.00    +0.000 A 
ATOM      7  N   UNL     1       1.496   4.816  17.997  0.00  0.00    +0.000 NA
ATOM      8  C   UNL     1       1.124   4.026  18.998  0.00  0.00    +0.000 A 
ATOM      9  N   UNL     1       2.245   3.863  19.820  0.00  0.00    +0.000 N 
ENDROOT
BRANCH   3  10
ATOM     10  C   UNL     1       1.262   8.454  20.489  0.00  0.00    +0.000 A 
ATOM     11  C   UNL     1       0.572   8.382  21.690  0.00  0.00    +0.000 A 
ATOM     12  C   UNL     1      -0.288   9.419  22.085  0.00  0.00    +0.000 A 
ATOM     13  C   UNL     1      -0.493  10.525  21.257  0.00  0.00    +0.000 A 
ATOM     14  N   UNL     1      -1.320  11.570  21.586  0.00  0.00    +0.000 N 
ATOM     15  C   UNL     1      -2.033  12.253  20.495  0.00  0.00    +0.000 C 
ATOM     16  C   UNL     1      -2.130  13.765  20.791  0.00  0.00    +0.000 C 
ATOM     17  N   UNL     1      -2.753  14.041  22.107  0.00  0.00    +0.000 NA
ATOM     18  C   UNL     1      -2.807  15.481  22.349  0.00  0.00    +0.000 C 
ATOM     19  C   UNL     1      -1.964  13.356  23.157  0.00  0.00    +0.000 C 
ATOM     20  C   UNL     1      -1.854  11.826  22.924  0.00  0.00    +0.000 C 
ATOM     21  N   UNL     1       0.172  10.606  20.089  0.00  0.00    +0.000 NA
ATOM     22  C   UNL     1       1.022   9.608  19.741  0.00  0.00    +0.000 A 
ENDBRANCH   3  10
BRANCH   9  23
ATOM     23  C   UNL     1       3.117   2.732  19.380  0.00  0.00    +0.000 C 
ATOM     24  C   UNL     1       4.211   2.307  20.360  0.00  0.00    +0.000 C 
ATOM     25  C   UNL     1       2.316   1.527  18.881  0.00  0.00    +0.000 C 
ENDBRANCH   9  23
BRANCH   1  26
ATOM     26  N   UNL     1       4.610   6.797  17.620  0.00  0.00    +0.000 N 
ATOM     27  H   UNL     1       4.525   7.011  16.626  0.00  0.00    +0.000 HD
BRANCH  26  28
ATOM     28  C   UNL     1       5.405   5.568  17.770  0.00  0.00    +0.000 C 
BRANCH  28  34
ATOM     29  C   UNL     1       7.347   4.223  12.418  0.00  0.00    +0.000 C 
ATOM     30  C   UNL     1       6.843   4.515  13.798  0.00  0.00    +0.000 A 
ATOM     31  C   UNL     1       5.817   3.825  14.349  0.00  0.00    +0.000 A 
ATOM     32  C   UNL     1       5.350   4.132  15.689  0.00  0.00    +0.000 A 
ATOM     33  C   UNL     1       4.167   3.350  16.176  0.00  0.00    +0.000 C 
ATOM     34  C   UNL     1       5.939   5.107  16.433  0.00  0.00    +0.000 A 
ATOM     35  C   UNL     1       7.071   5.872  15.815  0.00  0.00    +0.000 A 
ATOM     36  O   UNL     1       7.640   6.787  16.408  0.00  0.00    +0.000 OA
ATOM     37  N   UNL     1       7.441   5.511  14.532  0.00  0.00    +0.000 N 
ATOM     38  H   UNL     1       8.198   6.041  14.134  0.00  0.00    +0.000 HD
ENDBRANCH  28  34
ENDBRANCH  26  28
ENDBRANCH   1  26
TORSDOF 5
ENDMDL
MODEL 3
REMARK VINA RESULT:      -8.5      3.506     10.980
REMARK  Name = 
REMARK  10 active torsions:
REMARK  status: ('A' for Active; 'I' for Inactive)
REMARK    1  A    between atoms: C_1  and  C_2
REMARK    2  A    between atoms: C_4  and  C_5
REMARK    3  A    between atoms: C_6  and  C_7
REMARK    4  A    between atoms: C_7  and  N_8
REMARK    5  A    between atoms: N_8  and  C_9
REMARK    6  A    between atoms: C_11  and  C_12
REMARK    7  A    between atoms: N_19  and  C_20
REMARK    8  A    between atoms: N_30  and  C_31
REMARK    9  A    between atoms: C_31  and  C_32
REMARK   10  A    between atoms: C_31  and  C_33
REMARK                            x       y       z     vdW  Elec       q    Type
REMARK                         _______ _______ _______ _____ _____    ______ ____
ROOT
ATOM      1  C   UNL     1      -0.473  12.435  18.858  0.00  0.00    +0.000 A 
ATOM      2  N   UNL     1      -0.275  11.131  19.134  0.00  0.00    +0.000 NA
ATOM      3  C   UNL     1       0.599  10.833  20.122  0.00  0.00    +0.000 A 
ATOM      4  N   UNL     1       1.138  11.727  21.016  0.00  0.00    +0.000 NA
ATOM      5  C   UNL     1       1.033  13.004  20.544  0.00  0.00    +0.000 A 
ATOM      6  C   UNL     1       0.619  13.257  19.230  0.00  0.00    +0.000 A 
ATOM      7  N   UNL     1       1.850  13.507  18.572  0.00  0.00    +0.000 NA
ATOM      8  C   UNL     1       2.708  13.785  19.548  0.00  0.00    +0.000 A 
ATOM      9  N   UNL     1       1.944  14.069  20.687  0.00  0.00    +0.000 N 
ENDROOT
BRANCH   3  10
ATOM     10  C   UNL     1       1.073   9.442  20.113  0.00  0.00    +0.000 A 
ATOM     11  C   UNL     1       0.960   8.571  21.186  0.00  0.00    +0.000 A 
ATOM     12  C   UNL     1       1.462   7.261  21.101  0.00  0.00    +0.000 A 
ATOM     13  C   UNL     1       2.117   6.827  19.947  0.00  0.00    +0.000 A 
ATOM     14  N   UNL     1       2.630   5.561  19.803  0.00  0.00    +0.000 N 
ATOM     15  C   UNL     1       3.846   5.399  18.991  0.00  0.00    +0.000 C 
ATOM     16  C   UNL     1       3.783   4.075  18.200  0.00  0.00    +0.000 C 
ATOM     17  N   UNL     1       3.555   2.905  19.081  0.00  0.00    +0.000 NA
ATOM     18  C   UNL     1       3.485   1.681  18.287  0.00  0.00    +0.000 C 
ATOM     19  C   UNL     1       2.299   3.119  19.837  0.00  0.00    +0.000 C 
ATOM     20  C   UNL     1       2.315   4.427  20.673  0.00  0.00    +0.000 C 
ATOM     21  N   UNL     1       2.232   7.664  18.899  0.00  0.00    +0.000 NA
ATOM     22  C   UNL     1       1.714   8.914  18.991  0.00  0.00    +0.000 A 
ENDBRANCH   3  10
BRANCH   9  23
ATOM     23  C   UNL     1       1.543  15.506  20.761  0.00  0.00    +0.000 C 
ATOM     24  C   UNL     1       0.703  15.906  21.975  0.00  0.00    +0.000 C 
ATOM     25  C   UNL     1       2.722  16.460  20.561  0.00  0.00    +0.000 C 
ENDBRANCH   9  23
BRANCH   1  26
ATOM     26  N   UNL     1      -1.807  12.921  18.776  0.00  0.00    +0.000 N 
ATOM     27  H   UNL     1      -1.983  13.417  19.650  0.00  0.00    +0.000 HD
BRANCH  26  28
ATOM     28  C   UNL     1      -2.805  11.849  18.634  0.00  0.00    +0.000 C 
BRANCH  28  34
ATOM     29  C   UNL     1      -7.427  12.575  22.145  0.00  0.00    +0.000 C 
ATOM     30  C   UNL     1      -6.270  12.417  21.208  0.00  0.00    +0.000 A 
ATOM     31  C   UNL     1      -6.443  12.179  19.887  0.00  0.00    +0.000 A 
ATOM     32  C   UNL     1      -5.301  12.029  19.004  0.00  0.00    +0.000 A 
ATOM     33  C   UNL     1      -5.605  11.704  17.571  0.00  0.00    +0.000 C 
ATOM     34  C   UNL     1      -4.028  12.139  19.474  0.00  0.00    +0.000 A 
ATOM     35  C   UNL     1      -3.843  12.396  20.939  0.00  0.00    +0.000 A 
ATOM     36  O   UNL     1      -2.728  12.482  21.450  0.00  0.00    +0.000 OA
ATOM     37  N   UNL     1      -4.991  12.519  21.701  0.00  0.00    +0.000 N 
ATOM     38  H   UNL     1      -4.844  12.684  22.683  0.00  0.00    +0.000 HD
ENDBRANCH  28  34
ENDBRANCH  26  28
ENDBRANCH   1  26
TORSDOF 5
ENDMDL
MODEL 4
REMARK VINA RESULT:      -8.4      3.668     11.008
REMARK  Name = 
REMARK  10 active torsions:
REMARK  status: ('A' for Active; 'I' for Inactive)
REMARK    1  A    between atoms: C_1  and  C_2
REMARK    2  A    between atoms: C_4  and  C_5
REMARK    3  A    between atoms: C_6  and  C_7
REMARK    4  A    between atoms: C_7  and  N_8
REMARK    5  A    between atoms: N_8  and  C_9
REMARK    6  A    between atoms: C_11  and  C_12
REMARK    7  A    between atoms: N_19  and  C_20
REMARK    8  A    between atoms: N_30  and  C_31
REMARK    9  A    between atoms: C_31  and  C_32
REMARK   10  A    between atoms: C_31  and  C_33
REMARK                            x       y       z     vdW  Elec       q    Type
REMARK                         _______ _______ _______ _____ _____    ______ ____
ROOT
ATOM      1  C   UNL     1      -0.663  12.550  19.069  0.00  0.00    +0.000 A 
ATOM      2  N   UNL     1      -0.436  11.263  19.394  0.00  0.00    +0.000 NA
ATOM      3  C   UNL     1       0.629  11.003  20.188  0.00  0.00    +0.000 A 
ATOM      4  N   UNL     1       1.369  11.937  20.872  0.00  0.00    +0.000 NA
ATOM      5  C   UNL     1       1.188  13.181  20.338  0.00  0.00    +0.000 A 
ATOM      6  C   UNL     1       0.500  13.357  19.130  0.00  0.00    +0.000 A 
ATOM      7  N   UNL     1       1.561  13.515  18.203  0.00  0.00    +0.000 NA
ATOM      8  C   UNL     1       2.618  13.829  18.944  0.00  0.00    +0.000 A 
ATOM      9  N   UNL     1       2.130  14.220  20.197  0.00  0.00    +0.000 N 
ENDROOT
BRANCH   3  10
ATOM     10  C   UNL     1       1.061   9.599  20.182  0.00  0.00    +0.000 A 
ATOM     11  C   UNL     1       0.908   8.729  21.251  0.00  0.00    +0.000 A 
ATOM     12  C   UNL     1       1.372   7.405  21.169  0.00  0.00    +0.000 A 
ATOM     13  C   UNL     1       2.030   6.954  20.023  0.00  0.00    +0.000 A 
ATOM     14  N   UNL     1       2.506   5.674  19.883  0.00  0.00    +0.000 N 
ATOM     15  C   UNL     1       3.728   5.478  19.087  0.00  0.00    +0.000 C 
ATOM     16  C   UNL     1       3.636   4.158  18.292  0.00  0.00    +0.000 C 
ATOM     17  N   UNL     1       3.361   2.993  19.166  0.00  0.00    +0.000 NA
ATOM     18  C   UNL     1       3.266   1.773  18.369  0.00  0.00    +0.000 C 
ATOM     19  C   UNL     1       2.102   3.243  19.906  0.00  0.00    +0.000 C 
ATOM     20  C   UNL     1       2.146   4.547  20.745  0.00  0.00    +0.000 C 
ATOM     21  N   UNL     1       2.183   7.789  18.979  0.00  0.00    +0.000 NA
ATOM     22  C   UNL     1       1.701   9.054  19.067  0.00  0.00    +0.000 A 
ENDBRANCH   3  10
BRANCH   9  23
ATOM     23  C   UNL     1       1.783  15.672  20.248  0.00  0.00    +0.000 C 
ATOM     24  C   UNL     1       1.057  16.145  21.507  0.00  0.00    +0.000 C 
ATOM     25  C   UNL     1       2.973  16.576  19.918  0.00  0.00    +0.000 C 
ENDBRANCH   9  23
BRANCH   1  26
ATOM     26  N   UNL     1      -1.972  13.077  19.244  0.00  0.00    +0.000 N 
ATOM     27  H   UNL     1      -1.859  14.083  19.375  0.00  0.00    +0.000 HD
BRANCH  26  28
ATOM     28  C   UNL     1      -2.667  12.525  20.418  0.00  0.00    +0.000 C 
BRANCH  28  34
ATOM     29  C   UNL     1      -1.308  16.029  24.900  0.00  0.00    +0.000 C 
ATOM     30  C   UNL     1      -1.672  15.095  23.788  0.00  0.00    +0.000 A 
ATOM     31  C   UNL     1      -1.449  13.763  23.867  0.00  0.00    +0.000 A 
ATOM     32  C   UNL     1      -1.812  12.882  22.772  0.00  0.00    +0.000 A 
ATOM     33  C   UNL     1      -1.462  11.433  22.938  0.00  0.00    +0.000 C 
ATOM     34  C   UNL     1      -2.401  13.367  21.644  0.00  0.00    +0.000 A 
ATOM     35  C   UNL     1      -2.640  14.845  21.560  0.00  0.00    +0.000 A 
ATOM     36  O   UNL     1      -3.141  15.369  20.567  0.00  0.00    +0.000 OA
ATOM     37  N   UNL     1      -2.255  15.603  22.652  0.00  0.00    +0.000 N 
ATOM     38  H   UNL     1      -2.418  16.593  22.572  0.00  0.00    +0.000 HD
ENDBRANCH  28  34
ENDBRANCH  26  28
ENDBRANCH   1  26
TORSDOF 5
ENDMDL
MODEL 5
REMARK VINA RESULT:      -8.2      5.344      8.549
REMARK  Name = 
REMARK  10 active torsions:
REMARK  status: ('A' for Active; 'I' for Inactive)
REMARK    1  A    between atoms: C_1  and  C_2
REMARK    2  A    between atoms: C_4  and  C_5
REMARK    3  A    between atoms: C_6  and  C_7
REMARK    4  A    between atoms: C_7  and  N_8
REMARK    5  A    between atoms: N_8  and  C_9
REMARK    6  A    between atoms: C_11  and  C_12
REMARK    7  A    between atoms: N_19  and  C_20
REMARK    8  A    between atoms: N_30  and  C_31
REMARK    9  A    between atoms: C_31  and  C_32
REMARK   10  A    between atoms: C_31  and  C_33
REMARK                            x       y       z     vdW  Elec       q    Type
REMARK                         _______ _______ _______ _____ _____    ______ ____
ROOT
ATOM      1  C   UNL     1       7.164   5.095  17.986  0.00  0.00    +0.000 A 
ATOM      2  N   UNL     1       7.520   6.316  18.428  0.00  0.00    +0.000 NA
ATOM      3  C   UNL     1       7.169   7.377  17.665  0.00  0.00    +0.000 A 
ATOM      4  N   UNL     1       6.299   7.351  16.602  0.00  0.00    +0.000 NA
ATOM      5  C   UNL     1       6.153   6.078  16.130  0.00  0.00    +0.000 A 
ATOM      6  C   UNL     1       6.977   5.040  16.583  0.00  0.00    +0.000 A 
ATOM      7  N   UNL     1       7.922   4.929  15.531  0.00  0.00    +0.000 NA
ATOM      8  C   UNL     1       7.351   5.533  14.495  0.00  0.00    +0.000 A 
ATOM      9  N   UNL     1       5.989   5.651  14.797  0.00  0.00    +0.000 N 
ENDROOT
BRANCH   3  10
ATOM     10  C   UNL     1       7.907   8.612  17.967  0.00  0.00    +0.000 A 
ATOM     11  C   UNL     1       8.898   8.714  18.932  0.00  0.00    +0.000 A 
ATOM     12  C   UNL     1       9.539   9.941  19.173  0.00  0.00    +0.000 A 
ATOM     13  C   UNL     1       9.161  11.088  18.472  0.00  0.00    +0.000 A 
ATOM     14  N   UNL     1       9.747  12.315  18.662  0.00  0.00    +0.000 N 
ATOM     15  C   UNL     1       8.907  13.512  18.499  0.00  0.00    +0.000 C 
ATOM     16  C   UNL     1       9.728  14.651  17.859  0.00  0.00    +0.000 C 
ATOM     17  N   UNL     1      10.963  14.952  18.621  0.00  0.00    +0.000 NA
ATOM     18  C   UNL     1      11.713  16.022  17.968  0.00  0.00    +0.000 C 
ATOM     19  C   UNL     1      11.774  13.715  18.713  0.00  0.00    +0.000 C 
ATOM     20  C   UNL     1      11.007  12.539  19.373  0.00  0.00    +0.000 C 
ATOM     21  N   UNL     1       8.201  11.000  17.533  0.00  0.00    +0.000 NA
ATOM     22  C   UNL     1       7.616   9.799  17.294  0.00  0.00    +0.000 A 
ENDBRANCH   3  10
BRANCH   9  23
ATOM     23  C   UNL     1       5.208   4.441  14.399  0.00  0.00    +0.000 C 
ATOM     24  C   UNL     1       5.847   3.550  13.334  0.00  0.00    +0.000 C 
ATOM     25  C   UNL     1       4.734   3.622  15.601  0.00  0.00    +0.000 C 
ENDBRANCH   9  23
BRANCH   1  26
ATOM     26  N   UNL     1       6.505   4.210  18.883  0.00  0.00    +0.000 N 
ATOM     27  H   UNL     1       6.051   3.504  18.304  0.00  0.00    +0.000 HD
BRANCH  26  28
ATOM     28  C   UNL     1       5.481   4.875  19.704  0.00  0.00    +0.000 C 
BRANCH  28  34
ATOM     29  C   UNL     1       0.456   2.100  18.579  0.00  0.00    +0.000 C 
ATOM     30  C   UNL     1       1.714   2.853  18.881  0.00  0.00    +0.000 A 
ATOM     31  C   UNL     1       1.856   4.165  18.578  0.00  0.00    +0.000 A 
ATOM     32  C   UNL     1       3.088   4.868  18.883  0.00  0.00    +0.000 A 
ATOM     33  C   UNL     1       3.162   6.302  18.447  0.00  0.00    +0.000 C 
ATOM     34  C   UNL     1       4.127   4.236  19.496  0.00  0.00    +0.000 A 
ATOM     35  C   UNL     1       3.966   2.782  19.822  0.00  0.00    +0.000 A 
ATOM     36  O   UNL     1       4.865   2.129  20.350  0.00  0.00    +0.000 OA
ATOM     37  N   UNL     1       2.758   2.197  19.488  0.00  0.00    +0.000 N 
ATOM     38  H   UNL     1       2.673   1.219  19.710  0.00  0.00    +0.000 HD
ENDBRANCH  28  34
ENDBRANCH  26  28
ENDBRANCH   1  26
TORSDOF 5
ENDMDL
MODEL 6
REMARK VINA RESULT:      -8.2      3.726     11.225
REMARK  Name = 
REMARK  10 active torsions:
REMARK  status: ('A' for Active; 'I' for Inactive)
REMARK    1  A    between atoms: C_1  and  C_2
REMARK    2  A    between atoms: C_4  and  C_5
REMARK    3  A    between atoms: C_6  and  C_7
REMARK    4  A    between atoms: C_7  and  N_8
REMARK    5  A    between atoms: N_8  and  C_9
REMARK    6  A    between atoms: C_11  and  C_12
REMARK    7  A    between atoms: N_19  and  C_20
REMARK    8  A    between atoms: N_30  and  C_31
REMARK    9  A    between atoms: C_31  and  C_32
REMARK   10  A    between atoms: C_31  and  C_33
REMARK                            x       y       z     vdW  Elec       q    Type
REMARK                         _______ _______ _______ _____ _____    ______ ____
ROOT
ATOM      1  C   UNL     1      -0.721  12.882  19.248  0.00  0.00    +0.000 A 
ATOM      2  N   UNL     1      -0.427  11.568  19.293  0.00  0.00    +0.000 NA
ATOM      3  C   UNL     1       0.577  11.186  20.116  0.00  0.00    +0.000 A 
ATOM      4  N   UNL     1       1.177  11.972  21.071  0.00  0.00    +0.000 NA
ATOM      5  C   UNL     1       0.952  13.294  20.818  0.00  0.00    +0.000 A 
ATOM      6  C   UNL     1       0.366  13.712  19.616  0.00  0.00    +0.000 A 
ATOM      7  N   UNL     1       1.493  14.139  18.868  0.00  0.00    +0.000 NA
ATOM      8  C   UNL     1       2.450  14.326  19.771  0.00  0.00    +0.000 A 
ATOM      9  N   UNL     1       1.820  14.386  21.019  0.00  0.00    +0.000 N 
ENDROOT
BRANCH   3  10
ATOM     10  C   UNL     1       1.114   9.847  19.837  0.00  0.00    +0.000 A 
ATOM     11  C   UNL     1       1.647   9.457  18.618  0.00  0.00    +0.000 A 
ATOM     12  C   UNL     1       2.119   8.148  18.428  0.00  0.00    +0.000 A 
ATOM     13  C   UNL     1       2.023   7.205  19.453  0.00  0.00    +0.000 A 
ATOM     14  N   UNL     1       2.465   5.910  19.330  0.00  0.00    +0.000 N 
ATOM     15  C   UNL     1       1.732   4.861  20.056  0.00  0.00    +0.000 C 
ATOM     16  C   UNL     1       2.716   3.790  20.573  0.00  0.00    +0.000 C 
ATOM     17  N   UNL     1       3.549   3.221  19.487  0.00  0.00    +0.000 NA
ATOM     18  C   UNL     1       4.473   2.227  20.026  0.00  0.00    +0.000 C 
ATOM     19  C   UNL     1       4.284   4.326  18.827  0.00  0.00    +0.000 C 
ATOM     20  C   UNL     1       3.342   5.423  18.264  0.00  0.00    +0.000 C 
ATOM     21  N   UNL     1       1.508   7.572  20.641  0.00  0.00    +0.000 NA
ATOM     22  C   UNL     1       1.086   8.850  20.813  0.00  0.00    +0.000 A 
ENDBRANCH   3  10
BRANCH   9  23
ATOM     23  C   UNL     1       1.360  15.765  21.363  0.00  0.00    +0.000 C 
ATOM     24  C   UNL     1       0.484  15.891  22.609  0.00  0.00    +0.000 C 
ATOM     25  C   UNL     1       2.504  16.782  21.380  0.00  0.00    +0.000 C 
ENDBRANCH   9  23
BRANCH   1  26
ATOM     26  N   UNL     1      -2.077  13.283  19.396  0.00  0.00    +0.000 N 
ATOM     27  H   UNL     1      -2.055  14.266  19.669  0.00  0.00    +0.000 HD
BRANCH  26  28
ATOM     28  C   UNL     1      -2.796  12.524  20.433  0.00  0.00    +0.000 C 
BRANCH  28  34
ATOM     29  C   UNL     1      -2.807  15.909  25.203  0.00  0.00    +0.000 C 
ATOM     30  C   UNL     1      -2.816  15.000  24.013  0.00  0.00    +0.000 A 
ATOM     31  C   UNL     1      -2.305  13.748  24.062  0.00  0.00    +0.000 A 
ATOM     32  C   UNL     1      -2.327  12.890  22.891  0.00  0.00    +0.000 A 
ATOM     33  C   UNL     1      -1.677  11.547  23.037  0.00  0.00    +0.000 C 
ATOM     34  C   UNL     1      -2.875  13.313  21.719  0.00  0.00    +0.000 A 
ATOM     35  C   UNL     1      -3.433  14.704  21.669  0.00  0.00    +0.000 A 
ATOM     36  O   UNL     1      -3.922  15.174  20.643  0.00  0.00    +0.000 OA
ATOM     37  N   UNL     1      -3.362  15.447  22.834  0.00  0.00    +0.000 N 
ATOM     38  H   UNL     1      -3.737  16.379  22.777  0.00  0.00    +0.000 HD
ENDBRANCH  28  34
ENDBRANCH  26  28
ENDBRANCH   1  26
TORSDOF 5
ENDMDL
MODEL 7
REMARK VINA RESULT:      -8.2      3.536     11.136
REMARK  Name = 
REMARK  10 active torsions:
REMARK  status: ('A' for Active; 'I' for Inactive)
REMARK    1  A    between atoms: C_1  and  C_2
REMARK    2  A    between atoms: C_4  and  C_5
REMARK    3  A    between atoms: C_6  and  C_7
REMARK    4  A    between atoms: C_7  and  N_8
REMARK    5  A    between atoms: N_8  and  C_9
REMARK    6  A    between atoms: C_11  and  C_12
REMARK    7  A    between atoms: N_19  and  C_20
REMARK    8  A    between atoms: N_30  and  C_31
REMARK    9  A    between atoms: C_31  and  C_32
REMARK   10  A    between atoms: C_31  and  C_33
REMARK                            x       y       z     vdW  Elec       q    Type
REMARK                         _______ _______ _______ _____ _____    ______ ____
ROOT
ATOM      1  C   UNL     1      -0.581  12.853  19.142  0.00  0.00    +0.000 A 
ATOM      2  N   UNL     1      -0.316  11.533  19.188  0.00  0.00    +0.000 NA
ATOM      3  C   UNL     1       0.610  11.118  20.082  0.00  0.00    +0.000 A 
ATOM      4  N   UNL     1       1.147  11.876  21.095  0.00  0.00    +0.000 NA
ATOM      5  C   UNL     1       0.968  13.207  20.847  0.00  0.00    +0.000 A 
ATOM      6  C   UNL     1       0.489  13.655  19.609  0.00  0.00    +0.000 A 
ATOM      7  N   UNL     1       1.681  14.070  18.962  0.00  0.00    +0.000 NA
ATOM      8  C   UNL     1       2.565  14.224  19.941  0.00  0.00    +0.000 A 
ATOM      9  N   UNL     1       1.839  14.277  21.136  0.00  0.00    +0.000 N 
ENDROOT
BRANCH   3  10
ATOM     10  C   UNL     1       1.142   9.773  19.824  0.00  0.00    +0.000 A 
ATOM     11  C   UNL     1       1.657   9.356  18.605  0.00  0.00    +0.000 A 
ATOM     12  C   UNL     1       2.125   8.042  18.437  0.00  0.00    +0.000 A 
ATOM     13  C   UNL     1       2.044   7.122  19.484  0.00  0.00    +0.000 A 
ATOM     14  N   UNL     1       2.483   5.825  19.383  0.00  0.00    +0.000 N 
ATOM     15  C   UNL     1       1.762   4.792  20.143  0.00  0.00    +0.000 C 
ATOM     16  C   UNL     1       2.752   3.731  20.668  0.00  0.00    +0.000 C 
ATOM     17  N   UNL     1       3.569   3.138  19.582  0.00  0.00    +0.000 NA
ATOM     18  C   UNL     1       4.501   2.155  20.128  0.00  0.00    +0.000 C 
ATOM     19  C   UNL     1       4.293   4.228  18.887  0.00  0.00    +0.000 C 
ATOM     20  C   UNL     1       3.343   5.313  18.315  0.00  0.00    +0.000 C 
ATOM     21  N   UNL     1       1.548   7.515  20.672  0.00  0.00    +0.000 NA
ATOM     22  C   UNL     1       1.130   8.797  20.822  0.00  0.00    +0.000 A 
ENDBRANCH   3  10
BRANCH   9  23
ATOM     23  C   UNL     1       1.380  15.660  21.464  0.00  0.00    +0.000 C 
ATOM     24  C   UNL     1       0.454  15.791  22.674  0.00  0.00    +0.000 C 
ATOM     25  C   UNL     1       2.532  16.665  21.533  0.00  0.00    +0.000 C 
ENDBRANCH   9  23
BRANCH   1  26
ATOM     26  N   UNL     1      -1.936  13.280  19.188  0.00  0.00    +0.000 N 
ATOM     27  H   UNL     1      -2.016  13.886  20.005  0.00  0.00    +0.000 HD
BRANCH  26  28
ATOM     28  C   UNL     1      -2.889  12.167  19.333  0.00  0.00    +0.000 C 
BRANCH  28  34
ATOM     29  C   UNL     1      -6.802  12.942  23.611  0.00  0.00    +0.000 C 
ATOM     30  C   UNL     1      -5.827  12.778  22.485  0.00  0.00    +0.000 A 
ATOM     31  C   UNL     1      -6.225  12.733  21.192  0.00  0.00    +0.000 A 
ATOM     32  C   UNL     1      -5.257  12.573  20.123  0.00  0.00    +0.000 A 
ATOM     33  C   UNL     1      -5.811  12.471  18.733  0.00  0.00    +0.000 C 
ATOM     34  C   UNL     1      -3.924  12.480  20.387  0.00  0.00    +0.000 A 
ATOM     35  C   UNL     1      -3.491  12.524  21.822  0.00  0.00    +0.000 A 
ATOM     36  O   UNL     1      -2.311  12.419  22.150  0.00  0.00    +0.000 OA
ATOM     37  N   UNL     1      -4.487  12.674  22.771  0.00  0.00    +0.000 N 
ATOM     38  H   UNL     1      -4.176  12.694  23.727  0.00  0.00    +0.000 HD
ENDBRANCH  28  34
ENDBRANCH  26  28
ENDBRANCH   1  26
TORSDOF 5
ENDMDL
MODEL 8
REMARK VINA RESULT:      -8.2      2.328      4.837
REMARK  Name = 
REMARK  10 active torsions:
REMARK  status: ('A' for Active; 'I' for Inactive)
REMARK    1  A    between atoms: C_1  and  C_2
REMARK    2  A    between atoms: C_4  and  C_5
REMARK    3  A    between atoms: C_6  and  C_7
REMARK    4  A    between atoms: C_7  and  N_8
REMARK    5  A    between atoms: N_8  and  C_9
REMARK    6  A    between atoms: C_11  and  C_12
REMARK    7  A    between atoms: N_19  and  C_20
REMARK    8  A    between atoms: N_30  and  C_31
REMARK    9  A    between atoms: C_31  and  C_32
REMARK   10  A    between atoms: C_31  and  C_33
REMARK                            x       y       z     vdW  Elec       q    Type
REMARK                         _______ _______ _______ _____ _____    ______ ____
ROOT
ATOM      1  C   UNL     1       2.519   5.066  18.216  0.00  0.00    +0.000 A 
ATOM      2  N   UNL     1       1.856   6.218  18.440  0.00  0.00    +0.000 NA
ATOM      3  C   UNL     1       2.498   7.370  18.138  0.00  0.00    +0.000 A 
ATOM      4  N   UNL     1       3.666   7.477  17.423  0.00  0.00    +0.000 NA
ATOM      5  C   UNL     1       4.336   6.287  17.415  0.00  0.00    +0.000 A 
ATOM      6  C   UNL     1       3.927   5.220  18.225  0.00  0.00    +0.000 A 
ATOM      7  N   UNL     1       4.837   5.305  19.310  0.00  0.00    +0.000 NA
ATOM      8  C   UNL     1       5.845   6.040  18.853  0.00  0.00    +0.000 A 
ATOM      9  N   UNL     1       5.727   6.064  17.458  0.00  0.00    +0.000 N 
ENDROOT
BRANCH   3  10
ATOM     10  C   UNL     1       1.915   8.569  18.757  0.00  0.00    +0.000 A 
ATOM     11  C   UNL     1       1.394   8.610  20.042  0.00  0.00    +0.000 A 
ATOM     12  C   UNL     1       0.833   9.794  20.550  0.00  0.00    +0.000 A 
ATOM     13  C   UNL     1       0.757  10.939  19.755  0.00  0.00    +0.000 A 
ATOM     14  N   UNL     1       0.221  12.125  20.192  0.00  0.00    +0.000 N 
ATOM     15  C   UNL     1      -0.473  12.972  19.209  0.00  0.00    +0.000 C 
ATOM     16  C   UNL     1      -0.207  14.462  19.511  0.00  0.00    +0.000 C 
ATOM     17  N   UNL     1      -0.574  14.827  20.900  0.00  0.00    +0.000 NA
ATOM     18  C   UNL     1      -0.290  16.239  21.144  0.00  0.00    +0.000 C 
ATOM     19  C   UNL     1       0.187  13.964  21.833  0.00  0.00    +0.000 C 
ATOM     20  C   UNL     1      -0.061  12.451  21.591  0.00  0.00    +0.000 C 
ATOM     21  N   UNL     1       1.260  10.911  18.507  0.00  0.00    +0.000 NA
ATOM     22  C   UNL     1       1.825   9.767  18.047  0.00  0.00    +0.000 A 
ENDBRANCH   3  10
BRANCH   9  23
ATOM     23  C   UNL     1       6.406   4.903  16.807  0.00  0.00    +0.000 C 
ATOM     24  C   UNL     1       6.563   4.982  15.288  0.00  0.00    +0.000 C 
ATOM     25  C   UNL     1       7.727   4.535  17.486  0.00  0.00    +0.000 C 
ENDBRANCH   9  23
BRANCH   1  26
ATOM     26  N   UNL     1       1.865   4.032  17.492  0.00  0.00    +0.000 N 
ATOM     27  H   UNL     1       1.028   4.454  17.088  0.00  0.00    +0.000 HD
BRANCH  26  28
ATOM     28  C   UNL     1       1.459   2.900  18.340  0.00  0.00    +0.000 C 
BRANCH  28  34
ATOM     29  C   UNL     1       5.725   0.856  21.780  0.00  0.00    +0.000 C 
ATOM     30  C   UNL     1       4.628   1.422  20.932  0.00  0.00    +0.000 A 
ATOM     31  C   UNL     1       3.549   2.036  21.469  0.00  0.00    +0.000 A 
ATOM     32  C   UNL     1       2.501   2.573  20.621  0.00  0.00    +0.000 A 
ATOM     33  C   UNL     1       1.319   3.175  21.322  0.00  0.00    +0.000 C 
ATOM     34  C   UNL     1       2.582   2.491  19.264  0.00  0.00    +0.000 A 
ATOM     35  C   UNL     1       3.777   1.805  18.675  0.00  0.00    +0.000 A 
ATOM     36  O   UNL     1       3.915   1.663  17.462  0.00  0.00    +0.000 OA
ATOM     37  N   UNL     1       4.720   1.320  19.565  0.00  0.00    +0.000 N 
ATOM     38  H   UNL     1       5.511   0.857  19.148  0.00  0.00    +0.000 HD
ENDBRANCH  28  34
ENDBRANCH  26  28
ENDBRANCH   1  26
TORSDOF 5
ENDMDL
MODEL 9
REMARK VINA RESULT:      -8.2      3.659     11.237
REMARK  Name = 
REMARK  10 active torsions:
REMARK  status: ('A' for Active; 'I' for Inactive)
REMARK    1  A    between atoms: C_1  and  C_2
REMARK    2  A    between atoms: C_4  and  C_5
REMARK    3  A    between atoms: C_6  and  C_7
REMARK    4  A    between atoms: C_7  and  N_8
REMARK    5  A    between atoms: N_8  and  C_9
REMARK    6  A    between atoms: C_11  and  C_12
REMARK    7  A    between atoms: N_19  and  C_20
REMARK    8  A    between atoms: N_30  and  C_31
REMARK    9  A    between atoms: C_31  and  C_32
REMARK   10  A    between atoms: C_31  and  C_33
REMARK                            x       y       z     vdW  Elec       q    Type
REMARK                         _______ _______ _______ _____ _____    ______ ____
ROOT
ATOM      1  C   UNL     1      -0.760  12.184  19.156  0.00  0.00    +0.000 A 
ATOM      2  N   UNL     1      -0.512  10.896  19.464  0.00  0.00    +0.000 NA
ATOM      3  C   UNL     1       0.529  10.647  20.291  0.00  0.00    +0.000 A 
ATOM      4  N   UNL     1       1.219  11.585  21.021  0.00  0.00    +0.000 NA
ATOM      5  C   UNL     1       1.027  12.834  20.504  0.00  0.00    +0.000 A 
ATOM      6  C   UNL     1       0.379  13.017  19.276  0.00  0.00    +0.000 A 
ATOM      7  N   UNL     1       1.470  13.220  18.392  0.00  0.00    +0.000 NA
ATOM      8  C   UNL     1       2.490  13.546  19.178  0.00  0.00    +0.000 A 
ATOM      9  N   UNL     1       1.946  13.899  20.419  0.00  0.00    +0.000 N 
ENDROOT
BRANCH   3  10
ATOM     10  C   UNL     1       0.997   9.254  20.275  0.00  0.00    +0.000 A 
ATOM     11  C   UNL     1       0.778   8.343  21.297  0.00  0.00    +0.000 A 
ATOM     12  C   UNL     1       1.281   7.034  21.210  0.00  0.00    +0.000 A 
ATOM     13  C   UNL     1       2.044   6.640  20.109  0.00  0.00    +0.000 A 
ATOM     14  N   UNL     1       2.564   5.377  19.967  0.00  0.00    +0.000 N 
ATOM     15  C   UNL     1       3.853   5.238  19.271  0.00  0.00    +0.000 C 
ATOM     16  C   UNL     1       3.862   3.945  18.427  0.00  0.00    +0.000 C 
ATOM     17  N   UNL     1       3.546   2.744  19.235  0.00  0.00    +0.000 NA
ATOM     18  C   UNL     1       3.550   1.551  18.391  0.00  0.00    +0.000 C 
ATOM     19  C   UNL     1       2.223   2.938  19.873  0.00  0.00    +0.000 C 
ATOM     20  C   UNL     1       2.163   4.212  20.757  0.00  0.00    +0.000 C 
ATOM     21  N   UNL     1       2.263   7.515  19.111  0.00  0.00    +0.000 NA
ATOM     22  C   UNL     1       1.742   8.765  19.200  0.00  0.00    +0.000 A 
ENDBRANCH   3  10
BRANCH   9  23
ATOM     23  C   UNL     1       1.561  15.341  20.485  0.00  0.00    +0.000 C 
ATOM     24  C   UNL     1       0.925  15.807  21.795  0.00  0.00    +0.000 C 
ATOM     25  C   UNL     1       2.693  16.275  20.051  0.00  0.00    +0.000 C 
ENDBRANCH   9  23
BRANCH   1  26
ATOM     26  N   UNL     1      -2.087  12.674  19.291  0.00  0.00    +0.000 N 
ATOM     27  H   UNL     1      -2.332  13.084  18.389  0.00  0.00    +0.000 HD
BRANCH  26  28
ATOM     28  C   UNL     1      -2.219  13.710  20.328  0.00  0.00    +0.000 C 
BRANCH  28  34
ATOM     29  C   UNL     1      -6.459  12.584  24.197  0.00  0.00    +0.000 C 
ATOM     30  C   UNL     1      -5.340  12.841  23.235  0.00  0.00    +0.000 A 
ATOM     31  C   UNL     1      -4.065  13.026  23.650  0.00  0.00    +0.000 A 
ATOM     32  C   UNL     1      -3.002  13.274  22.693  0.00  0.00    +0.000 A 
ATOM     33  C   UNL     1      -1.639  13.528  23.265  0.00  0.00    +0.000 C 
ATOM     34  C   UNL     1      -3.253  13.312  21.356  0.00  0.00    +0.000 A 
ATOM     35  C   UNL     1      -4.669  13.113  20.904  0.00  0.00    +0.000 A 
ATOM     36  O   UNL     1      -4.987  13.160  19.717  0.00  0.00    +0.000 OA
ATOM     37  N   UNL     1      -5.613  12.888  21.890  0.00  0.00    +0.000 N 
ATOM     38  H   UNL     1      -6.557  12.764  21.565  0.00  0.00    +0.000 HD
ENDBRANCH  28  34
ENDBRANCH  26  28
ENDBRANCH   1  26
TORSDOF 5
ENDMDL
