MODEL 1
REMARK VINA RESULT:      -7.0      0.000      0.000
REMARK  Name = 
REMARK  3 active torsions:
REMARK  status: ('A' for Active; 'I' for Inactive)
REMARK    1  A    between atoms: C_1  and  N_2
REMARK    2  A    between atoms: C_3  and  C_4
REMARK    3  A    between atoms: N_6  and  C_7
REMARK                            x       y       z     vdW  Elec       q    Type
REMARK                         _______ _______ _______ _____ _____    ______ ____
ROOT
ATOM      1  C   UNL     1       5.798   4.307  16.844  0.00  0.00    +0.000 C 
ATOM      2  O   UNL     1       6.988   4.422  17.113  0.00  0.00    +0.000 OA
ATOM      3  N   UNL     1       5.276   4.292  15.560  0.00  0.00    +0.000 N 
ATOM      4  H   UNL     1       4.272   4.393  15.483  0.00  0.00    +0.000 HD
ENDROOT
BRANCH   1   7
ATOM      5  C   UNL     1       3.905   6.627  17.788  0.00  0.00    +0.000 C 
ATOM      6  N   UNL     1       3.968   5.274  18.288  0.00  0.00    +0.000 N 
ATOM      7  C   UNL     1       4.776   4.225  17.886  0.00  0.00    +0.000 A 
ATOM      8  C   UNL     1       4.470   3.127  18.683  0.00  0.00    +0.000 A 
ATOM      9  C   UNL     1       3.423   3.531  19.553  0.00  0.00    +0.000 A 
ATOM     10  S   UNL     1       2.439   2.874  20.818  0.00  0.00    +0.000 S 
ATOM     11  C   UNL     1       1.621   4.381  20.958  0.00  0.00    +0.000 A 
ATOM     12  C   UNL     1       2.082   5.356  20.099  0.00  0.00    +0.000 A 
ATOM     13  C   UNL     1       3.131   4.833  19.291  0.00  0.00    +0.000 A 
ENDBRANCH   1   7
BRANCH   3  14
ATOM     14  C   UNL     1       6.003   4.309  14.350  0.00  0.00    +0.000 A 
ATOM     15  C   UNL     1       7.116   5.125  14.136  0.00  0.00    +0.000 A 
ATOM     16  C   UNL     1       7.785   5.111  12.908  0.00  0.00    +0.000 A 
ATOM     17  C   UNL     1       7.346   4.280  11.881  0.00  0.00    +0.000 A 
ATOM     18  C   UNL     1       6.248   3.446  12.089  0.00  0.00    +0.000 A 
ATOM     19  C   UNL     1       5.588   3.452  13.322  0.00  0.00    +0.000 A 
ENDBRANCH   3  14
TORSDOF 2
ENDMDL
MODEL 2
REMARK VINA RESULT:      -6.9      1.076      1.670
REMARK  Name = 
REMARK  3 active torsions:
REMARK  status: ('A' for Active; 'I' for Inactive)
REMARK    1  A    between atoms: C_1  and  N_2
REMARK    2  A    between atoms: C_3  and  C_4
REMARK    3  A    between atoms: N_6  and  C_7
REMARK                            x       y       z     vdW  Elec       q    Type
REMARK                         _______ _______ _______ _____ _____    ______ ____
ROOT
ATOM      1  C   UNL     1       5.543   4.317  16.854  0.00  0.00    +0.000 C 
ATOM      2  O   UNL     1       6.720   4.235  17.182  0.00  0.00    +0.000 OA
ATOM      3  N   UNL     1       5.092   4.429  15.548  0.00  0.00    +0.000 N 
ATOM      4  H   UNL     1       4.121   4.688  15.430  0.00  0.00    +0.000 HD
ENDROOT
BRANCH   1   7
ATOM      5  C   UNL     1       3.759   1.902  17.773  0.00  0.00    +0.000 C 
ATOM      6  N   UNL     1       3.690   3.274  18.215  0.00  0.00    +0.000 N 
ATOM      7  C   UNL     1       4.468   4.357  17.844  0.00  0.00    +0.000 A 
ATOM      8  C   UNL     1       4.004   5.469  18.541  0.00  0.00    +0.000 A 
ATOM      9  C   UNL     1       2.947   5.018  19.375  0.00  0.00    +0.000 A 
ATOM     10  S   UNL     1       1.835   5.648  20.543  0.00  0.00    +0.000 S 
ATOM     11  C   UNL     1       1.170   4.076  20.752  0.00  0.00    +0.000 A 
ATOM     12  C   UNL     1       1.746   3.108  19.957  0.00  0.00    +0.000 A 
ATOM     13  C   UNL     1       2.779   3.684  19.165  0.00  0.00    +0.000 A 
ENDBRANCH   1   7
BRANCH   3  14
ATOM     14  C   UNL     1       5.874   4.377  14.375  0.00  0.00    +0.000 A 
ATOM     15  C   UNL     1       7.043   5.120  14.198  0.00  0.00    +0.000 A 
ATOM     16  C   UNL     1       7.766   5.040  13.004  0.00  0.00    +0.000 A 
ATOM     17  C   UNL     1       7.327   4.214  11.974  0.00  0.00    +0.000 A 
ATOM     18  C   UNL     1       6.173   3.450  12.146  0.00  0.00    +0.000 A 
ATOM     19  C   UNL     1       5.457   3.522  13.345  0.00  0.00    +0.000 A 
ENDBRANCH   3  14
TORSDOF 2
ENDMDL
MODEL 3
REMARK VINA RESULT:      -6.8      1.329      1.466
REMARK  Name = 
REMARK  3 active torsions:
REMARK  status: ('A' for Active; 'I' for Inactive)
REMARK    1  A    between atoms: C_1  and  N_2
REMARK    2  A    between atoms: C_3  and  C_4
REMARK    3  A    between atoms: N_6  and  C_7
REMARK                            x       y       z     vdW  Elec       q    Type
REMARK                         _______ _______ _______ _____ _____    ______ ____
ROOT
ATOM      1  C   UNL     1       4.597   5.060  16.380  0.00  0.00    +0.000 C 
ATOM      2  O   UNL     1       4.779   6.258  16.198  0.00  0.00    +0.000 OA
ATOM      3  N   UNL     1       5.068   4.054  15.551  0.00  0.00    +0.000 N 
ATOM      4  H   UNL     1       4.682   3.131  15.702  0.00  0.00    +0.000 HD
ENDROOT
BRANCH   1   7
ATOM      5  C   UNL     1       5.372   5.155  19.421  0.00  0.00    +0.000 C 
ATOM      6  N   UNL     1       4.176   4.608  18.827  0.00  0.00    +0.000 N 
ATOM      7  C   UNL     1       3.796   4.564  17.497  0.00  0.00    +0.000 A 
ATOM      8  C   UNL     1       2.561   3.925  17.432  0.00  0.00    +0.000 A 
ATOM      9  C   UNL     1       2.187   3.620  18.767  0.00  0.00    +0.000 A 
ATOM     10  S   UNL     1       0.881   2.877  19.628  0.00  0.00    +0.000 S 
ATOM     11  C   UNL     1       1.690   3.185  21.114  0.00  0.00    +0.000 A 
ATOM     12  C   UNL     1       2.913   3.807  20.973  0.00  0.00    +0.000 A 
ATOM     13  C   UNL     1       3.177   4.049  19.596  0.00  0.00    +0.000 A 
ENDBRANCH   1   7
BRANCH   3  14
ATOM     14  C   UNL     1       5.903   4.207  14.424  0.00  0.00    +0.000 A 
ATOM     15  C   UNL     1       7.058   4.992  14.427  0.00  0.00    +0.000 A 
ATOM     16  C   UNL     1       7.836   5.121  13.272  0.00  0.00    +0.000 A 
ATOM     17  C   UNL     1       7.467   4.463  12.102  0.00  0.00    +0.000 A 
ATOM     18  C   UNL     1       6.328   3.659  12.092  0.00  0.00    +0.000 A 
ATOM     19  C   UNL     1       5.557   3.522  13.251  0.00  0.00    +0.000 A 
ENDBRANCH   3  14
TORSDOF 2
ENDMDL
MODEL 4
REMARK VINA RESULT:      -6.8      0.110      1.140
REMARK  Name = 
REMARK  3 active torsions:
REMARK  status: ('A' for Active; 'I' for Inactive)
REMARK    1  A    between atoms: C_1  and  N_2
REMARK    2  A    between atoms: C_3  and  C_4
REMARK    3  A    between atoms: N_6  and  C_7
REMARK                            x       y       z     vdW  Elec       q    Type
REMARK                         _______ _______ _______ _____ _____    ______ ____
ROOT
ATOM      1  C   UNL     1       5.789   4.314  16.809  0.00  0.00    +0.000 C 
ATOM      2  O   UNL     1       6.988   4.417  17.041  0.00  0.00    +0.000 OA
ATOM      3  N   UNL     1       5.229   4.280  15.542  0.00  0.00    +0.000 N 
ATOM      4  H   UNL     1       4.225   4.395  15.492  0.00  0.00    +0.000 HD
ENDROOT
BRANCH   1   7
ATOM      5  C   UNL     1       3.948   6.677  17.749  0.00  0.00    +0.000 C 
ATOM      6  N   UNL     1       4.012   5.337  18.281  0.00  0.00    +0.000 N 
ATOM      7  C   UNL     1       4.797   4.270  17.883  0.00  0.00    +0.000 A 
ATOM      8  C   UNL     1       4.503   3.195  18.716  0.00  0.00    +0.000 A 
ATOM      9  C   UNL     1       3.486   3.632  19.605  0.00  0.00    +0.000 A 
ATOM     10  S   UNL     1       2.534   3.019  20.915  0.00  0.00    +0.000 S 
ATOM     11  C   UNL     1       1.735   4.537  21.040  0.00  0.00    +0.000 A 
ATOM     12  C   UNL     1       2.181   5.485  20.143  0.00  0.00    +0.000 A 
ATOM     13  C   UNL     1       3.200   4.931  19.319  0.00  0.00    +0.000 A 
ENDBRANCH   1   7
BRANCH   3  14
ATOM     14  C   UNL     1       5.920   4.261  14.311  0.00  0.00    +0.000 A 
ATOM     15  C   UNL     1       5.548   3.451  13.236  0.00  0.00    +0.000 A 
ATOM     16  C   UNL     1       6.283   3.461  12.047  0.00  0.00    +0.000 A 
ATOM     17  C   UNL     1       7.399   4.284  11.921  0.00  0.00    +0.000 A 
ATOM     18  C   UNL     1       7.769   5.113  12.980  0.00  0.00    +0.000 A 
ATOM     19  C   UNL     1       7.025   5.110  14.164  0.00  0.00    +0.000 A 
ENDBRANCH   3  14
TORSDOF 2
ENDMDL
MODEL 5
REMARK VINA RESULT:      -6.8      1.076      2.021
REMARK  Name = 
REMARK  3 active torsions:
REMARK  status: ('A' for Active; 'I' for Inactive)
REMARK    1  A    between atoms: C_1  and  N_2
REMARK    2  A    between atoms: C_3  and  C_4
REMARK    3  A    between atoms: N_6  and  C_7
REMARK                            x       y       z     vdW  Elec       q    Type
REMARK                         _______ _______ _______ _____ _____    ______ ____
ROOT
ATOM      1  C   UNL     1       5.508   4.275  16.825  0.00  0.00    +0.000 C 
ATOM      2  O   UNL     1       6.693   4.210  17.127  0.00  0.00    +0.000 OA
ATOM      3  N   UNL     1       5.026   4.362  15.528  0.00  0.00    +0.000 N 
ATOM      4  H   UNL     1       4.050   4.609  15.428  0.00  0.00    +0.000 HD
ENDROOT
BRANCH   1   7
ATOM      5  C   UNL     1       3.733   1.871  17.788  0.00  0.00    +0.000 C 
ATOM      6  N   UNL     1       3.681   3.244  18.229  0.00  0.00    +0.000 N 
ATOM      7  C   UNL     1       4.456   4.323  17.839  0.00  0.00    +0.000 A 
ATOM      8  C   UNL     1       4.012   5.438  18.543  0.00  0.00    +0.000 A 
ATOM      9  C   UNL     1       2.972   4.994  19.401  0.00  0.00    +0.000 A 
ATOM     10  S   UNL     1       1.889   5.631  20.593  0.00  0.00    +0.000 S 
ATOM     11  C   UNL     1       1.222   4.063  20.820  0.00  0.00    +0.000 A 
ATOM     12  C   UNL     1       1.776   3.091  20.014  0.00  0.00    +0.000 A 
ATOM     13  C   UNL     1       2.794   3.660  19.199  0.00  0.00    +0.000 A 
ENDBRANCH   1   7
BRANCH   3  14
ATOM     14  C   UNL     1       5.781   4.296  14.338  0.00  0.00    +0.000 A 
ATOM     15  C   UNL     1       5.441   3.478  13.258  0.00  0.00    +0.000 A 
ATOM     16  C   UNL     1       6.241   3.442  12.111  0.00  0.00    +0.000 A 
ATOM     17  C   UNL     1       7.389   4.224  12.033  0.00  0.00    +0.000 A 
ATOM     18  C   UNL     1       7.728   5.061  13.096  0.00  0.00    +0.000 A 
ATOM     19  C   UNL     1       6.921   5.106  14.237  0.00  0.00    +0.000 A 
ENDBRANCH   3  14
TORSDOF 2
ENDMDL
MODEL 6
REMARK VINA RESULT:      -6.6      2.521      6.796
REMARK  Name = 
REMARK  3 active torsions:
REMARK  status: ('A' for Active; 'I' for Inactive)
REMARK    1  A    between atoms: C_1  and  N_2
REMARK    2  A    between atoms: C_3  and  C_4
REMARK    3  A    between atoms: N_6  and  C_7
REMARK                            x       y       z     vdW  Elec       q    Type
REMARK                         _______ _______ _______ _____ _____    ______ ____
ROOT
ATOM      1  C   UNL     1       5.142   4.088  17.697  0.00  0.00    +0.000 C 
ATOM      2  O   UNL     1       5.854   4.073  18.693  0.00  0.00    +0.000 OA
ATOM      3  N   UNL     1       3.763   3.952  17.709  0.00  0.00    +0.000 N 
ATOM      4  H   UNL     1       3.321   3.781  16.815  0.00  0.00    +0.000 HD
ENDROOT
BRANCH   1   7
ATOM      5  C   UNL     1       7.257   6.194  16.724  0.00  0.00    +0.000 C 
ATOM      6  N   UNL     1       6.624   5.152  15.952  0.00  0.00    +0.000 N 
ATOM      7  C   UNL     1       5.702   4.199  16.351  0.00  0.00    +0.000 A 
ATOM      8  C   UNL     1       5.385   3.427  15.238  0.00  0.00    +0.000 A 
ATOM      9  C   UNL     1       6.173   3.915  14.162  0.00  0.00    +0.000 A 
ATOM     10  S   UNL     1       6.451   3.589  12.484  0.00  0.00    +0.000 S 
ATOM     11  C   UNL     1       7.606   4.862  12.433  0.00  0.00    +0.000 A 
ATOM     12  C   UNL     1       7.766   5.529  13.630  0.00  0.00    +0.000 A 
ATOM     13  C   UNL     1       6.920   4.955  14.620  0.00  0.00    +0.000 A 
ENDBRANCH   1   7
BRANCH   3  14
ATOM     14  C   UNL     1       2.930   3.871  18.845  0.00  0.00    +0.000 A 
ATOM     15  C   UNL     1       2.574   4.981  19.616  0.00  0.00    +0.000 A 
ATOM     16  C   UNL     1       1.760   4.835  20.743  0.00  0.00    +0.000 A 
ATOM     17  C   UNL     1       1.292   3.577  21.111  0.00  0.00    +0.000 A 
ATOM     18  C   UNL     1       1.623   2.464  20.338  0.00  0.00    +0.000 A 
ATOM     19  C   UNL     1       2.427   2.613  19.204  0.00  0.00    +0.000 A 
ENDBRANCH   3  14
TORSDOF 2
ENDMDL
MODEL 7
REMARK VINA RESULT:      -6.6      1.326      1.841
REMARK  Name = 
REMARK  3 active torsions:
REMARK  status: ('A' for Active; 'I' for Inactive)
REMARK    1  A    between atoms: C_1  and  N_2
REMARK    2  A    between atoms: C_3  and  C_4
REMARK    3  A    between atoms: N_6  and  C_7
REMARK                            x       y       z     vdW  Elec       q    Type
REMARK                         _______ _______ _______ _____ _____    ______ ____
ROOT
ATOM      1  C   UNL     1       4.592   5.057  16.366  0.00  0.00    +0.000 C 
ATOM      2  O   UNL     1       4.814   6.250  16.192  0.00  0.00    +0.000 OA
ATOM      3  N   UNL     1       5.008   4.044  15.518  0.00  0.00    +0.000 N 
ATOM      4  H   UNL     1       4.592   3.134  15.669  0.00  0.00    +0.000 HD
ENDROOT
BRANCH   1   7
ATOM      5  C   UNL     1       5.394   5.171  19.400  0.00  0.00    +0.000 C 
ATOM      6  N   UNL     1       4.187   4.631  18.821  0.00  0.00    +0.000 N 
ATOM      7  C   UNL     1       3.795   4.579  17.495  0.00  0.00    +0.000 A 
ATOM      8  C   UNL     1       2.554   3.952  17.446  0.00  0.00    +0.000 A 
ATOM      9  C   UNL     1       2.188   3.662  18.787  0.00  0.00    +0.000 A 
ATOM     10  S   UNL     1       0.882   2.940  19.665  0.00  0.00    +0.000 S 
ATOM     11  C   UNL     1       1.707   3.253  21.142  0.00  0.00    +0.000 A 
ATOM     12  C   UNL     1       2.935   3.861  20.984  0.00  0.00    +0.000 A 
ATOM     13  C   UNL     1       3.189   4.089  19.603  0.00  0.00    +0.000 A 
ENDBRANCH   1   7
BRANCH   3  14
ATOM     14  C   UNL     1       5.826   4.178  14.376  0.00  0.00    +0.000 A 
ATOM     15  C   UNL     1       5.561   3.537  13.164  0.00  0.00    +0.000 A 
ATOM     16  C   UNL     1       6.420   3.694  12.072  0.00  0.00    +0.000 A 
ATOM     17  C   UNL     1       7.553   4.495  12.181  0.00  0.00    +0.000 A 
ATOM     18  C   UNL     1       7.817   5.157  13.379  0.00  0.00    +0.000 A 
ATOM     19  C   UNL     1       6.951   5.009  14.467  0.00  0.00    +0.000 A 
ENDBRANCH   3  14
TORSDOF 2
ENDMDL
MODEL 8
REMARK VINA RESULT:      -6.6      2.495      6.854
REMARK  Name = 
REMARK  3 active torsions:
REMARK  status: ('A' for Active; 'I' for Inactive)
REMARK    1  A    between atoms: C_1  and  N_2
REMARK    2  A    between atoms: C_3  and  C_4
REMARK    3  A    between atoms: N_6  and  C_7
REMARK                            x       y       z     vdW  Elec       q    Type
REMARK                         _______ _______ _______ _____ _____    ______ ____
ROOT
ATOM      1  C   UNL     1       5.003   4.361  17.948  0.00  0.00    +0.000 C 
ATOM      2  O   UNL     1       5.569   4.916  18.882  0.00  0.00    +0.000 OA
ATOM      3  N   UNL     1       3.832   3.628  18.056  0.00  0.00    +0.000 N 
ATOM      4  H   UNL     1       3.582   3.061  17.256  0.00  0.00    +0.000 HD
ENDROOT
BRANCH   1   7
ATOM      5  C   UNL     1       7.284   6.237  16.883  0.00  0.00    +0.000 C 
ATOM      6  N   UNL     1       6.552   5.229  16.154  0.00  0.00    +0.000 N 
ATOM      7  C   UNL     1       5.555   4.376  16.594  0.00  0.00    +0.000 A 
ATOM      8  C   UNL     1       5.158   3.596  15.512  0.00  0.00    +0.000 A 
ATOM      9  C   UNL     1       5.973   3.975  14.413  0.00  0.00    +0.000 A 
ATOM     10  S   UNL     1       6.202   3.569  12.746  0.00  0.00    +0.000 S 
ATOM     11  C   UNL     1       7.464   4.732  12.639  0.00  0.00    +0.000 A 
ATOM     12  C   UNL     1       7.696   5.423  13.810  0.00  0.00    +0.000 A 
ATOM     13  C   UNL     1       6.815   4.961  14.827  0.00  0.00    +0.000 A 
ENDBRANCH   1   7
BRANCH   3  14
ATOM     14  C   UNL     1       3.039   3.465  19.212  0.00  0.00    +0.000 A 
ATOM     15  C   UNL     1       3.427   2.687  20.305  0.00  0.00    +0.000 A 
ATOM     16  C   UNL     1       2.589   2.548  21.415  0.00  0.00    +0.000 A 
ATOM     17  C   UNL     1       1.353   3.187  21.444  0.00  0.00    +0.000 A 
ATOM     18  C   UNL     1       0.963   3.984  20.369  0.00  0.00    +0.000 A 
ATOM     19  C   UNL     1       1.807   4.132  19.264  0.00  0.00    +0.000 A 
ENDBRANCH   3  14
TORSDOF 2
ENDMDL
MODEL 9
REMARK VINA RESULT:      -6.5      3.752      5.047
REMARK  Name = 
REMARK  3 active torsions:
REMARK  status: ('A' for Active; 'I' for Inactive)
REMARK    1  A    between atoms: C_1  and  N_2
REMARK    2  A    between atoms: C_3  and  C_4
REMARK    3  A    between atoms: N_6  and  C_7
REMARK                            x       y       z     vdW  Elec       q    Type
REMARK                         _______ _______ _______ _____ _____    ______ ____
ROOT
ATOM      1  C   UNL     1       3.036   6.790  17.951  0.00  0.00    +0.000 C 
ATOM      2  O   UNL     1       2.550   5.666  17.916  0.00  0.00    +0.000 OA
ATOM      3  N   UNL     1       4.321   7.110  17.540  0.00  0.00    +0.000 N 
ATOM      4  H   UNL     1       4.663   8.024  17.806  0.00  0.00    +0.000 HD
ENDROOT
BRANCH   1   7
ATOM      5  C   UNL     1       1.741   6.985  20.804  0.00  0.00    +0.000 C 
ATOM      6  N   UNL     1       1.729   7.977  19.755  0.00  0.00    +0.000 N 
ATOM      7  C   UNL     1       2.301   7.931  18.495  0.00  0.00    +0.000 A 
ATOM      8  C   UNL     1       2.001   9.127  17.851  0.00  0.00    +0.000 A 
ATOM      9  C   UNL     1       1.264   9.916  18.774  0.00  0.00    +0.000 A 
ATOM     10  S   UNL     1       0.513  11.473  18.864  0.00  0.00    +0.000 S 
ATOM     11  C   UNL     1       0.029  11.141  20.481  0.00  0.00    +0.000 A 
ATOM     12  C   UNL     1       0.398   9.893  20.936  0.00  0.00    +0.000 A 
ATOM     13  C   UNL     1       1.117   9.201  19.922  0.00  0.00    +0.000 A 
ENDBRANCH   1   7
BRANCH   3  14
ATOM     14  C   UNL     1       5.255   6.244  16.932  0.00  0.00    +0.000 A 
ATOM     15  C   UNL     1       5.243   5.938  15.570  0.00  0.00    +0.000 A 
ATOM     16  C   UNL     1       6.184   5.058  15.028  0.00  0.00    +0.000 A 
ATOM     17  C   UNL     1       7.149   4.475  15.844  0.00  0.00    +0.000 A 
ATOM     18  C   UNL     1       7.185   4.788  17.203  0.00  0.00    +0.000 A 
ATOM     19  C   UNL     1       6.250   5.678  17.741  0.00  0.00    +0.000 A 
ENDBRANCH   3  14
TORSDOF 2
ENDMDL
