MODEL 1
REMARK VINA RESULT:      -8.9      0.000      0.000
REMARK  Name = 
REMARK  8 active torsions:
REMARK  status: ('A' for Active; 'I' for Inactive)
REMARK    1  A    between atoms: C_1  and  C_2
REMARK    2  A    between atoms: C_2  and  C_3
REMARK    3  A    between atoms: C_2  and  C_4
REMARK    4  A    between atoms: C_2  and  C_5
REMARK    5  A    between atoms: N_7  and  C_8
REMARK    6  A    between atoms: C_11  and  C_12
REMARK    7  A    between atoms: C_12  and  O_14
REMARK    8  A    between atoms: C_17  and  C_18
REMARK                            x       y       z     vdW  Elec       q    Type
REMARK                         _______ _______ _______ _____ _____    ______ ____
ROOT
ATOM      1  C   UNL     1       5.539   5.794  17.901  0.00  0.00    +0.000 C 
ATOM      2  N   UNL     1       4.671   6.749  17.738  0.00  0.00    +0.000 NA
ATOM      3  N   UNL     1       3.688   6.560  18.656  0.00  0.00    +0.000 N 
ATOM      4  C   UNL     1       3.948   5.450  19.571  0.00  0.00    +0.000 C 
ATOM      5  C   UNL     1       5.201   4.811  18.984  0.00  0.00    +0.000 C 
ENDROOT
BRANCH   4   6
ATOM      6  C   UNL     1       2.785   4.474  19.625  0.00  0.00    +0.000 A 
ATOM      7  C   UNL     1       2.120   4.070  18.451  0.00  0.00    +0.000 A 
ATOM      8  C   UNL     1       1.030   3.199  18.508  0.00  0.00    +0.000 A 
ATOM      9  C   UNL     1       0.599   2.707  19.734  0.00  0.00    +0.000 A 
ATOM     10  C   UNL     1       1.266   3.081  20.898  0.00  0.00    +0.000 A 
ATOM     11  F   UNL     1       0.860   2.596  22.076  0.00  0.00    +0.000 F 
ATOM     12  C   UNL     1       2.355   3.950  20.852  0.00  0.00    +0.000 A 
ENDBRANCH   4   6
BRANCH   3  13
ATOM     13  C   UNL     1       2.699   7.525  18.818  0.00  0.00    +0.000 A 
ATOM     14  C   UNL     1       2.343   8.345  17.741  0.00  0.00    +0.000 A 
ATOM     15  C   UNL     1       1.330   9.303  17.855  0.00  0.00    +0.000 A 
ATOM     16  C   UNL     1       0.661   9.490  19.070  0.00  0.00    +0.000 A 
ATOM     17  C   UNL     1       1.013   8.692  20.163  0.00  0.00    +0.000 A 
ATOM     18  C   UNL     1       2.012   7.715  20.027  0.00  0.00    +0.000 A 
BRANCH  16  19
ATOM     19  C   UNL     1      -0.424  10.513  19.093  0.00  0.00    +0.000 C 
ATOM     20  O   UNL     1      -0.936  10.890  20.131  0.00  0.00    +0.000 OA
BRANCH  19  21
ATOM     21  O   UNL     1      -0.846  10.944  17.884  0.00  0.00    +0.000 OA
ATOM     22  H   UNL     1      -1.471  11.687  17.872  0.00  0.00    +0.000 HD
ENDBRANCH  19  21
ENDBRANCH  16  19
ENDBRANCH   3  13
BRANCH   1  24
ATOM     23  C   UNL     1       7.696   4.604  17.701  0.00  0.00    +0.000 C 
ATOM     24  C   UNL     1       6.836   5.726  17.107  0.00  0.00    +0.000 C 
ATOM     25  C   UNL     1       7.583   7.064  17.216  0.00  0.00    +0.000 C 
ATOM     26  C   UNL     1       6.571   5.433  15.623  0.00  0.00    +0.000 C 
ENDBRANCH   1  24
TORSDOF 5
ENDMDL
MODEL 2
REMARK VINA RESULT:      -8.8      0.324      1.153
REMARK  Name = 
REMARK  8 active torsions:
REMARK  status: ('A' for Active; 'I' for Inactive)
REMARK    1  A    between atoms: C_1  and  C_2
REMARK    2  A    between atoms: C_2  and  C_3
REMARK    3  A    between atoms: C_2  and  C_4
REMARK    4  A    between atoms: C_2  and  C_5
REMARK    5  A    between atoms: N_7  and  C_8
REMARK    6  A    between atoms: C_11  and  C_12
REMARK    7  A    between atoms: C_12  and  O_14
REMARK    8  A    between atoms: C_17  and  C_18
REMARK                            x       y       z     vdW  Elec       q    Type
REMARK                         _______ _______ _______ _____ _____    ______ ____
ROOT
ATOM      1  C   UNL     1       5.507   5.803  17.890  0.00  0.00    +0.000 C 
ATOM      2  N   UNL     1       4.627   6.747  17.724  0.00  0.00    +0.000 NA
ATOM      3  N   UNL     1       3.649   6.551  18.647  0.00  0.00    +0.000 N 
ATOM      4  C   UNL     1       3.926   5.449  19.567  0.00  0.00    +0.000 C 
ATOM      5  C   UNL     1       5.185   4.822  18.979  0.00  0.00    +0.000 C 
ENDROOT
BRANCH   4   6
ATOM      6  C   UNL     1       2.775   4.459  19.630  0.00  0.00    +0.000 A 
ATOM      7  C   UNL     1       2.117   4.033  18.459  0.00  0.00    +0.000 A 
ATOM      8  C   UNL     1       1.038   3.150  18.524  0.00  0.00    +0.000 A 
ATOM      9  C   UNL     1       0.612   2.666  19.755  0.00  0.00    +0.000 A 
ATOM     10  C   UNL     1       1.272   3.061  20.916  0.00  0.00    +0.000 A 
ATOM     11  F   UNL     1       0.870   2.584  22.098  0.00  0.00    +0.000 F 
ATOM     12  C   UNL     1       2.350   3.943  20.862  0.00  0.00    +0.000 A 
ENDBRANCH   4   6
BRANCH   3  13
ATOM     13  C   UNL     1       2.649   7.504  18.807  0.00  0.00    +0.000 A 
ATOM     14  C   UNL     1       2.037   7.668  20.056  0.00  0.00    +0.000 A 
ATOM     15  C   UNL     1       1.053   8.639  20.266  0.00  0.00    +0.000 A 
ATOM     16  C   UNL     1       0.628   9.460  19.215  0.00  0.00    +0.000 A 
ATOM     17  C   UNL     1       1.214   9.302  17.956  0.00  0.00    +0.000 A 
ATOM     18  C   UNL     1       2.222   8.341  17.766  0.00  0.00    +0.000 A 
BRANCH  16  19
ATOM     19  C   UNL     1      -0.406  10.487  19.537  0.00  0.00    +0.000 C 
ATOM     20  O   UNL     1      -1.397  10.645  18.846  0.00  0.00    +0.000 OA
BRANCH  19  21
ATOM     21  O   UNL     1      -0.137  11.272  20.602  0.00  0.00    +0.000 OA
ATOM     22  H   UNL     1      -0.039  12.224  20.438  0.00  0.00    +0.000 HD
ENDBRANCH  19  21
ENDBRANCH  16  19
ENDBRANCH   3  13
BRANCH   1  24
ATOM     23  C   UNL     1       7.665   4.619  17.669  0.00  0.00    +0.000 C 
ATOM     24  C   UNL     1       6.802   5.748  17.091  0.00  0.00    +0.000 C 
ATOM     25  C   UNL     1       7.547   7.085  17.214  0.00  0.00    +0.000 C 
ATOM     26  C   UNL     1       6.534   5.472  15.604  0.00  0.00    +0.000 C 
ENDBRANCH   1  24
TORSDOF 5
ENDMDL
MODEL 3
REMARK VINA RESULT:      -8.8      0.229      1.314
REMARK  Name = 
REMARK  8 active torsions:
REMARK  status: ('A' for Active; 'I' for Inactive)
REMARK    1  A    between atoms: C_1  and  C_2
REMARK    2  A    between atoms: C_2  and  C_3
REMARK    3  A    between atoms: C_2  and  C_4
REMARK    4  A    between atoms: C_2  and  C_5
REMARK    5  A    between atoms: N_7  and  C_8
REMARK    6  A    between atoms: C_11  and  C_12
REMARK    7  A    between atoms: C_12  and  O_14
REMARK    8  A    between atoms: C_17  and  C_18
REMARK                            x       y       z     vdW  Elec       q    Type
REMARK                         _______ _______ _______ _____ _____    ______ ____
ROOT
ATOM      1  C   UNL     1       5.479   5.806  17.894  0.00  0.00    +0.000 C 
ATOM      2  N   UNL     1       4.600   6.751  17.732  0.00  0.00    +0.000 NA
ATOM      3  N   UNL     1       3.627   6.559  18.659  0.00  0.00    +0.000 N 
ATOM      4  C   UNL     1       3.906   5.457  19.580  0.00  0.00    +0.000 C 
ATOM      5  C   UNL     1       5.161   4.826  18.986  0.00  0.00    +0.000 C 
ENDROOT
BRANCH   4   6
ATOM      6  C   UNL     1       2.753   4.470  19.650  0.00  0.00    +0.000 A 
ATOM      7  C   UNL     1       2.077   4.058  18.485  0.00  0.00    +0.000 A 
ATOM      8  C   UNL     1       0.996   3.177  18.557  0.00  0.00    +0.000 A 
ATOM      9  C   UNL     1       0.586   2.683  19.789  0.00  0.00    +0.000 A 
ATOM     10  C   UNL     1       1.265   3.064  20.943  0.00  0.00    +0.000 A 
ATOM     11  F   UNL     1       0.878   2.577  22.127  0.00  0.00    +0.000 F 
ATOM     12  C   UNL     1       2.344   3.943  20.883  0.00  0.00    +0.000 A 
ENDBRANCH   4   6
BRANCH   3  13
ATOM     13  C   UNL     1       2.630   7.515  18.824  0.00  0.00    +0.000 A 
ATOM     14  C   UNL     1       2.034   7.691  20.079  0.00  0.00    +0.000 A 
ATOM     15  C   UNL     1       1.054   8.665  20.292  0.00  0.00    +0.000 A 
ATOM     16  C   UNL     1       0.616   9.476  19.239  0.00  0.00    +0.000 A 
ATOM     17  C   UNL     1       1.186   9.306  17.974  0.00  0.00    +0.000 A 
ATOM     18  C   UNL     1       2.190   8.343  17.781  0.00  0.00    +0.000 A 
BRANCH  16  19
ATOM     19  C   UNL     1      -0.412  10.508  19.564  0.00  0.00    +0.000 C 
ATOM     20  O   UNL     1      -0.650  10.845  20.710  0.00  0.00    +0.000 OA
BRANCH  19  21
ATOM     21  O   UNL     1      -1.106  10.993  18.512  0.00  0.00    +0.000 OA
ATOM     22  H   UNL     1      -1.594  10.352  17.970  0.00  0.00    +0.000 HD
ENDBRANCH  19  21
ENDBRANCH  16  19
ENDBRANCH   3  13
BRANCH   1  24
ATOM     23  C   UNL     1       6.401   5.467  15.626  0.00  0.00    +0.000 C 
ATOM     24  C   UNL     1       6.770   5.746  17.089  0.00  0.00    +0.000 C 
ATOM     25  C   UNL     1       7.664   4.617  17.622  0.00  0.00    +0.000 C 
ATOM     26  C   UNL     1       7.547   7.067  17.174  0.00  0.00    +0.000 C 
ENDBRANCH   1  24
TORSDOF 5
ENDMDL
MODEL 4
REMARK VINA RESULT:      -8.4      0.944      1.923
REMARK  Name = 
REMARK  8 active torsions:
REMARK  status: ('A' for Active; 'I' for Inactive)
REMARK    1  A    between atoms: C_1  and  C_2
REMARK    2  A    between atoms: C_2  and  C_3
REMARK    3  A    between atoms: C_2  and  C_4
REMARK    4  A    between atoms: C_2  and  C_5
REMARK    5  A    between atoms: N_7  and  C_8
REMARK    6  A    between atoms: C_11  and  C_12
REMARK    7  A    between atoms: C_12  and  O_14
REMARK    8  A    between atoms: C_17  and  C_18
REMARK                            x       y       z     vdW  Elec       q    Type
REMARK                         _______ _______ _______ _____ _____    ______ ____
ROOT
ATOM      1  C   UNL     1       5.360   5.795  17.814  0.00  0.00    +0.000 C 
ATOM      2  N   UNL     1       4.452   6.712  17.644  0.00  0.00    +0.000 NA
ATOM      3  N   UNL     1       3.571   6.602  18.672  0.00  0.00    +0.000 N 
ATOM      4  C   UNL     1       3.954   5.598  19.664  0.00  0.00    +0.000 C 
ATOM      5  C   UNL     1       5.161   4.924  19.020  0.00  0.00    +0.000 C 
ENDROOT
BRANCH   4   6
ATOM      6  C   UNL     1       2.831   4.611  19.936  0.00  0.00    +0.000 A 
ATOM      7  C   UNL     1       2.470   4.265  21.253  0.00  0.00    +0.000 A 
ATOM      8  C   UNL     1       1.460   3.333  21.498  0.00  0.00    +0.000 A 
ATOM      9  C   UNL     1       0.786   2.746  20.434  0.00  0.00    +0.000 A 
ATOM     10  C   UNL     1       1.117   3.101  19.129  0.00  0.00    +0.000 A 
ATOM     11  F   UNL     1       0.459   2.547  18.106  0.00  0.00    +0.000 F 
ATOM     12  C   UNL     1       2.124   4.030  18.873  0.00  0.00    +0.000 A 
ENDBRANCH   4   6
BRANCH   3  13
ATOM     13  C   UNL     1       2.577   7.560  18.836  0.00  0.00    +0.000 A 
ATOM     14  C   UNL     1       1.986   7.744  20.092  0.00  0.00    +0.000 A 
ATOM     15  C   UNL     1       1.008   8.719  20.304  0.00  0.00    +0.000 A 
ATOM     16  C   UNL     1       0.567   9.526  19.249  0.00  0.00    +0.000 A 
ATOM     17  C   UNL     1       1.131   9.348  17.982  0.00  0.00    +0.000 A 
ATOM     18  C   UNL     1       2.133   8.382  17.790  0.00  0.00    +0.000 A 
BRANCH  16  19
ATOM     19  C   UNL     1      -0.459  10.560  19.573  0.00  0.00    +0.000 C 
ATOM     20  O   UNL     1      -1.550  10.581  19.031  0.00  0.00    +0.000 OA
BRANCH  19  21
ATOM     21  O   UNL     1      -0.074  11.508  20.455  0.00  0.00    +0.000 OA
ATOM     22  H   UNL     1      -0.672  12.261  20.584  0.00  0.00    +0.000 HD
ENDBRANCH  19  21
ENDBRANCH  16  19
ENDBRANCH   3  13
BRANCH   1  24
ATOM     23  C   UNL     1       7.368   6.978  16.992  0.00  0.00    +0.000 C 
ATOM     24  C   UNL     1       6.572   5.670  16.902  0.00  0.00    +0.000 C 
ATOM     25  C   UNL     1       6.113   5.442  15.453  0.00  0.00    +0.000 C 
ATOM     26  C   UNL     1       7.471   4.497  17.320  0.00  0.00    +0.000 C 
ENDBRANCH   1  24
TORSDOF 5
ENDMDL
MODEL 5
REMARK VINA RESULT:      -8.3      0.915      1.858
REMARK  Name = 
REMARK  8 active torsions:
REMARK  status: ('A' for Active; 'I' for Inactive)
REMARK    1  A    between atoms: C_1  and  C_2
REMARK    2  A    between atoms: C_2  and  C_3
REMARK    3  A    between atoms: C_2  and  C_4
REMARK    4  A    between atoms: C_2  and  C_5
REMARK    5  A    between atoms: N_7  and  C_8
REMARK    6  A    between atoms: C_11  and  C_12
REMARK    7  A    between atoms: C_12  and  O_14
REMARK    8  A    between atoms: C_17  and  C_18
REMARK                            x       y       z     vdW  Elec       q    Type
REMARK                         _______ _______ _______ _____ _____    ______ ____
ROOT
ATOM      1  C   UNL     1       5.305   5.836  17.781  0.00  0.00    +0.000 C 
ATOM      2  N   UNL     1       4.389   6.747  17.631  0.00  0.00    +0.000 NA
ATOM      3  N   UNL     1       3.527   6.628  18.674  0.00  0.00    +0.000 N 
ATOM      4  C   UNL     1       3.934   5.623  19.656  0.00  0.00    +0.000 C 
ATOM      5  C   UNL     1       5.134   4.960  18.988  0.00  0.00    +0.000 C 
ENDROOT
BRANCH   4   6
ATOM      6  C   UNL     1       2.822   4.628  19.944  0.00  0.00    +0.000 A 
ATOM      7  C   UNL     1       2.478   4.286  21.267  0.00  0.00    +0.000 A 
ATOM      8  C   UNL     1       1.479   3.346  21.526  0.00  0.00    +0.000 A 
ATOM      9  C   UNL     1       0.800   2.747  20.473  0.00  0.00    +0.000 A 
ATOM     10  C   UNL     1       1.116   3.098  19.163  0.00  0.00    +0.000 A 
ATOM     11  F   UNL     1       0.452   2.531  18.150  0.00  0.00    +0.000 F 
ATOM     12  C   UNL     1       2.111   4.034  18.892  0.00  0.00    +0.000 A 
ENDBRANCH   4   6
BRANCH   3  13
ATOM     13  C   UNL     1       2.529   7.578  18.858  0.00  0.00    +0.000 A 
ATOM     14  C   UNL     1       1.973   7.767  20.129  0.00  0.00    +0.000 A 
ATOM     15  C   UNL     1       0.992   8.736  20.362  0.00  0.00    +0.000 A 
ATOM     16  C   UNL     1       0.514   9.530  19.313  0.00  0.00    +0.000 A 
ATOM     17  C   UNL     1       1.043   9.346  18.032  0.00  0.00    +0.000 A 
ATOM     18  C   UNL     1       2.048   8.388  17.819  0.00  0.00    +0.000 A 
BRANCH  16  19
ATOM     19  C   UNL     1      -0.512  10.557  19.658  0.00  0.00    +0.000 C 
ATOM     20  O   UNL     1      -0.788  10.833  20.811  0.00  0.00    +0.000 OA
BRANCH  19  21
ATOM     21  O   UNL     1      -1.159  11.112  18.609  0.00  0.00    +0.000 OA
ATOM     22  H   UNL     1      -2.027  11.508  18.784  0.00  0.00    +0.000 HD
ENDBRANCH  19  21
ENDBRANCH  16  19
ENDBRANCH   3  13
BRANCH   1  24
ATOM     23  C   UNL     1       5.972   5.546  15.420  0.00  0.00    +0.000 C 
ATOM     24  C   UNL     1       6.502   5.722  16.848  0.00  0.00    +0.000 C 
ATOM     25  C   UNL     1       7.353   4.504  17.238  0.00  0.00    +0.000 C 
ATOM     26  C   UNL     1       7.386   6.976  16.911  0.00  0.00    +0.000 C 
ENDBRANCH   1  24
TORSDOF 5
ENDMDL
MODEL 6
REMARK VINA RESULT:      -8.3      0.931      1.688
REMARK  Name = 
REMARK  8 active torsions:
REMARK  status: ('A' for Active; 'I' for Inactive)
REMARK    1  A    between atoms: C_1  and  C_2
REMARK    2  A    between atoms: C_2  and  C_3
REMARK    3  A    between atoms: C_2  and  C_4
REMARK    4  A    between atoms: C_2  and  C_5
REMARK    5  A    between atoms: N_7  and  C_8
REMARK    6  A    between atoms: C_11  and  C_12
REMARK    7  A    between atoms: C_12  and  O_14
REMARK    8  A    between atoms: C_17  and  C_18
REMARK                            x       y       z     vdW  Elec       q    Type
REMARK                         _______ _______ _______ _____ _____    ______ ____
ROOT
ATOM      1  C   UNL     1       5.287   5.830  17.779  0.00  0.00    +0.000 C 
ATOM      2  N   UNL     1       4.376   6.751  17.656  0.00  0.00    +0.000 NA
ATOM      3  N   UNL     1       3.526   6.619  18.707  0.00  0.00    +0.000 N 
ATOM      4  C   UNL     1       3.936   5.594  19.666  0.00  0.00    +0.000 C 
ATOM      5  C   UNL     1       5.123   4.933  18.972  0.00  0.00    +0.000 C 
ENDROOT
BRANCH   4   6
ATOM      6  C   UNL     1       2.821   4.602  19.950  0.00  0.00    +0.000 A 
ATOM      7  C   UNL     1       2.476   4.254  21.271  0.00  0.00    +0.000 A 
ATOM      8  C   UNL     1       1.473   3.317  21.526  0.00  0.00    +0.000 A 
ATOM      9  C   UNL     1       0.789   2.728  20.470  0.00  0.00    +0.000 A 
ATOM     10  C   UNL     1       1.105   3.085  19.162  0.00  0.00    +0.000 A 
ATOM     11  F   UNL     1       0.438   2.527  18.146  0.00  0.00    +0.000 F 
ATOM     12  C   UNL     1       2.105   4.018  18.895  0.00  0.00    +0.000 A 
ENDBRANCH   4   6
BRANCH   3  13
ATOM     13  C   UNL     1       2.538   7.573  18.921  0.00  0.00    +0.000 A 
ATOM     14  C   UNL     1       2.096   8.370  17.858  0.00  0.00    +0.000 A 
ATOM     15  C   UNL     1       1.081   9.316  18.024  0.00  0.00    +0.000 A 
ATOM     16  C   UNL     1       0.494   9.516  19.280  0.00  0.00    +0.000 A 
ATOM     17  C   UNL     1       0.931   8.743  20.359  0.00  0.00    +0.000 A 
ATOM     18  C   UNL     1       1.933   7.776  20.170  0.00  0.00    +0.000 A 
BRANCH  16  19
ATOM     19  C   UNL     1      -0.601  10.526  19.359  0.00  0.00    +0.000 C 
ATOM     20  O   UNL     1      -1.569  10.489  18.621  0.00  0.00    +0.000 OA
BRANCH  19  21
ATOM     21  O   UNL     1      -0.416  11.519  20.256  0.00  0.00    +0.000 OA
ATOM     22  H   UNL     1       0.338  12.113  20.109  0.00  0.00    +0.000 HD
ENDBRANCH  19  21
ENDBRANCH  16  19
ENDBRANCH   3  13
BRANCH   1  24
ATOM     23  C   UNL     1       5.922   5.564  15.406  0.00  0.00    +0.000 C 
ATOM     24  C   UNL     1       6.471   5.723  16.829  0.00  0.00    +0.000 C 
ATOM     25  C   UNL     1       7.324   4.499  17.195  0.00  0.00    +0.000 C 
ATOM     26  C   UNL     1       7.359   6.974  16.895  0.00  0.00    +0.000 C 
ENDBRANCH   1  24
TORSDOF 5
ENDMDL
MODEL 7
REMARK VINA RESULT:      -8.3      0.939      1.341
REMARK  Name = 
REMARK  8 active torsions:
REMARK  status: ('A' for Active; 'I' for Inactive)
REMARK    1  A    between atoms: C_1  and  C_2
REMARK    2  A    between atoms: C_2  and  C_3
REMARK    3  A    between atoms: C_2  and  C_4
REMARK    4  A    between atoms: C_2  and  C_5
REMARK    5  A    between atoms: N_7  and  C_8
REMARK    6  A    between atoms: C_11  and  C_12
REMARK    7  A    between atoms: C_12  and  O_14
REMARK    8  A    between atoms: C_17  and  C_18
REMARK                            x       y       z     vdW  Elec       q    Type
REMARK                         _______ _______ _______ _____ _____    ______ ____
ROOT
ATOM      1  C   UNL     1       5.391   5.796  17.824  0.00  0.00    +0.000 C 
ATOM      2  N   UNL     1       4.490   6.722  17.664  0.00  0.00    +0.000 NA
ATOM      3  N   UNL     1       3.608   6.607  18.691  0.00  0.00    +0.000 N 
ATOM      4  C   UNL     1       3.983   5.589  19.672  0.00  0.00    +0.000 C 
ATOM      5  C   UNL     1       5.185   4.914  19.021  0.00  0.00    +0.000 C 
ENDROOT
BRANCH   4   6
ATOM      6  C   UNL     1       2.852   4.609  19.933  0.00  0.00    +0.000 A 
ATOM      7  C   UNL     1       2.460   4.283  21.247  0.00  0.00    +0.000 A 
ATOM      8  C   UNL     1       1.444   3.356  21.482  0.00  0.00    +0.000 A 
ATOM      9  C   UNL     1       0.793   2.754  20.412  0.00  0.00    +0.000 A 
ATOM     10  C   UNL     1       1.156   3.088  19.110  0.00  0.00    +0.000 A 
ATOM     11  F   UNL     1       0.520   2.518  18.081  0.00  0.00    +0.000 F 
ATOM     12  C   UNL     1       2.169   4.012  18.864  0.00  0.00    +0.000 A 
ENDBRANCH   4   6
BRANCH   3  13
ATOM     13  C   UNL     1       2.621   7.570  18.865  0.00  0.00    +0.000 A 
ATOM     14  C   UNL     1       2.234   8.374  17.786  0.00  0.00    +0.000 A 
ATOM     15  C   UNL     1       1.222   9.330  17.912  0.00  0.00    +0.000 A 
ATOM     16  C   UNL     1       0.583   9.532  19.141  0.00  0.00    +0.000 A 
ATOM     17  C   UNL     1       0.965   8.751  20.236  0.00  0.00    +0.000 A 
ATOM     18  C   UNL     1       1.965   7.775  20.087  0.00  0.00    +0.000 A 
BRANCH  16  19
ATOM     19  C   UNL     1      -0.505  10.552  19.176  0.00  0.00    +0.000 C 
ATOM     20  O   UNL     1      -0.333  11.665  19.640  0.00  0.00    +0.000 OA
BRANCH  19  21
ATOM     21  O   UNL     1      -1.709  10.138  18.724  0.00  0.00    +0.000 OA
ATOM     22  H   UNL     1      -2.453  10.174  19.347  0.00  0.00    +0.000 HD
ENDBRANCH  19  21
ENDBRANCH  16  19
ENDBRANCH   3  13
BRANCH   1  24
ATOM     23  C   UNL     1       7.459   4.505  17.420  0.00  0.00    +0.000 C 
ATOM     24  C   UNL     1       6.602   5.671  16.911  0.00  0.00    +0.000 C 
ATOM     25  C   UNL     1       7.421   6.971  16.951  0.00  0.00    +0.000 C 
ATOM     26  C   UNL     1       6.186   5.400  15.458  0.00  0.00    +0.000 C 
ENDBRANCH   1  24
TORSDOF 5
ENDMDL
MODEL 8
REMARK VINA RESULT:      -8.3      2.128      4.679
REMARK  Name = 
REMARK  8 active torsions:
REMARK  status: ('A' for Active; 'I' for Inactive)
REMARK    1  A    between atoms: C_1  and  C_2
REMARK    2  A    between atoms: C_2  and  C_3
REMARK    3  A    between atoms: C_2  and  C_4
REMARK    4  A    between atoms: C_2  and  C_5
REMARK    5  A    between atoms: N_7  and  C_8
REMARK    6  A    between atoms: C_11  and  C_12
REMARK    7  A    between atoms: C_12  and  O_14
REMARK    8  A    between atoms: C_17  and  C_18
REMARK                            x       y       z     vdW  Elec       q    Type
REMARK                         _______ _______ _______ _____ _____    ______ ____
ROOT
ATOM      1  C   UNL     1       2.615   3.759  18.946  0.00  0.00    +0.000 C 
ATOM      2  N   UNL     1       2.139   4.899  19.354  0.00  0.00    +0.000 NA
ATOM      3  N   UNL     1       2.819   5.877  18.700  0.00  0.00    +0.000 N 
ATOM      4  C   UNL     1       3.763   5.368  17.706  0.00  0.00    +0.000 C 
ATOM      5  C   UNL     1       3.727   3.861  17.942  0.00  0.00    +0.000 C 
ENDROOT
BRANCH   4   6
ATOM      6  C   UNL     1       5.157   5.939  17.903  0.00  0.00    +0.000 A 
ATOM      7  C   UNL     1       5.649   6.960  17.065  0.00  0.00    +0.000 A 
ATOM      8  C   UNL     1       6.942   7.459  17.227  0.00  0.00    +0.000 A 
ATOM      9  C   UNL     1       7.756   6.959  18.236  0.00  0.00    +0.000 A 
ATOM     10  C   UNL     1       7.270   5.969  19.085  0.00  0.00    +0.000 A 
ATOM     11  F   UNL     1       8.050   5.499  20.064  0.00  0.00    +0.000 F 
ATOM     12  C   UNL     1       5.981   5.463  18.932  0.00  0.00    +0.000 A 
ENDBRANCH   4   6
BRANCH   3  13
ATOM     13  C   UNL     1       2.413   7.201  18.823  0.00  0.00    +0.000 A 
ATOM     14  C   UNL     1       2.464   8.052  17.712  0.00  0.00    +0.000 A 
ATOM     15  C   UNL     1       2.033   9.379  17.787  0.00  0.00    +0.000 A 
ATOM     16  C   UNL     1       1.564   9.908  18.996  0.00  0.00    +0.000 A 
ATOM     17  C   UNL     1       1.521   9.081  20.122  0.00  0.00    +0.000 A 
ATOM     18  C   UNL     1       1.931   7.741  20.025  0.00  0.00    +0.000 A 
BRANCH  16  19
ATOM     19  C   UNL     1       1.098  11.325  18.977  0.00  0.00    +0.000 C 
ATOM     20  O   UNL     1       1.559  12.167  19.726  0.00  0.00    +0.000 OA
BRANCH  19  21
ATOM     21  O   UNL     1       0.087  11.596  18.123  0.00  0.00    +0.000 OA
ATOM     22  H   UNL     1      -0.772  11.825  18.512  0.00  0.00    +0.000 HD
ENDBRANCH  19  21
ENDBRANCH  16  19
ENDBRANCH   3  13
BRANCH   1  24
ATOM     23  C   UNL     1       3.014   1.321  18.981  0.00  0.00    +0.000 C 
ATOM     24  C   UNL     1       2.034   2.426  19.394  0.00  0.00    +0.000 C 
ATOM     25  C   UNL     1       0.676   2.194  18.712  0.00  0.00    +0.000 C 
ATOM     26  C   UNL     1       1.830   2.383  20.915  0.00  0.00    +0.000 C 
ENDBRANCH   1  24
TORSDOF 5
ENDMDL
MODEL 9
REMARK VINA RESULT:      -8.2      2.130      4.751
REMARK  Name = 
REMARK  8 active torsions:
REMARK  status: ('A' for Active; 'I' for Inactive)
REMARK    1  A    between atoms: C_1  and  C_2
REMARK    2  A    between atoms: C_2  and  C_3
REMARK    3  A    between atoms: C_2  and  C_4
REMARK    4  A    between atoms: C_2  and  C_5
REMARK    5  A    between atoms: N_7  and  C_8
REMARK    6  A    between atoms: C_11  and  C_12
REMARK    7  A    between atoms: C_12  and  O_14
REMARK    8  A    between atoms: C_17  and  C_18
REMARK                            x       y       z     vdW  Elec       q    Type
REMARK                         _______ _______ _______ _____ _____    ______ ____
ROOT
ATOM      1  C   UNL     1       2.623   3.763  18.915  0.00  0.00    +0.000 C 
ATOM      2  N   UNL     1       2.136   4.905  19.301  0.00  0.00    +0.000 NA
ATOM      3  N   UNL     1       2.819   5.877  18.643  0.00  0.00    +0.000 N 
ATOM      4  C   UNL     1       3.781   5.360  17.671  0.00  0.00    +0.000 C 
ATOM      5  C   UNL     1       3.749   3.857  17.926  0.00  0.00    +0.000 C 
ENDROOT
BRANCH   4   6
ATOM      6  C   UNL     1       5.168   5.942  17.879  0.00  0.00    +0.000 A 
ATOM      7  C   UNL     1       5.655   6.976  17.054  0.00  0.00    +0.000 A 
ATOM      8  C   UNL     1       6.944   7.484  17.228  0.00  0.00    +0.000 A 
ATOM      9  C   UNL     1       7.757   6.982  18.236  0.00  0.00    +0.000 A 
ATOM     10  C   UNL     1       7.276   5.979  19.073  0.00  0.00    +0.000 A 
ATOM     11  F   UNL     1       8.054   5.505  20.051  0.00  0.00    +0.000 F 
ATOM     12  C   UNL     1       5.992   5.463  18.908  0.00  0.00    +0.000 A 
ENDBRANCH   4   6
BRANCH   3  13
ATOM     13  C   UNL     1       2.405   7.201  18.743  0.00  0.00    +0.000 A 
ATOM     14  C   UNL     1       1.920   7.690  19.962  0.00  0.00    +0.000 A 
ATOM     15  C   UNL     1       1.527   9.023  20.111  0.00  0.00    +0.000 A 
ATOM     16  C   UNL     1       1.580   9.906  19.026  0.00  0.00    +0.000 A 
ATOM     17  C   UNL     1       2.045   9.434  17.795  0.00  0.00    +0.000 A 
ATOM     18  C   UNL     1       2.463   8.100  17.667  0.00  0.00    +0.000 A 
BRANCH  16  19
ATOM     19  C   UNL     1       1.168  11.317  19.283  0.00  0.00    +0.000 C 
ATOM     20  O   UNL     1       1.160  11.794  20.404  0.00  0.00    +0.000 OA
BRANCH  19  21
ATOM     21  O   UNL     1       0.741  12.007  18.203  0.00  0.00    +0.000 OA
ATOM     22  H   UNL     1       1.417  12.306  17.574  0.00  0.00    +0.000 HD
ENDBRANCH  19  21
ENDBRANCH  16  19
ENDBRANCH   3  13
BRANCH   1  24
ATOM     23  C   UNL     1       1.900   2.479  20.898  0.00  0.00    +0.000 C 
ATOM     24  C   UNL     1       2.042   2.432  19.372  0.00  0.00    +0.000 C 
ATOM     25  C   UNL     1       2.987   1.287  18.975  0.00  0.00    +0.000 C 
ATOM     26  C   UNL     1       0.667   2.172  18.740  0.00  0.00    +0.000 C 
ENDBRANCH   1  24
TORSDOF 5
ENDMDL
