MODEL 1
REMARK VINA RESULT:      -7.7      0.000      0.000
REMARK  Name = 
REMARK  7 active torsions:
REMARK  status: ('A' for Active; 'I' for Inactive)
REMARK    1  A    between atoms: C_1  and  C_2
REMARK    2  A    between atoms: C_2  and  C_18
REMARK    3  A    between atoms: N_3  and  N_4
REMARK    4  A    between atoms: C_5  and  C_7
REMARK    5  A    between atoms: C_7  and  N_8
REMARK    6  A    between atoms: C_9  and  C_11
REMARK    7  A    between atoms: C_12  and  C_13
REMARK                            x       y       z     vdW  Elec       q    Type
REMARK                         _______ _______ _______ _____ _____    ______ ____
ROOT
ATOM      1  N   UNL     1       5.661   4.160  18.543  0.00  0.00    +0.000 N 
ATOM      2  C   UNL     1       6.698   4.893  19.107  0.00  0.00    +0.000 C 
ATOM      3  O   UNL     1       6.910   5.017  20.314  0.00  0.00    +0.000 OA
ATOM      4  H   UNL     1       5.633   4.003  17.540  0.00  0.00    +0.000 HD
ENDROOT
BRANCH   1   7
ATOM      5  C   UNL     1       2.836   3.378  20.766  0.00  0.00    +0.000 C 
ATOM      6  C   UNL     1       3.679   4.132  19.752  0.00  0.00    +0.000 C 
ATOM      7  N   UNL     1       4.760   3.525  19.347  0.00  0.00    +0.000 NA
BRANCH   6   8
ATOM      8  C   UNL     1       3.151   5.458  19.288  0.00  0.00    +0.000 A 
ATOM      9  C   UNL     1       2.479   6.322  20.163  0.00  0.00    +0.000 A 
ATOM     10  C   UNL     1       2.040   7.578  19.719  0.00  0.00    +0.000 A 
ATOM     11  C   UNL     1       2.287   7.981  18.409  0.00  0.00    +0.000 A 
ATOM     12 CL   UNL     1       1.817   9.547  17.879  0.00  0.00    +0.000 Cl
ATOM     13  C   UNL     1       2.909   7.112  17.522  0.00  0.00    +0.000 A 
ATOM     14  C   UNL     1       3.297   5.842  17.950  0.00  0.00    +0.000 A 
ENDBRANCH   6   8
ENDBRANCH   1   7
BRANCH   2  15
ATOM     15  C   UNL     1       7.688   5.438  18.075  0.00  0.00    +0.000 C 
BRANCH  15  16
ATOM     16  N   UNL     1       8.014   6.834  18.332  0.00  0.00    +0.000 N 
ATOM     17  C   UNL     1       7.499   7.842  17.563  0.00  0.00    +0.000 C 
ATOM     18  O   UNL     1       6.730   7.635  16.627  0.00  0.00    +0.000 OA
ATOM     19  H   UNL     1       8.730   7.029  19.020  0.00  0.00    +0.000 HD
BRANCH  17  20
ATOM     20  C   UNL     1       7.966   9.202  17.929  0.00  0.00    +0.000 C 
ATOM     21  C   UNL     1       8.930   9.338  18.856  0.00  0.00    +0.000 C 
BRANCH  21  22
ATOM     22  C   UNL     1       9.429  10.613  19.240  0.00  0.00    +0.000 A 
ATOM     23  C   UNL     1       9.692  11.085  20.525  0.00  0.00    +0.000 A 
ATOM     24  C   UNL     1      10.187  12.405  20.419  0.00  0.00    +0.000 A 
ATOM     25  C   UNL     1      10.205  12.687  19.078  0.00  0.00    +0.000 A 
ATOM     26  O   UNL     1       9.751  11.627  18.363  0.00  0.00    +0.000 OA
ENDBRANCH  21  22
ENDBRANCH  17  20
ENDBRANCH  15  16
ENDBRANCH   2  15
TORSDOF 6
ENDMDL
MODEL 2
REMARK VINA RESULT:      -7.7      1.843      2.250
REMARK  Name = 
REMARK  7 active torsions:
REMARK  status: ('A' for Active; 'I' for Inactive)
REMARK    1  A    between atoms: C_1  and  C_2
REMARK    2  A    between atoms: C_2  and  C_18
REMARK    3  A    between atoms: N_3  and  N_4
REMARK    4  A    between atoms: C_5  and  C_7
REMARK    5  A    between atoms: C_7  and  N_8
REMARK    6  A    between atoms: C_9  and  C_11
REMARK    7  A    between atoms: C_12  and  C_13
REMARK                            x       y       z     vdW  Elec       q    Type
REMARK                         _______ _______ _______ _____ _____    ______ ____
ROOT
ATOM      1  N   UNL     1       4.408   5.125  18.483  0.00  0.00    +0.000 N 
ATOM      2  C   UNL     1       4.406   4.618  17.189  0.00  0.00    +0.000 C 
ATOM      3  O   UNL     1       3.710   3.684  16.791  0.00  0.00    +0.000 OA
ATOM      4  H   UNL     1       4.915   5.979  18.697  0.00  0.00    +0.000 HD
ENDROOT
BRANCH   1   7
ATOM      5  C   UNL     1       1.973   4.574  21.185  0.00  0.00    +0.000 C 
ATOM      6  C   UNL     1       2.687   5.264  20.037  0.00  0.00    +0.000 C 
ATOM      7  N   UNL     1       3.610   4.563  19.436  0.00  0.00    +0.000 NA
BRANCH   6   8
ATOM      8  C   UNL     1       2.221   6.646  19.684  0.00  0.00    +0.000 A 
ATOM      9  C   UNL     1       1.642   7.488  20.644  0.00  0.00    +0.000 A 
ATOM     10  C   UNL     1       1.261   8.793  20.303  0.00  0.00    +0.000 A 
ATOM     11  C   UNL     1       1.472   9.267  19.010  0.00  0.00    +0.000 A 
ATOM     12 CL   UNL     1       1.074  10.890  18.606  0.00  0.00    +0.000 Cl
ATOM     13  C   UNL     1       1.999   8.425  18.041  0.00  0.00    +0.000 A 
ATOM     14  C   UNL     1       2.328   7.109  18.368  0.00  0.00    +0.000 A 
ENDBRANCH   6   8
ENDBRANCH   1   7
BRANCH   2  15
ATOM     15  C   UNL     1       5.259   5.435  16.216  0.00  0.00    +0.000 C 
BRANCH  15  16
ATOM     16  N   UNL     1       6.071   6.422  16.916  0.00  0.00    +0.000 N 
ATOM     17  C   UNL     1       7.304   6.106  17.419  0.00  0.00    +0.000 C 
ATOM     18  O   UNL     1       7.801   4.988  17.302  0.00  0.00    +0.000 OA
ATOM     19  H   UNL     1       5.644   7.315  17.127  0.00  0.00    +0.000 HD
BRANCH  17  20
ATOM     20  C   UNL     1       7.980   7.211  18.142  0.00  0.00    +0.000 C 
ATOM     21  C   UNL     1       7.918   8.457  17.643  0.00  0.00    +0.000 C 
BRANCH  21  22
ATOM     22  C   UNL     1       8.533   9.560  18.296  0.00  0.00    +0.000 A 
ATOM     23  C   UNL     1       8.621  10.881  17.861  0.00  0.00    +0.000 A 
ATOM     24  C   UNL     1       9.312  11.627  18.844  0.00  0.00    +0.000 A 
ATOM     25  C   UNL     1       9.620  10.733  19.837  0.00  0.00    +0.000 A 
ATOM     26  O   UNL     1       9.164   9.495  19.521  0.00  0.00    +0.000 OA
ENDBRANCH  21  22
ENDBRANCH  17  20
ENDBRANCH  15  16
ENDBRANCH   2  15
TORSDOF 6
ENDMDL
MODEL 3
REMARK VINA RESULT:      -7.6      0.920      1.096
REMARK  Name = 
REMARK  7 active torsions:
REMARK  status: ('A' for Active; 'I' for Inactive)
REMARK    1  A    between atoms: C_1  and  C_2
REMARK    2  A    between atoms: C_2  and  C_18
REMARK    3  A    between atoms: N_3  and  N_4
REMARK    4  A    between atoms: C_5  and  C_7
REMARK    5  A    between atoms: C_7  and  N_8
REMARK    6  A    between atoms: C_9  and  C_11
REMARK    7  A    between atoms: C_12  and  C_13
REMARK                            x       y       z     vdW  Elec       q    Type
REMARK                         _______ _______ _______ _____ _____    ______ ____
ROOT
ATOM      1  N   UNL     1       4.905   3.441  18.345  0.00  0.00    +0.000 N 
ATOM      2  C   UNL     1       5.814   4.356  18.863  0.00  0.00    +0.000 C 
ATOM      3  O   UNL     1       5.869   4.718  20.039  0.00  0.00    +0.000 OA
ATOM      4  H   UNL     1       5.009   3.100  17.394  0.00  0.00    +0.000 HD
ENDROOT
BRANCH   1   7
ATOM      5  C   UNL     1       2.105   2.919  20.672  0.00  0.00    +0.000 C 
ATOM      6  C   UNL     1       3.001   3.613  19.663  0.00  0.00    +0.000 C 
ATOM      7  N   UNL     1       3.959   2.887  19.157  0.00  0.00    +0.000 NA
BRANCH   6   8
ATOM      8  C   UNL     1       2.656   5.033  19.318  0.00  0.00    +0.000 A 
ATOM      9  C   UNL     1       2.437   5.994  20.315  0.00  0.00    +0.000 A 
ATOM     10  C   UNL     1       2.167   7.325  19.968  0.00  0.00    +0.000 A 
ATOM     11  C   UNL     1       2.131   7.704  18.628  0.00  0.00    +0.000 A 
ATOM     12 CL   UNL     1       1.873   9.348  18.198  0.00  0.00    +0.000 Cl
ATOM     13  C   UNL     1       2.298   6.750  17.633  0.00  0.00    +0.000 A 
ATOM     14  C   UNL     1       2.514   5.415  17.979  0.00  0.00    +0.000 A 
ENDBRANCH   6   8
ENDBRANCH   1   7
BRANCH   2  15
ATOM     15  C   UNL     1       6.882   4.788  17.856  0.00  0.00    +0.000 C 
BRANCH  15  16
ATOM     16  N   UNL     1       7.674   5.902  18.361  0.00  0.00    +0.000 N 
ATOM     17  C   UNL     1       7.576   7.154  17.815  0.00  0.00    +0.000 C 
ATOM     18  O   UNL     1       6.816   7.414  16.885  0.00  0.00    +0.000 OA
ATOM     19  H   UNL     1       8.388   5.696  19.047  0.00  0.00    +0.000 HD
BRANCH  17  20
ATOM     20  C   UNL     1       8.482   8.163  18.415  0.00  0.00    +0.000 C 
ATOM     21  C   UNL     1       8.326   9.459  18.096  0.00  0.00    +0.000 C 
BRANCH  21  22
ATOM     22  C   UNL     1       9.154  10.475  18.648  0.00  0.00    +0.000 A 
ATOM     23  C   UNL     1      10.011  11.347  17.979  0.00  0.00    +0.000 A 
ATOM     24  C   UNL     1      10.619  12.191  18.936  0.00  0.00    +0.000 A 
ATOM     25  C   UNL     1      10.113  11.801  20.149  0.00  0.00    +0.000 A 
ATOM     26  O   UNL     1       9.239  10.775  19.991  0.00  0.00    +0.000 OA
ENDBRANCH  21  22
ENDBRANCH  17  20
ENDBRANCH  15  16
ENDBRANCH   2  15
TORSDOF 6
ENDMDL
MODEL 4
REMARK VINA RESULT:      -7.6      3.564      6.185
REMARK  Name = 
REMARK  7 active torsions:
REMARK  status: ('A' for Active; 'I' for Inactive)
REMARK    1  A    between atoms: C_1  and  C_2
REMARK    2  A    between atoms: C_2  and  C_18
REMARK    3  A    between atoms: N_3  and  N_4
REMARK    4  A    between atoms: C_5  and  C_7
REMARK    5  A    between atoms: C_7  and  N_8
REMARK    6  A    between atoms: C_9  and  C_11
REMARK    7  A    between atoms: C_12  and  C_13
REMARK                            x       y       z     vdW  Elec       q    Type
REMARK                         _______ _______ _______ _____ _____    ______ ____
ROOT
ATOM      1  N   UNL     1       4.935   5.800  18.660  0.00  0.00    +0.000 N 
ATOM      2  C   UNL     1       6.296   5.872  18.936  0.00  0.00    +0.000 C 
ATOM      3  O   UNL     1       6.869   5.286  19.854  0.00  0.00    +0.000 OA
ATOM      4  H   UNL     1       4.563   6.209  17.808  0.00  0.00    +0.000 HD
ENDROOT
BRANCH   1   7
ATOM      5  C   UNL     1       2.274   4.675  20.938  0.00  0.00    +0.000 C 
ATOM      6  C   UNL     1       3.015   5.550  19.943  0.00  0.00    +0.000 C 
ATOM      7  N   UNL     1       4.118   5.051  19.456  0.00  0.00    +0.000 NA
BRANCH   6   8
ATOM      8  C   UNL     1       2.375   6.860  19.587  0.00  0.00    +0.000 A 
ATOM      9  C   UNL     1       1.736   7.646  20.556  0.00  0.00    +0.000 A 
ATOM     10  C   UNL     1       1.190   8.891  20.210  0.00  0.00    +0.000 A 
ATOM     11  C   UNL     1       1.296   9.361  18.903  0.00  0.00    +0.000 A 
ATOM     12 CL   UNL     1       0.694  10.917  18.489  0.00  0.00    +0.000 Cl
ATOM     13  C   UNL     1       1.884   8.568  17.927  0.00  0.00    +0.000 A 
ATOM     14  C   UNL     1       2.379   7.307  18.261  0.00  0.00    +0.000 A 
ENDBRANCH   6   8
ENDBRANCH   1   7
BRANCH   2  15
ATOM     15  C   UNL     1       7.088   6.648  17.881  0.00  0.00    +0.000 C 
BRANCH  15  16
ATOM     16  N   UNL     1       6.848   6.127  16.542  0.00  0.00    +0.000 N 
ATOM     17  C   UNL     1       7.367   4.927  16.138  0.00  0.00    +0.000 C 
ATOM     18  O   UNL     1       8.050   4.218  16.875  0.00  0.00    +0.000 OA
ATOM     19  H   UNL     1       6.387   6.736  15.878  0.00  0.00    +0.000 HD
BRANCH  17  20
ATOM     20  C   UNL     1       7.066   4.563  14.732  0.00  0.00    +0.000 C 
ATOM     21  C   UNL     1       5.943   3.879  14.456  0.00  0.00    +0.000 C 
BRANCH  21  22
ATOM     22  C   UNL     1       5.592   3.513  13.127  0.00  0.00    +0.000 A 
ATOM     23  C   UNL     1       6.410   2.971  12.138  0.00  0.00    +0.000 A 
ATOM     24  C   UNL     1       5.626   2.759  10.981  0.00  0.00    +0.000 A 
ATOM     25  C   UNL     1       4.363   3.182  11.308  0.00  0.00    +0.000 A 
ATOM     26  O   UNL     1       4.331   3.638  12.585  0.00  0.00    +0.000 OA
ENDBRANCH  21  22
ENDBRANCH  17  20
ENDBRANCH  15  16
ENDBRANCH   2  15
TORSDOF 6
ENDMDL
MODEL 5
REMARK VINA RESULT:      -7.5      0.604      1.183
REMARK  Name = 
REMARK  7 active torsions:
REMARK  status: ('A' for Active; 'I' for Inactive)
REMARK    1  A    between atoms: C_1  and  C_2
REMARK    2  A    between atoms: C_2  and  C_18
REMARK    3  A    between atoms: N_3  and  N_4
REMARK    4  A    between atoms: C_5  and  C_7
REMARK    5  A    between atoms: C_7  and  N_8
REMARK    6  A    between atoms: C_9  and  C_11
REMARK    7  A    between atoms: C_12  and  C_13
REMARK                            x       y       z     vdW  Elec       q    Type
REMARK                         _______ _______ _______ _____ _____    ______ ____
ROOT
ATOM      1  N   UNL     1       5.806   4.131  18.369  0.00  0.00    +0.000 N 
ATOM      2  C   UNL     1       6.630   5.045  19.013  0.00  0.00    +0.000 C 
ATOM      3  O   UNL     1       6.648   5.258  20.225  0.00  0.00    +0.000 OA
ATOM      4  H   UNL     1       5.944   3.922  17.384  0.00  0.00    +0.000 HD
ENDROOT
BRANCH   1   7
ATOM      5  C   UNL     1       2.959   3.073  20.445  0.00  0.00    +0.000 C 
ATOM      6  C   UNL     1       3.801   3.940  19.526  0.00  0.00    +0.000 C 
ATOM      7  N   UNL     1       4.906   3.400  19.089  0.00  0.00    +0.000 NA
BRANCH   6   8
ATOM      8  C   UNL     1       3.249   5.292  19.179  0.00  0.00    +0.000 A 
ATOM      9  C   UNL     1       3.278   5.776  17.863  0.00  0.00    +0.000 A 
ATOM     10  C   UNL     1       2.710   7.020  17.554  0.00  0.00    +0.000 A 
ATOM     11  C   UNL     1       2.098   7.775  18.551  0.00  0.00    +0.000 A 
ATOM     12 CL   UNL     1       1.335   9.266  18.165  0.00  0.00    +0.000 Cl
ATOM     13  C   UNL     1       2.107   7.326  19.865  0.00  0.00    +0.000 A 
ATOM     14  C   UNL     1       2.720   6.112  20.181  0.00  0.00    +0.000 A 
ENDBRANCH   6   8
ENDBRANCH   1   7
BRANCH   2  15
ATOM     15  C   UNL     1       7.663   5.689  18.085  0.00  0.00    +0.000 C 
BRANCH  15  16
ATOM     16  N   UNL     1       8.285   6.853  18.704  0.00  0.00    +0.000 N 
ATOM     17  C   UNL     1       8.181   8.099  18.147  0.00  0.00    +0.000 C 
ATOM     18  O   UNL     1       7.556   8.313  17.110  0.00  0.00    +0.000 OA
ATOM     19  H   UNL     1       8.899   6.692  19.492  0.00  0.00    +0.000 HD
BRANCH  17  20
ATOM     20  C   UNL     1       8.908   9.166  18.877  0.00  0.00    +0.000 C 
ATOM     21  C   UNL     1       8.982  10.396  18.342  0.00  0.00    +0.000 C 
BRANCH  21  22
ATOM     22  C   UNL     1       9.653  11.464  18.999  0.00  0.00    +0.000 A 
ATOM     23  C   UNL     1       9.886  11.626  20.363  0.00  0.00    +0.000 A 
ATOM     24  C   UNL     1      10.601  12.832  20.550  0.00  0.00    +0.000 A 
ATOM     25  C   UNL     1      10.773  13.358  19.296  0.00  0.00    +0.000 A 
ATOM     26  O   UNL     1      10.209  12.552  18.361  0.00  0.00    +0.000 OA
ENDBRANCH  21  22
ENDBRANCH  17  20
ENDBRANCH  15  16
ENDBRANCH   2  15
TORSDOF 6
ENDMDL
MODEL 6
REMARK VINA RESULT:      -7.4      3.900      6.520
REMARK  Name = 
REMARK  7 active torsions:
REMARK  status: ('A' for Active; 'I' for Inactive)
REMARK    1  A    between atoms: C_1  and  C_2
REMARK    2  A    between atoms: C_2  and  C_18
REMARK    3  A    between atoms: N_3  and  N_4
REMARK    4  A    between atoms: C_5  and  C_7
REMARK    5  A    between atoms: C_7  and  N_8
REMARK    6  A    between atoms: C_9  and  C_11
REMARK    7  A    between atoms: C_12  and  C_13
REMARK                            x       y       z     vdW  Elec       q    Type
REMARK                         _______ _______ _______ _____ _____    ______ ____
ROOT
ATOM      1  N   UNL     1       4.684   5.710  18.654  0.00  0.00    +0.000 N 
ATOM      2  C   UNL     1       6.059   5.579  18.810  0.00  0.00    +0.000 C 
ATOM      3  O   UNL     1       6.617   4.904  19.676  0.00  0.00    +0.000 OA
ATOM      4  H   UNL     1       4.305   6.180  17.837  0.00  0.00    +0.000 HD
ENDROOT
BRANCH   1   7
ATOM      5  C   UNL     1       2.035   4.952  21.092  0.00  0.00    +0.000 C 
ATOM      6  C   UNL     1       2.810   5.705  20.025  0.00  0.00    +0.000 C 
ATOM      7  N   UNL     1       3.837   5.080  19.519  0.00  0.00    +0.000 NA
BRANCH   6   8
ATOM      8  C   UNL     1       2.281   7.054  19.632  0.00  0.00    +0.000 A 
ATOM      9  C   UNL     1       2.365   7.513  18.310  0.00  0.00    +0.000 A 
ATOM     10  C   UNL     1       1.818   8.755  17.956  0.00  0.00    +0.000 A 
ATOM     11  C   UNL     1       1.171   9.531  18.914  0.00  0.00    +0.000 A 
ATOM     12 CL   UNL     1       0.433  11.020  18.471  0.00  0.00    +0.000 Cl
ATOM     13  C   UNL     1       1.125   9.107  20.235  0.00  0.00    +0.000 A 
ATOM     14  C   UNL     1       1.717   7.896  20.597  0.00  0.00    +0.000 A 
ENDBRANCH   6   8
ENDBRANCH   1   7
BRANCH   2  15
ATOM     15  C   UNL     1       6.863   6.241  17.690  0.00  0.00    +0.000 C 
BRANCH  15  16
ATOM     16  N   UNL     1       7.113   5.317  16.592  0.00  0.00    +0.000 N 
ATOM     17  C   UNL     1       6.175   5.090  15.621  0.00  0.00    +0.000 C 
ATOM     18  O   UNL     1       5.083   5.654  15.609  0.00  0.00    +0.000 OA
ATOM     19  H   UNL     1       7.952   4.754  16.636  0.00  0.00    +0.000 HD
BRANCH  17  20
ATOM     20  C   UNL     1       6.568   4.087  14.602  0.00  0.00    +0.000 C 
ATOM     21  C   UNL     1       5.936   4.072  13.416  0.00  0.00    +0.000 C 
BRANCH  21  22
ATOM     22  C   UNL     1       6.277   3.144  12.394  0.00  0.00    +0.000 A 
ATOM     23  C   UNL     1       5.442   2.246  11.731  0.00  0.00    +0.000 A 
ATOM     24  C   UNL     1       6.217   1.535  10.786  0.00  0.00    +0.000 A 
ATOM     25  C   UNL     1       7.492   2.023  10.911  0.00  0.00    +0.000 A 
ATOM     26  O   UNL     1       7.542   2.982  11.870  0.00  0.00    +0.000 OA
ENDBRANCH  21  22
ENDBRANCH  17  20
ENDBRANCH  15  16
ENDBRANCH   2  15
TORSDOF 6
ENDMDL
MODEL 7
REMARK VINA RESULT:      -7.4      3.694      6.399
REMARK  Name = 
REMARK  7 active torsions:
REMARK  status: ('A' for Active; 'I' for Inactive)
REMARK    1  A    between atoms: C_1  and  C_2
REMARK    2  A    between atoms: C_2  and  C_18
REMARK    3  A    between atoms: N_3  and  N_4
REMARK    4  A    between atoms: C_5  and  C_7
REMARK    5  A    between atoms: C_7  and  N_8
REMARK    6  A    between atoms: C_9  and  C_11
REMARK    7  A    between atoms: C_12  and  C_13
REMARK                            x       y       z     vdW  Elec       q    Type
REMARK                         _______ _______ _______ _____ _____    ______ ____
ROOT
ATOM      1  N   UNL     1       4.853   5.790  18.532  0.00  0.00    +0.000 N 
ATOM      2  C   UNL     1       6.202   5.909  18.842  0.00  0.00    +0.000 C 
ATOM      3  O   UNL     1       6.757   5.398  19.815  0.00  0.00    +0.000 OA
ATOM      4  H   UNL     1       4.500   6.134  17.643  0.00  0.00    +0.000 HD
ENDROOT
BRANCH   1   7
ATOM      5  C   UNL     1       2.211   4.792  20.889  0.00  0.00    +0.000 C 
ATOM      6  C   UNL     1       2.963   5.631  19.872  0.00  0.00    +0.000 C 
ATOM      7  N   UNL     1       4.025   5.080  19.352  0.00  0.00    +0.000 NA
BRANCH   6   8
ATOM      8  C   UNL     1       2.376   6.971  19.536  0.00  0.00    +0.000 A 
ATOM      9  C   UNL     1       2.442   7.492  18.236  0.00  0.00    +0.000 A 
ATOM     10  C   UNL     1       1.842   8.723  17.935  0.00  0.00    +0.000 A 
ATOM     11  C   UNL     1       1.160   9.427  18.924  0.00  0.00    +0.000 A 
ATOM     12 CL   UNL     1       0.359  10.900  18.544  0.00  0.00    +0.000 Cl
ATOM     13  C   UNL     1       1.130   8.944  20.224  0.00  0.00    +0.000 A 
ATOM     14  C   UNL     1       1.774   7.745  20.535  0.00  0.00    +0.000 A 
ENDBRANCH   6   8
ENDBRANCH   1   7
BRANCH   2  15
ATOM     15  C   UNL     1       7.013   6.628  17.761  0.00  0.00    +0.000 C 
BRANCH  15  16
ATOM     16  N   UNL     1       6.642   6.177  16.427  0.00  0.00    +0.000 N 
ATOM     17  C   UNL     1       7.183   5.046  15.878  0.00  0.00    +0.000 C 
ATOM     18  O   UNL     1       7.996   4.343  16.474  0.00  0.00    +0.000 OA
ATOM     19  H   UNL     1       6.064   6.792  15.868  0.00  0.00    +0.000 HD
BRANCH  17  20
ATOM     20  C   UNL     1       6.733   4.752  14.495  0.00  0.00    +0.000 C 
ATOM     21  C   UNL     1       6.023   3.636  14.258  0.00  0.00    +0.000 C 
BRANCH  21  22
ATOM     22  C   UNL     1       5.552   3.306  12.958  0.00  0.00    +0.000 A 
ATOM     23  C   UNL     1       4.472   3.851  12.267  0.00  0.00    +0.000 A 
ATOM     24  C   UNL     1       4.390   3.222  11.004  0.00  0.00    +0.000 A 
ATOM     25  C   UNL     1       5.420   2.318  10.973  0.00  0.00    +0.000 A 
ATOM     26  O   UNL     1       6.120   2.355  12.135  0.00  0.00    +0.000 OA
ENDBRANCH  21  22
ENDBRANCH  17  20
ENDBRANCH  15  16
ENDBRANCH   2  15
TORSDOF 6
ENDMDL
MODEL 8
REMARK VINA RESULT:      -7.4      4.096      6.399
REMARK  Name = 
REMARK  7 active torsions:
REMARK  status: ('A' for Active; 'I' for Inactive)
REMARK    1  A    between atoms: C_1  and  C_2
REMARK    2  A    between atoms: C_2  and  C_18
REMARK    3  A    between atoms: N_3  and  N_4
REMARK    4  A    between atoms: C_5  and  C_7
REMARK    5  A    between atoms: C_7  and  N_8
REMARK    6  A    between atoms: C_9  and  C_11
REMARK    7  A    between atoms: C_12  and  C_13
REMARK                            x       y       z     vdW  Elec       q    Type
REMARK                         _______ _______ _______ _____ _____    ______ ____
ROOT
ATOM      1  N   UNL     1       3.799   3.534  17.276  0.00  0.00    +0.000 N 
ATOM      2  C   UNL     1       3.555   2.460  18.123  0.00  0.00    +0.000 C 
ATOM      3  O   UNL     1       3.883   1.293  17.907  0.00  0.00    +0.000 OA
ATOM      4  H   UNL     1       3.612   4.483  17.586  0.00  0.00    +0.000 HD
ENDROOT
BRANCH   1   7
ATOM      5  C   UNL     1       5.951   3.857  14.310  0.00  0.00    +0.000 C 
ATOM      6  C   UNL     1       5.437   4.076  15.721  0.00  0.00    +0.000 C 
ATOM      7  N   UNL     1       4.429   3.331  16.082  0.00  0.00    +0.000 NA
BRANCH   6   8
ATOM      8  C   UNL     1       6.174   5.079  16.561  0.00  0.00    +0.000 A 
ATOM      9  C   UNL     1       7.151   4.680  17.484  0.00  0.00    +0.000 A 
ATOM     10  C   UNL     1       7.863   5.638  18.220  0.00  0.00    +0.000 A 
ATOM     11  C   UNL     1       7.615   6.994  18.024  0.00  0.00    +0.000 A 
ATOM     12 CL   UNL     1       8.535   8.175  18.869  0.00  0.00    +0.000 Cl
ATOM     13  C   UNL     1       6.616   7.397  17.149  0.00  0.00    +0.000 A 
ATOM     14  C   UNL     1       5.871   6.440  16.456  0.00  0.00    +0.000 A 
ENDBRANCH   6   8
ENDBRANCH   1   7
BRANCH   2  15
ATOM     15  C   UNL     1       2.955   2.872  19.469  0.00  0.00    +0.000 C 
BRANCH  15  16
ATOM     16  N   UNL     1       2.582   4.280  19.479  0.00  0.00    +0.000 N 
ATOM     17  C   UNL     1       2.241   4.922  20.639  0.00  0.00    +0.000 C 
ATOM     18  O   UNL     1       2.238   4.359  21.732  0.00  0.00    +0.000 OA
ATOM     19  H   UNL     1       2.465   4.740  18.585  0.00  0.00    +0.000 HD
BRANCH  17  20
ATOM     20  C   UNL     1       1.844   6.341  20.469  0.00  0.00    +0.000 C 
ATOM     21  C   UNL     1       2.212   6.997  19.355  0.00  0.00    +0.000 C 
BRANCH  21  22
ATOM     22  C   UNL     1       1.851   8.353  19.127  0.00  0.00    +0.000 A 
ATOM     23  C   UNL     1       2.165   9.157  18.033  0.00  0.00    +0.000 A 
ATOM     24  C   UNL     1       1.583  10.430  18.236  0.00  0.00    +0.000 A 
ATOM     25  C   UNL     1       0.941  10.353  19.445  0.00  0.00    +0.000 A 
ATOM     26  O   UNL     1       1.096   9.120  19.989  0.00  0.00    +0.000 OA
ENDBRANCH  21  22
ENDBRANCH  17  20
ENDBRANCH  15  16
ENDBRANCH   2  15
TORSDOF 6
ENDMDL
MODEL 9
REMARK VINA RESULT:      -7.4      1.244      1.428
REMARK  Name = 
REMARK  7 active torsions:
REMARK  status: ('A' for Active; 'I' for Inactive)
REMARK    1  A    between atoms: C_1  and  C_2
REMARK    2  A    between atoms: C_2  and  C_18
REMARK    3  A    between atoms: N_3  and  N_4
REMARK    4  A    between atoms: C_5  and  C_7
REMARK    5  A    between atoms: C_7  and  N_8
REMARK    6  A    between atoms: C_9  and  C_11
REMARK    7  A    between atoms: C_12  and  C_13
REMARK                            x       y       z     vdW  Elec       q    Type
REMARK                         _______ _______ _______ _____ _____    ______ ____
ROOT
ATOM      1  N   UNL     1       4.986   5.743  18.705  0.00  0.00    +0.000 N 
ATOM      2  C   UNL     1       6.144   5.164  18.201  0.00  0.00    +0.000 C 
ATOM      3  O   UNL     1       6.478   3.988  18.354  0.00  0.00    +0.000 OA
ATOM      4  H   UNL     1       4.721   6.683  18.425  0.00  0.00    +0.000 HD
ENDROOT
BRANCH   1   7
ATOM      5  C   UNL     1       2.219   4.641  20.865  0.00  0.00    +0.000 C 
ATOM      6  C   UNL     1       3.015   5.515  19.913  0.00  0.00    +0.000 C 
ATOM      7  N   UNL     1       4.124   5.000  19.458  0.00  0.00    +0.000 NA
BRANCH   6   8
ATOM      8  C   UNL     1       2.417   6.845  19.557  0.00  0.00    +0.000 A 
ATOM      9  C   UNL     1       1.746   7.622  20.512  0.00  0.00    +0.000 A 
ATOM     10  C   UNL     1       1.240   8.884  20.169  0.00  0.00    +0.000 A 
ATOM     11  C   UNL     1       1.418   9.381  18.880  0.00  0.00    +0.000 A 
ATOM     12 CL   UNL     1       0.865  10.957  18.473  0.00  0.00    +0.000 Cl
ATOM     13  C   UNL     1       2.038   8.599  17.915  0.00  0.00    +0.000 A 
ATOM     14  C   UNL     1       2.493   7.321  18.243  0.00  0.00    +0.000 A 
ENDBRANCH   6   8
ENDBRANCH   1   7
BRANCH   2  15
ATOM     15  C   UNL     1       6.936   6.093  17.279  0.00  0.00    +0.000 C 
BRANCH  15  16
ATOM     16  N   UNL     1       7.819   6.971  18.035  0.00  0.00    +0.000 N 
ATOM     17  C   UNL     1       7.795   8.329  17.863  0.00  0.00    +0.000 C 
ATOM     18  O   UNL     1       7.029   8.885  17.080  0.00  0.00    +0.000 OA
ATOM     19  H   UNL     1       8.537   6.538  18.601  0.00  0.00    +0.000 HD
BRANCH  17  20
ATOM     20  C   UNL     1       8.788   9.073  18.676  0.00  0.00    +0.000 C 
ATOM     21  C   UNL     1       9.016  10.370  18.409  0.00  0.00    +0.000 C 
BRANCH  21  22
ATOM     22  C   UNL     1       9.945  11.141  19.160  0.00  0.00    +0.000 A 
ATOM     23  C   UNL     1       9.874  11.509  20.503  0.00  0.00    +0.000 A 
ATOM     24  C   UNL     1      11.028  12.263  20.817  0.00  0.00    +0.000 A 
ATOM     25  C   UNL     1      11.755  12.327  19.657  0.00  0.00    +0.000 A 
ATOM     26  O   UNL     1      11.118  11.664  18.659  0.00  0.00    +0.000 OA
ENDBRANCH  21  22
ENDBRANCH  17  20
ENDBRANCH  15  16
ENDBRANCH   2  15
TORSDOF 6
ENDMDL
