MODEL 1
REMARK VINA RESULT:      -7.5      0.000      0.000
REMARK  Name = 
REMARK  1 active torsions:
REMARK  status: ('A' for Active; 'I' for Inactive)
REMARK    1  A    between atoms: C_2  and  C_13
REMARK                            x       y       z     vdW  Elec       q    Type
REMARK                         _______ _______ _______ _____ _____    ______ ____
ROOT
ATOM      1  O   UNL     1       7.447   4.459  16.632  0.00  0.00    +0.000 OA
ATOM      2  C   UNL     1       6.463   4.347  15.907  0.00  0.00    +0.000 C 
ATOM      3  N   UNL     1       5.158   4.095  16.308  0.00  0.00    +0.000 N 
ATOM      4  C   UNL     1       4.885   3.941  17.658  0.00  0.00    +0.000 A 
ATOM      5  N   UNL     1       5.731   4.087  18.660  0.00  0.00    +0.000 NA
ATOM      6  N   UNL     1       5.095   3.799  19.838  0.00  0.00    +0.000 NA
ATOM      7  C   UNL     1       3.859   3.481  19.548  0.00  0.00    +0.000 A 
ATOM      8  N   UNL     1       3.672   3.588  18.190  0.00  0.00    +0.000 N 
ATOM      9  C   UNL     1       2.426   3.264  17.531  0.00  0.00    +0.000 C 
ATOM     10  C   UNL     1       1.252   3.104  18.510  0.00  0.00    +0.000 C 
ATOM     11  C   UNL     1       1.670   2.338  19.768  0.00  0.00    +0.000 C 
ATOM     12  C   UNL     1       2.789   3.082  20.492  0.00  0.00    +0.000 C 
ATOM     13  H   UNL     1       4.433   3.931  15.629  0.00  0.00    +0.000 HD
ENDROOT
BRANCH   2  14
ATOM     14  C   UNL     1       6.723   4.453  14.449  0.00  0.00    +0.000 A 
ATOM     15  C   UNL     1       6.064   3.540  13.617  0.00  0.00    +0.000 A 
ATOM     16  C   UNL     1       6.353   3.553  12.268  0.00  0.00    +0.000 A 
ATOM     17  N   UNL     1       7.240   4.401  11.709  0.00  0.00    +0.000 NA
ATOM     18  C   UNL     1       7.875   5.260  12.537  0.00  0.00    +0.000 A 
ATOM     19  C   UNL     1       7.654   5.333  13.904  0.00  0.00    +0.000 A 
ENDBRANCH   2  14
TORSDOF 1
ENDMDL
MODEL 2
REMARK VINA RESULT:      -7.4      1.742      6.685
REMARK  Name = 
REMARK  1 active torsions:
REMARK  status: ('A' for Active; 'I' for Inactive)
REMARK    1  A    between atoms: C_2  and  C_13
REMARK                            x       y       z     vdW  Elec       q    Type
REMARK                         _______ _______ _______ _____ _____    ______ ____
ROOT
ATOM      1  O   UNL     1       4.866   5.396  18.358  0.00  0.00    +0.000 OA
ATOM      2  C   UNL     1       4.259   4.581  17.671  0.00  0.00    +0.000 C 
ATOM      3  N   UNL     1       4.604   4.141  16.400  0.00  0.00    +0.000 N 
ATOM      4  C   UNL     1       5.745   4.649  15.798  0.00  0.00    +0.000 A 
ATOM      5  N   UNL     1       6.624   5.474  16.332  0.00  0.00    +0.000 NA
ATOM      6  N   UNL     1       7.580   5.785  15.403  0.00  0.00    +0.000 NA
ATOM      7  C   UNL     1       7.281   5.142  14.304  0.00  0.00    +0.000 A 
ATOM      8  N   UNL     1       6.151   4.388  14.514  0.00  0.00    +0.000 N 
ATOM      9  C   UNL     1       5.524   3.589  13.485  0.00  0.00    +0.000 C 
ATOM     10  C   UNL     1       6.411   3.407  12.242  0.00  0.00    +0.000 C 
ATOM     11  C   UNL     1       7.126   4.708  11.867  0.00  0.00    +0.000 C 
ATOM     12  C   UNL     1       8.017   5.172  13.017  0.00  0.00    +0.000 C 
ATOM     13  H   UNL     1       3.991   3.536  15.880  0.00  0.00    +0.000 HD
ENDROOT
BRANCH   2  14
ATOM     14  C   UNL     1       3.003   4.052  18.259  0.00  0.00    +0.000 A 
ATOM     15  C   UNL     1       2.488   4.727  19.372  0.00  0.00    +0.000 A 
ATOM     16  C   UNL     1       1.373   4.209  19.999  0.00  0.00    +0.000 A 
ATOM     17  N   UNL     1       0.754   3.082  19.593  0.00  0.00    +0.000 NA
ATOM     18  C   UNL     1       1.282   2.439  18.527  0.00  0.00    +0.000 A 
ATOM     19  C   UNL     1       2.393   2.879  17.824  0.00  0.00    +0.000 A 
ENDBRANCH   2  14
TORSDOF 1
ENDMDL
MODEL 3
REMARK VINA RESULT:      -7.3      0.957      1.465
REMARK  Name = 
REMARK  1 active torsions:
REMARK  status: ('A' for Active; 'I' for Inactive)
REMARK    1  A    between atoms: C_2  and  C_13
REMARK                            x       y       z     vdW  Elec       q    Type
REMARK                         _______ _______ _______ _____ _____    ______ ____
ROOT
ATOM      1  O   UNL     1       6.610   5.667  16.584  0.00  0.00    +0.000 OA
ATOM      2  C   UNL     1       5.860   4.938  15.942  0.00  0.00    +0.000 C 
ATOM      3  N   UNL     1       4.660   4.389  16.375  0.00  0.00    +0.000 N 
ATOM      4  C   UNL     1       4.221   4.659  17.662  0.00  0.00    +0.000 A 
ATOM      5  N   UNL     1       4.782   5.469  18.538  0.00  0.00    +0.000 NA
ATOM      6  N   UNL     1       4.080   5.426  19.713  0.00  0.00    +0.000 NA
ATOM      7  C   UNL     1       3.087   4.590  19.545  0.00  0.00    +0.000 A 
ATOM      8  N   UNL     1       3.116   4.107  18.258  0.00  0.00    +0.000 N 
ATOM      9  C   UNL     1       2.182   3.124  17.756  0.00  0.00    +0.000 C 
ATOM     10  C   UNL     1       0.972   2.917  18.681  0.00  0.00    +0.000 C 
ATOM     11  C   UNL     1       1.390   2.887  20.154  0.00  0.00    +0.000 C 
ATOM     12  C   UNL     1       2.059   4.204  20.540  0.00  0.00    +0.000 C 
ATOM     13  H   UNL     1       4.160   3.729  15.804  0.00  0.00    +0.000 HD
ENDROOT
BRANCH   2  14
ATOM     14  C   UNL     1       6.321   4.583  14.577  0.00  0.00    +0.000 A 
ATOM     15  C   UNL     1       7.411   5.298  14.068  0.00  0.00    +0.000 A 
ATOM     16  C   UNL     1       7.808   5.056  12.768  0.00  0.00    +0.000 A 
ATOM     17  N   UNL     1       7.196   4.165  11.962  0.00  0.00    +0.000 NA
ATOM     18  C   UNL     1       6.134   3.501  12.472  0.00  0.00    +0.000 A 
ATOM     19  C   UNL     1       5.661   3.665  13.765  0.00  0.00    +0.000 A 
ENDBRANCH   2  14
TORSDOF 1
ENDMDL
MODEL 4
REMARK VINA RESULT:      -7.2      1.737      6.573
REMARK  Name = 
REMARK  1 active torsions:
REMARK  status: ('A' for Active; 'I' for Inactive)
REMARK    1  A    between atoms: C_2  and  C_13
REMARK                            x       y       z     vdW  Elec       q    Type
REMARK                         _______ _______ _______ _____ _____    ______ ____
ROOT
ATOM      1  O   UNL     1       5.004   5.181  18.388  0.00  0.00    +0.000 OA
ATOM      2  C   UNL     1       4.376   4.384  17.698  0.00  0.00    +0.000 C 
ATOM      3  N   UNL     1       4.677   3.987  16.402  0.00  0.00    +0.000 N 
ATOM      4  C   UNL     1       5.792   4.521  15.775  0.00  0.00    +0.000 A 
ATOM      5  N   UNL     1       6.685   5.335  16.303  0.00  0.00    +0.000 NA
ATOM      6  N   UNL     1       7.606   5.681  15.350  0.00  0.00    +0.000 NA
ATOM      7  C   UNL     1       7.270   5.071  14.242  0.00  0.00    +0.000 A 
ATOM      8  N   UNL     1       6.153   4.304  14.470  0.00  0.00    +0.000 N 
ATOM      9  C   UNL     1       5.492   3.533  13.439  0.00  0.00    +0.000 C 
ATOM     10  C   UNL     1       6.333   3.396  12.160  0.00  0.00    +0.000 C 
ATOM     11  C   UNL     1       7.028   4.713  11.800  0.00  0.00    +0.000 C 
ATOM     12  C   UNL     1       7.957   5.146  12.931  0.00  0.00    +0.000 C 
ATOM     13  H   UNL     1       4.048   3.394  15.885  0.00  0.00    +0.000 HD
ENDROOT
BRANCH   2  14
ATOM     14  C   UNL     1       3.145   3.829  18.315  0.00  0.00    +0.000 A 
ATOM     15  C   UNL     1       2.779   2.530  17.946  0.00  0.00    +0.000 A 
ATOM     16  C   UNL     1       1.592   2.018  18.430  0.00  0.00    +0.000 A 
ATOM     17  N   UNL     1       0.766   2.708  19.242  0.00  0.00    +0.000 NA
ATOM     18  C   UNL     1       1.134   3.968  19.569  0.00  0.00    +0.000 A 
ATOM     19  C   UNL     1       2.307   4.572  19.142  0.00  0.00    +0.000 A 
ENDBRANCH   2  14
TORSDOF 1
ENDMDL
MODEL 5
REMARK VINA RESULT:      -7.1      1.276      1.276
REMARK  Name = 
REMARK  1 active torsions:
REMARK  status: ('A' for Active; 'I' for Inactive)
REMARK    1  A    between atoms: C_2  and  C_13
REMARK                            x       y       z     vdW  Elec       q    Type
REMARK                         _______ _______ _______ _____ _____    ______ ____
ROOT
ATOM      1  O   UNL     1       6.058   6.097  16.518  0.00  0.00    +0.000 OA
ATOM      2  C   UNL     1       5.466   5.196  15.932  0.00  0.00    +0.000 C 
ATOM      3  N   UNL     1       4.379   4.471  16.401  0.00  0.00    +0.000 N 
ATOM      4  C   UNL     1       3.873   4.754  17.660  0.00  0.00    +0.000 A 
ATOM      5  N   UNL     1       4.261   5.717  18.473  0.00  0.00    +0.000 NA
ATOM      6  N   UNL     1       3.556   5.636  19.644  0.00  0.00    +0.000 NA
ATOM      7  C   UNL     1       2.736   4.623  19.538  0.00  0.00    +0.000 A 
ATOM      8  N   UNL     1       2.876   4.056  18.293  0.00  0.00    +0.000 N 
ATOM      9  C   UNL     1       2.146   2.884  17.865  0.00  0.00    +0.000 C 
ATOM     10  C   UNL     1       0.977   2.530  18.799  0.00  0.00    +0.000 C 
ATOM     11  C   UNL     1       1.366   2.690  20.271  0.00  0.00    +0.000 C 
ATOM     12  C   UNL     1       1.776   4.133  20.556  0.00  0.00    +0.000 C 
ATOM     13  H   UNL     1       4.018   3.689  15.881  0.00  0.00    +0.000 HD
ENDROOT
BRANCH   2  14
ATOM     14  C   UNL     1       6.010   4.828  14.601  0.00  0.00    +0.000 A 
ATOM     15  C   UNL     1       5.298   3.876  13.863  0.00  0.00    +0.000 A 
ATOM     16  C   UNL     1       5.825   3.444  12.662  0.00  0.00    +0.000 A 
ATOM     17  N   UNL     1       6.994   3.894  12.164  0.00  0.00    +0.000 NA
ATOM     18  C   UNL     1       7.671   4.800  12.905  0.00  0.00    +0.000 A 
ATOM     19  C   UNL     1       7.227   5.302  14.118  0.00  0.00    +0.000 A 
ENDBRANCH   2  14
TORSDOF 1
ENDMDL
MODEL 6
REMARK VINA RESULT:      -7.0      5.536      8.318
REMARK  Name = 
REMARK  1 active torsions:
REMARK  status: ('A' for Active; 'I' for Inactive)
REMARK    1  A    between atoms: C_2  and  C_13
REMARK                            x       y       z     vdW  Elec       q    Type
REMARK                         _______ _______ _______ _____ _____    ______ ____
ROOT
ATOM      1  O   UNL     1       1.678   9.058  19.087  0.00  0.00    +0.000 OA
ATOM      2  C   UNL     1       1.455   8.595  20.201  0.00  0.00    +0.000 C 
ATOM      3  N   UNL     1       1.704   7.297  20.629  0.00  0.00    +0.000 N 
ATOM      4  C   UNL     1       2.259   6.390  19.741  0.00  0.00    +0.000 A 
ATOM      5  N   UNL     1       2.670   6.633  18.511  0.00  0.00    +0.000 NA
ATOM      6  N   UNL     1       3.107   5.468  17.939  0.00  0.00    +0.000 NA
ATOM      7  C   UNL     1       2.963   4.518  18.826  0.00  0.00    +0.000 A 
ATOM      8  N   UNL     1       2.463   5.056  19.988  0.00  0.00    +0.000 N 
ATOM      9  C   UNL     1       2.143   4.268  21.158  0.00  0.00    +0.000 C 
ATOM     10  C   UNL     1       2.712   2.842  21.095  0.00  0.00    +0.000 C 
ATOM     11  C   UNL     1       2.551   2.233  19.699  0.00  0.00    +0.000 C 
ATOM     12  C   UNL     1       3.288   3.081  18.665  0.00  0.00    +0.000 C 
ATOM     13  H   UNL     1       1.401   6.988  21.537  0.00  0.00    +0.000 HD
ENDROOT
BRANCH   2  14
ATOM     14  C   UNL     1       0.812   9.522  21.166  0.00  0.00    +0.000 A 
ATOM     15  C   UNL     1       0.369   8.975  22.376  0.00  0.00    +0.000 A 
ATOM     16  C   UNL     1      -0.314   9.789  23.256  0.00  0.00    +0.000 A 
ATOM     17  N   UNL     1      -0.578  11.088  23.008  0.00  0.00    +0.000 NA
ATOM     18  C   UNL     1      -0.156  11.587  21.824  0.00  0.00    +0.000 A 
ATOM     19  C   UNL     1       0.543  10.857  20.876  0.00  0.00    +0.000 A 
ENDBRANCH   2  14
TORSDOF 1
ENDMDL
MODEL 7
REMARK VINA RESULT:      -6.9      5.551      8.379
REMARK  Name = 
REMARK  1 active torsions:
REMARK  status: ('A' for Active; 'I' for Inactive)
REMARK    1  A    between atoms: C_2  and  C_13
REMARK                            x       y       z     vdW  Elec       q    Type
REMARK                         _______ _______ _______ _____ _____    ______ ____
ROOT
ATOM      1  O   UNL     1       1.691   9.060  19.183  0.00  0.00    +0.000 OA
ATOM      2  C   UNL     1       1.397   8.550  20.260  0.00  0.00    +0.000 C 
ATOM      3  N   UNL     1       1.658   7.247  20.663  0.00  0.00    +0.000 N 
ATOM      4  C   UNL     1       2.315   6.391  19.793  0.00  0.00    +0.000 A 
ATOM      5  N   UNL     1       2.813   6.691  18.610  0.00  0.00    +0.000 NA
ATOM      6  N   UNL     1       3.336   5.564  18.036  0.00  0.00    +0.000 NA
ATOM      7  C   UNL     1       3.157   4.578  18.877  0.00  0.00    +0.000 A 
ATOM      8  N   UNL     1       2.547   5.057  20.012  0.00  0.00    +0.000 N 
ATOM      9  C   UNL     1       2.164   4.218  21.126  0.00  0.00    +0.000 C 
ATOM     10  C   UNL     1       2.789   2.814  21.062  0.00  0.00    +0.000 C 
ATOM     11  C   UNL     1       2.761   2.251  19.639  0.00  0.00    +0.000 C 
ATOM     12  C   UNL     1       3.546   3.159  18.696  0.00  0.00    +0.000 C 
ATOM     13  H   UNL     1       1.297   6.895  21.534  0.00  0.00    +0.000 HD
ENDROOT
BRANCH   2  14
ATOM     14  C   UNL     1       0.646   9.419  21.200  0.00  0.00    +0.000 A 
ATOM     15  C   UNL     1       0.538  10.774  20.866  0.00  0.00    +0.000 A 
ATOM     16  C   UNL     1      -0.074  11.627  21.762  0.00  0.00    +0.000 A 
ATOM     17  N   UNL     1      -0.574  11.220  22.946  0.00  0.00    +0.000 NA
ATOM     18  C   UNL     1      -0.440   9.909  23.253  0.00  0.00    +0.000 A 
ATOM     19  C   UNL     1       0.151   8.971  22.422  0.00  0.00    +0.000 A 
ENDBRANCH   2  14
TORSDOF 1
ENDMDL
MODEL 8
REMARK VINA RESULT:      -6.4      5.245      7.538
REMARK  Name = 
REMARK  1 active torsions:
REMARK  status: ('A' for Active; 'I' for Inactive)
REMARK    1  A    between atoms: C_2  and  C_13
REMARK                            x       y       z     vdW  Elec       q    Type
REMARK                         _______ _______ _______ _____ _____    ______ ____
ROOT
ATOM      1  O   UNL     1       3.440   5.870  18.030  0.00  0.00    +0.000 OA
ATOM      2  C   UNL     1       2.830   5.817  19.094  0.00  0.00    +0.000 C 
ATOM      3  N   UNL     1       2.074   6.828  19.672  0.00  0.00    +0.000 N 
ATOM      4  C   UNL     1       1.967   8.046  19.020  0.00  0.00    +0.000 A 
ATOM      5  N   UNL     1       2.450   8.356  17.833  0.00  0.00    +0.000 NA
ATOM      6  N   UNL     1       2.182   9.671  17.561  0.00  0.00    +0.000 NA
ATOM      7  C   UNL     1       1.532  10.158  18.586  0.00  0.00    +0.000 A 
ATOM      8  N   UNL     1       1.344   9.163  19.516  0.00  0.00    +0.000 N 
ATOM      9  C   UNL     1       0.697   9.377  20.792  0.00  0.00    +0.000 C 
ATOM     10  C   UNL     1      -0.040  10.723  20.873  0.00  0.00    +0.000 C 
ATOM     11  C   UNL     1       0.776  11.851  20.234  0.00  0.00    +0.000 C 
ATOM     12  C   UNL     1       1.037  11.544  18.761  0.00  0.00    +0.000 C 
ATOM     13  H   UNL     1       1.684   6.717  20.594  0.00  0.00    +0.000 HD
ENDROOT
BRANCH   2  14
ATOM     14  C   UNL     1       2.963   4.545  19.849  0.00  0.00    +0.000 A 
ATOM     15  C   UNL     1       2.125   4.372  20.956  0.00  0.00    +0.000 A 
ATOM     16  C   UNL     1       2.285   3.242  21.733  0.00  0.00    +0.000 A 
ATOM     17  N   UNL     1       3.210   2.295  21.478  0.00  0.00    +0.000 NA
ATOM     18  C   UNL     1       4.019   2.496  20.412  0.00  0.00    +0.000 A 
ATOM     19  C   UNL     1       3.936   3.591  19.567  0.00  0.00    +0.000 A 
ENDBRANCH   2  14
TORSDOF 1
ENDMDL
MODEL 9
REMARK VINA RESULT:      -6.4      4.536      7.432
REMARK  Name = 
REMARK  1 active torsions:
REMARK  status: ('A' for Active; 'I' for Inactive)
REMARK    1  A    between atoms: C_2  and  C_13
REMARK                            x       y       z     vdW  Elec       q    Type
REMARK                         _______ _______ _______ _____ _____    ______ ____
ROOT
ATOM      1  O   UNL     1       1.803   5.913  20.586  0.00  0.00    +0.000 OA
ATOM      2  C   UNL     1       2.042   6.860  19.843  0.00  0.00    +0.000 C 
ATOM      3  N   UNL     1       2.822   6.842  18.695  0.00  0.00    +0.000 N 
ATOM      4  C   UNL     1       3.419   5.654  18.305  0.00  0.00    +0.000 A 
ATOM      5  N   UNL     1       3.273   4.470  18.867  0.00  0.00    +0.000 NA
ATOM      6  N   UNL     1       4.069   3.559  18.225  0.00  0.00    +0.000 NA
ATOM      7  C   UNL     1       4.696   4.193  17.269  0.00  0.00    +0.000 A 
ATOM      8  N   UNL     1       4.295   5.508  17.259  0.00  0.00    +0.000 N 
ATOM      9  C   UNL     1       4.831   6.498  16.351  0.00  0.00    +0.000 C 
ATOM     10  C   UNL     1       5.641   5.881  15.200  0.00  0.00    +0.000 C 
ATOM     11  C   UNL     1       6.530   4.734  15.689  0.00  0.00    +0.000 C 
ATOM     12  C   UNL     1       5.677   3.631  16.310  0.00  0.00    +0.000 C 
ATOM     13  H   UNL     1       3.031   7.693  18.201  0.00  0.00    +0.000 HD
ENDROOT
BRANCH   2  14
ATOM     14  C   UNL     1       1.461   8.163  20.255  0.00  0.00    +0.000 A 
ATOM     15  C   UNL     1       1.334   9.144  19.266  0.00  0.00    +0.000 A 
ATOM     16  C   UNL     1       0.884  10.396  19.634  0.00  0.00    +0.000 A 
ATOM     17  N   UNL     1       0.560  10.722  20.902  0.00  0.00    +0.000 NA
ATOM     18  C   UNL     1       0.710   9.761  21.842  0.00  0.00    +0.000 A 
ATOM     19  C   UNL     1       1.147   8.473  21.576  0.00  0.00    +0.000 A 
ENDBRANCH   2  14
TORSDOF 1
ENDMDL
