MODEL 1
REMARK VINA RESULT:      -7.0      0.000      0.000
REMARK  Name = 
REMARK  7 active torsions:
REMARK  status: ('A' for Active; 'I' for Inactive)
REMARK    1  A    between atoms: C_1  and  O_2
REMARK    2  A    between atoms: O_2  and  C_3
REMARK    3  A    between atoms: C_3  and  C_4
REMARK    4  A    between atoms: C_4  and  N_5
REMARK    5  A    between atoms: C_8  and  O_9
REMARK    6  A    between atoms: C_10  and  C_11
REMARK    7  A    between atoms: C_11  and  C_12
REMARK                            x       y       z     vdW  Elec       q    Type
REMARK                         _______ _______ _______ _____ _____    ______ ____
ROOT
ATOM      1  N   UNL     1       6.716   5.058  15.587  0.00  0.00    +0.000 N 
ATOM      2  C   UNL     1       7.557   4.453  16.506  0.00  0.00    +0.000 A 
ATOM      3  C   UNL     1       7.433   4.679  17.814  0.00  0.00    +0.000 A 
ATOM      4  C   UNL     1       6.368   5.519  18.299  0.00  0.00    +0.000 A 
ATOM      5  C   UNL     1       5.503   6.107  17.457  0.00  0.00    +0.000 A 
ATOM      6  C   UNL     1       5.742   5.983  15.981  0.00  0.00    +0.000 A 
ATOM      7  O   UNL     1       5.104   6.683  15.194  0.00  0.00    +0.000 OA
ENDROOT
BRANCH   4   8
ATOM      8  O   UNL     1       6.244   5.635  19.668  0.00  0.00    +0.000 OA
ATOM      9  H   UNL     1       6.710   6.435  19.964  0.00  0.00    +0.000 HD
ENDBRANCH   4   8
BRANCH   1  10
ATOM     10  C   UNL     1       6.912   4.809  14.151  0.00  0.00    +0.000 C 
BRANCH  10  11
ATOM     11  C   UNL     1       6.092   3.642  13.578  0.00  0.00    +0.000 C 
BRANCH  11  13
ATOM     12  C   UNL     1       5.011   3.012  11.580  0.00  0.00    +0.000 C 
ATOM     13  O   UNL     1       6.153   3.637  12.153  0.00  0.00    +0.000 OA
ENDBRANCH  11  13
ENDBRANCH  10  11
ENDBRANCH   1  10
BRANCH   5  14
ATOM     14  C   UNL     1       4.288   6.884  17.896  0.00  0.00    +0.000 C 
BRANCH  14  15
ATOM     15  C   UNL     1       3.219   5.960  18.453  0.00  0.00    +0.000 A 
ATOM     16  C   UNL     1       2.758   6.124  19.768  0.00  0.00    +0.000 A 
ATOM     17  C   UNL     1       1.877   5.198  20.331  0.00  0.00    +0.000 A 
ATOM     18  C   UNL     1       1.452   4.105  19.581  0.00  0.00    +0.000 A 
ATOM     19 CL   UNL     1       0.417   2.929  20.296  0.00  0.00    +0.000 Cl
ATOM     20  C   UNL     1       1.876   3.945  18.263  0.00  0.00    +0.000 A 
ATOM     21  C   UNL     1       2.757   4.870  17.700  0.00  0.00    +0.000 A 
ENDBRANCH  14  15
ENDBRANCH   5  14
TORSDOF 6
ENDMDL
MODEL 2
REMARK VINA RESULT:      -6.7      2.943      4.176
REMARK  Name = 
REMARK  7 active torsions:
REMARK  status: ('A' for Active; 'I' for Inactive)
REMARK    1  A    between atoms: C_1  and  O_2
REMARK    2  A    between atoms: O_2  and  C_3
REMARK    3  A    between atoms: C_3  and  C_4
REMARK    4  A    between atoms: C_4  and  N_5
REMARK    5  A    between atoms: C_8  and  O_9
REMARK    6  A    between atoms: C_10  and  C_11
REMARK    7  A    between atoms: C_11  and  C_12
REMARK                            x       y       z     vdW  Elec       q    Type
REMARK                         _______ _______ _______ _____ _____    ______ ____
ROOT
ATOM      1  N   UNL     1       5.116   4.392  17.646  0.00  0.00    +0.000 N 
ATOM      2  C   UNL     1       4.289   3.649  16.820  0.00  0.00    +0.000 A 
ATOM      3  C   UNL     1       3.009   3.438  17.127  0.00  0.00    +0.000 A 
ATOM      4  C   UNL     1       2.446   4.040  18.308  0.00  0.00    +0.000 A 
ATOM      5  C   UNL     1       3.191   4.796  19.130  0.00  0.00    +0.000 A 
ATOM      6  C   UNL     1       4.665   4.898  18.871  0.00  0.00    +0.000 A 
ATOM      7  O   UNL     1       5.404   5.397  19.720  0.00  0.00    +0.000 OA
ENDROOT
BRANCH   4   8
ATOM      8  O   UNL     1       1.095   3.854  18.513  0.00  0.00    +0.000 OA
ATOM      9  H   UNL     1       0.748   3.253  17.833  0.00  0.00    +0.000 HD
ENDBRANCH   4   8
BRANCH   1  10
ATOM     10  C   UNL     1       6.531   4.570  17.288  0.00  0.00    +0.000 C 
BRANCH  10  11
ATOM     11  C   UNL     1       6.856   5.888  16.567  0.00  0.00    +0.000 C 
BRANCH  11  13
ATOM     12  C   UNL     1       6.918   4.817  14.468  0.00  0.00    +0.000 C 
ATOM     13  O   UNL     1       7.621   5.641  15.389  0.00  0.00    +0.000 OA
ENDBRANCH  11  13
ENDBRANCH  10  11
ENDBRANCH   1  10
BRANCH   5  14
ATOM     14  C   UNL     1       2.641   5.566  20.303  0.00  0.00    +0.000 C 
BRANCH  14  15
ATOM     15  C   UNL     1       2.224   6.967  19.892  0.00  0.00    +0.000 A 
ATOM     16  C   UNL     1       1.512   7.784  20.783  0.00  0.00    +0.000 A 
ATOM     17  C   UNL     1       1.008   9.018  20.367  0.00  0.00    +0.000 A 
ATOM     18  C   UNL     1       1.216   9.442  19.057  0.00  0.00    +0.000 A 
ATOM     19 CL   UNL     1       0.541  10.933  18.525  0.00  0.00    +0.000 Cl
ATOM     20  C   UNL     1       1.949   8.657  18.169  0.00  0.00    +0.000 A 
ATOM     21  C   UNL     1       2.452   7.423  18.585  0.00  0.00    +0.000 A 
ENDBRANCH  14  15
ENDBRANCH   5  14
TORSDOF 6
ENDMDL
MODEL 3
REMARK VINA RESULT:      -6.6      2.983      4.544
REMARK  Name = 
REMARK  7 active torsions:
REMARK  status: ('A' for Active; 'I' for Inactive)
REMARK    1  A    between atoms: C_1  and  O_2
REMARK    2  A    between atoms: O_2  and  C_3
REMARK    3  A    between atoms: C_3  and  C_4
REMARK    4  A    between atoms: C_4  and  N_5
REMARK    5  A    between atoms: C_8  and  O_9
REMARK    6  A    between atoms: C_10  and  C_11
REMARK    7  A    between atoms: C_11  and  C_12
REMARK                            x       y       z     vdW  Elec       q    Type
REMARK                         _______ _______ _______ _____ _____    ______ ____
ROOT
ATOM      1  N   UNL     1       5.208   4.409  17.679  0.00  0.00    +0.000 N 
ATOM      2  C   UNL     1       4.404   3.648  16.847  0.00  0.00    +0.000 A 
ATOM      3  C   UNL     1       3.124   3.417  17.140  0.00  0.00    +0.000 A 
ATOM      4  C   UNL     1       2.537   4.016  18.311  0.00  0.00    +0.000 A 
ATOM      5  C   UNL     1       3.259   4.789  19.137  0.00  0.00    +0.000 A 
ATOM      6  C   UNL     1       4.735   4.915  18.896  0.00  0.00    +0.000 A 
ATOM      7  O   UNL     1       5.455   5.430  19.750  0.00  0.00    +0.000 OA
ENDROOT
BRANCH   4   8
ATOM      8  O   UNL     1       1.187   3.809  18.501  0.00  0.00    +0.000 OA
ATOM      9  H   UNL     1       0.707   4.066  17.696  0.00  0.00    +0.000 HD
ENDBRANCH   4   8
BRANCH   1  10
ATOM     10  C   UNL     1       6.624   4.609  17.337  0.00  0.00    +0.000 C 
BRANCH  10  11
ATOM     11  C   UNL     1       6.873   5.288  15.981  0.00  0.00    +0.000 C 
BRANCH  11  13
ATOM     12  C   UNL     1       7.458   7.047  17.439  0.00  0.00    +0.000 C 
ATOM     13  O   UNL     1       7.643   6.478  16.149  0.00  0.00    +0.000 OA
ENDBRANCH  11  13
ENDBRANCH  10  11
ENDBRANCH   1  10
BRANCH   5  14
ATOM     14  C   UNL     1       2.682   5.557  20.299  0.00  0.00    +0.000 C 
BRANCH  14  15
ATOM     15  C   UNL     1       2.129   6.897  19.850  0.00  0.00    +0.000 A 
ATOM     16  C   UNL     1       2.411   7.383  18.564  0.00  0.00    +0.000 A 
ATOM     17  C   UNL     1       2.020   8.671  18.191  0.00  0.00    +0.000 A 
ATOM     18  C   UNL     1       1.344   9.478  19.102  0.00  0.00    +0.000 A 
ATOM     19 CL   UNL     1       0.920  11.089  18.665  0.00  0.00    +0.000 Cl
ATOM     20  C   UNL     1       1.028   8.999  20.372  0.00  0.00    +0.000 A 
ATOM     21  C   UNL     1       1.419   7.712  20.745  0.00  0.00    +0.000 A 
ENDBRANCH  14  15
ENDBRANCH   5  14
TORSDOF 6
ENDMDL
MODEL 4
REMARK VINA RESULT:      -6.6      0.307      1.124
REMARK  Name = 
REMARK  7 active torsions:
REMARK  status: ('A' for Active; 'I' for Inactive)
REMARK    1  A    between atoms: C_1  and  O_2
REMARK    2  A    between atoms: O_2  and  C_3
REMARK    3  A    between atoms: C_3  and  C_4
REMARK    4  A    between atoms: C_4  and  N_5
REMARK    5  A    between atoms: C_8  and  O_9
REMARK    6  A    between atoms: C_10  and  C_11
REMARK    7  A    between atoms: C_11  and  C_12
REMARK                            x       y       z     vdW  Elec       q    Type
REMARK                         _______ _______ _______ _____ _____    ______ ____
ROOT
ATOM      1  N   UNL     1       6.784   5.085  15.571  0.00  0.00    +0.000 N 
ATOM      2  C   UNL     1       7.693   4.520  16.450  0.00  0.00    +0.000 A 
ATOM      3  C   UNL     1       7.594   4.705  17.767  0.00  0.00    +0.000 A 
ATOM      4  C   UNL     1       6.488   5.456  18.304  0.00  0.00    +0.000 A 
ATOM      5  C   UNL     1       5.559   6.001  17.503  0.00  0.00    +0.000 A 
ATOM      6  C   UNL     1       5.760   5.930  16.017  0.00  0.00    +0.000 A 
ATOM      7  O   UNL     1       5.051   6.601  15.269  0.00  0.00    +0.000 OA
ENDROOT
BRANCH   4   8
ATOM      8  O   UNL     1       6.399   5.530  19.678  0.00  0.00    +0.000 OA
ATOM      9  H   UNL     1       6.555   6.447  19.959  0.00  0.00    +0.000 HD
ENDBRANCH   4   8
BRANCH   1  10
ATOM     10  C   UNL     1       6.952   4.885  14.124  0.00  0.00    +0.000 C 
BRANCH  10  11
ATOM     11  C   UNL     1       6.109   3.748  13.526  0.00  0.00    +0.000 C 
BRANCH  11  13
ATOM     12  C   UNL     1       5.728   2.465  11.585  0.00  0.00    +0.000 C 
ATOM     13  O   UNL     1       6.586   3.399  12.227  0.00  0.00    +0.000 OA
ENDBRANCH  11  13
ENDBRANCH  10  11
ENDBRANCH   1  10
BRANCH   5  14
ATOM     14  C   UNL     1       4.306   6.679  17.998  0.00  0.00    +0.000 C 
BRANCH  14  15
ATOM     15  C   UNL     1       3.326   5.670  18.568  0.00  0.00    +0.000 A 
ATOM     16  C   UNL     1       2.830   4.633  17.764  0.00  0.00    +0.000 A 
ATOM     17  C   UNL     1       1.828   3.784  18.239  0.00  0.00    +0.000 A 
ATOM     18  C   UNL     1       1.319   3.968  19.522  0.00  0.00    +0.000 A 
ATOM     19 CL   UNL     1       0.039   2.962  20.084  0.00  0.00    +0.000 Cl
ATOM     20  C   UNL     1       1.823   4.972  20.344  0.00  0.00    +0.000 A 
ATOM     21  C   UNL     1       2.824   5.822  19.869  0.00  0.00    +0.000 A 
ENDBRANCH  14  15
ENDBRANCH   5  14
TORSDOF 6
ENDMDL
MODEL 5
REMARK VINA RESULT:      -6.5      2.971      4.179
REMARK  Name = 
REMARK  7 active torsions:
REMARK  status: ('A' for Active; 'I' for Inactive)
REMARK    1  A    between atoms: C_1  and  O_2
REMARK    2  A    between atoms: O_2  and  C_3
REMARK    3  A    between atoms: C_3  and  C_4
REMARK    4  A    between atoms: C_4  and  N_5
REMARK    5  A    between atoms: C_8  and  O_9
REMARK    6  A    between atoms: C_10  and  C_11
REMARK    7  A    between atoms: C_11  and  C_12
REMARK                            x       y       z     vdW  Elec       q    Type
REMARK                         _______ _______ _______ _____ _____    ______ ____
ROOT
ATOM      1  N   UNL     1       5.214   4.457  17.627  0.00  0.00    +0.000 N 
ATOM      2  C   UNL     1       4.393   3.694  16.813  0.00  0.00    +0.000 A 
ATOM      3  C   UNL     1       3.118   3.467  17.131  0.00  0.00    +0.000 A 
ATOM      4  C   UNL     1       2.554   4.073  18.310  0.00  0.00    +0.000 A 
ATOM      5  C   UNL     1       3.293   4.848  19.119  0.00  0.00    +0.000 A 
ATOM      6  C   UNL     1       4.765   4.969  18.849  0.00  0.00    +0.000 A 
ATOM      7  O   UNL     1       5.502   5.487  19.688  0.00  0.00    +0.000 OA
ENDROOT
BRANCH   4   8
ATOM      8  O   UNL     1       1.208   3.869  18.526  0.00  0.00    +0.000 OA
ATOM      9  H   UNL     1       0.995   2.935  18.361  0.00  0.00    +0.000 HD
ENDBRANCH   4   8
BRANCH   1  10
ATOM     10  C   UNL     1       6.624   4.652  17.257  0.00  0.00    +0.000 C 
BRANCH  10  11
ATOM     11  C   UNL     1       6.850   5.455  15.966  0.00  0.00    +0.000 C 
BRANCH  11  13
ATOM     12  C   UNL     1       6.636   4.342  13.899  0.00  0.00    +0.000 C 
ATOM     13  O   UNL     1       7.502   4.653  14.983  0.00  0.00    +0.000 OA
ENDBRANCH  11  13
ENDBRANCH  10  11
ENDBRANCH   1  10
BRANCH   5  14
ATOM     14  C   UNL     1       2.740   5.622  20.289  0.00  0.00    +0.000 C 
BRANCH  14  15
ATOM     15  C   UNL     1       2.154   6.948  19.839  0.00  0.00    +0.000 A 
ATOM     16  C   UNL     1       2.402   7.428  18.544  0.00  0.00    +0.000 A 
ATOM     17  C   UNL     1       1.982   8.706  18.169  0.00  0.00    +0.000 A 
ATOM     18  C   UNL     1       1.310   9.509  19.087  0.00  0.00    +0.000 A 
ATOM     19 CL   UNL     1       0.849  11.108  18.645  0.00  0.00    +0.000 Cl
ATOM     20  C   UNL     1       1.029   9.036  20.366  0.00  0.00    +0.000 A 
ATOM     21  C   UNL     1       1.450   7.758  20.742  0.00  0.00    +0.000 A 
ENDBRANCH  14  15
ENDBRANCH   5  14
TORSDOF 6
ENDMDL
MODEL 6
REMARK VINA RESULT:      -6.5      3.055      4.564
REMARK  Name = 
REMARK  7 active torsions:
REMARK  status: ('A' for Active; 'I' for Inactive)
REMARK    1  A    between atoms: C_1  and  O_2
REMARK    2  A    between atoms: O_2  and  C_3
REMARK    3  A    between atoms: C_3  and  C_4
REMARK    4  A    between atoms: C_4  and  N_5
REMARK    5  A    between atoms: C_8  and  O_9
REMARK    6  A    between atoms: C_10  and  C_11
REMARK    7  A    between atoms: C_11  and  C_12
REMARK                            x       y       z     vdW  Elec       q    Type
REMARK                         _______ _______ _______ _____ _____    ______ ____
ROOT
ATOM      1  N   UNL     1       4.972   4.435  17.624  0.00  0.00    +0.000 N 
ATOM      2  C   UNL     1       4.132   3.627  16.876  0.00  0.00    +0.000 A 
ATOM      3  C   UNL     1       2.884   3.371  17.270  0.00  0.00    +0.000 A 
ATOM      4  C   UNL     1       2.367   3.990  18.463  0.00  0.00    +0.000 A 
ATOM      5  C   UNL     1       3.125   4.807  19.212  0.00  0.00    +0.000 A 
ATOM      6  C   UNL     1       4.575   4.964  18.858  0.00  0.00    +0.000 A 
ATOM      7  O   UNL     1       5.341   5.524  19.641  0.00  0.00    +0.000 OA
ENDROOT
BRANCH   4   8
ATOM      8  O   UNL     1       1.041   3.753  18.759  0.00  0.00    +0.000 OA
ATOM      9  H   UNL     1       0.615   4.589  19.009  0.00  0.00    +0.000 HD
ENDBRANCH   4   8
BRANCH   1  10
ATOM     10  C   UNL     1       6.353   4.661  17.172  0.00  0.00    +0.000 C 
BRANCH  10  11
ATOM     11  C   UNL     1       6.567   5.952  16.365  0.00  0.00    +0.000 C 
BRANCH  11  13
ATOM     12  C   UNL     1       7.574   7.753  17.505  0.00  0.00    +0.000 C 
ATOM     13  O   UNL     1       7.794   6.578  16.735  0.00  0.00    +0.000 OA
ENDBRANCH  11  13
ENDBRANCH  10  11
ENDBRANCH   1  10
BRANCH   5  14
ATOM     14  C   UNL     1       2.613   5.594  20.391  0.00  0.00    +0.000 C 
BRANCH  14  15
ATOM     15  C   UNL     1       2.187   6.989  19.974  0.00  0.00    +0.000 A 
ATOM     16  C   UNL     1       1.468   7.804  20.863  0.00  0.00    +0.000 A 
ATOM     17  C   UNL     1       0.955   9.033  20.441  0.00  0.00    +0.000 A 
ATOM     18  C   UNL     1       1.161   9.454  19.130  0.00  0.00    +0.000 A 
ATOM     19 CL   UNL     1       0.474  10.938  18.592  0.00  0.00    +0.000 Cl
ATOM     20  C   UNL     1       1.899   8.671  18.245  0.00  0.00    +0.000 A 
ATOM     21  C   UNL     1       2.411   7.442  18.666  0.00  0.00    +0.000 A 
ENDBRANCH  14  15
ENDBRANCH   5  14
TORSDOF 6
ENDMDL
MODEL 7
REMARK VINA RESULT:      -6.3      3.161      4.705
REMARK  Name = 
REMARK  7 active torsions:
REMARK  status: ('A' for Active; 'I' for Inactive)
REMARK    1  A    between atoms: C_1  and  O_2
REMARK    2  A    between atoms: O_2  and  C_3
REMARK    3  A    between atoms: C_3  and  C_4
REMARK    4  A    between atoms: C_4  and  N_5
REMARK    5  A    between atoms: C_8  and  O_9
REMARK    6  A    between atoms: C_10  and  C_11
REMARK    7  A    between atoms: C_11  and  C_12
REMARK                            x       y       z     vdW  Elec       q    Type
REMARK                         _______ _______ _______ _____ _____    ______ ____
ROOT
ATOM      1  N   UNL     1       5.933   4.884  17.526  0.00  0.00    +0.000 N 
ATOM      2  C   UNL     1       5.441   4.173  16.444  0.00  0.00    +0.000 A 
ATOM      3  C   UNL     1       4.195   3.697  16.435  0.00  0.00    +0.000 A 
ATOM      4  C   UNL     1       3.314   3.974  17.540  0.00  0.00    +0.000 A 
ATOM      5  C   UNL     1       3.725   4.685  18.602  0.00  0.00    +0.000 A 
ATOM      6  C   UNL     1       5.171   5.079  18.684  0.00  0.00    +0.000 A 
ATOM      7  O   UNL     1       5.624   5.535  19.733  0.00  0.00    +0.000 OA
ENDROOT
BRANCH   4   8
ATOM      8  O   UNL     1       2.014   3.529  17.421  0.00  0.00    +0.000 OA
ATOM      9  H   UNL     1       1.440   4.060  17.998  0.00  0.00    +0.000 HD
ENDBRANCH   4   8
BRANCH   1  10
ATOM     10  C   UNL     1       7.325   5.359  17.510  0.00  0.00    +0.000 C 
BRANCH  10  11
ATOM     11  C   UNL     1       7.495   6.854  17.196  0.00  0.00    +0.000 C 
BRANCH  11  13
ATOM     12  C   UNL     1       8.258   8.922  18.035  0.00  0.00    +0.000 C 
ATOM     13  O   UNL     1       8.080   7.537  18.304  0.00  0.00    +0.000 OA
ENDBRANCH  11  13
ENDBRANCH  10  11
ENDBRANCH   1  10
BRANCH   5  14
ATOM     14  C   UNL     1       2.824   5.128  19.726  0.00  0.00    +0.000 C 
BRANCH  14  15
ATOM     15  C   UNL     1       2.277   6.521  19.471  0.00  0.00    +0.000 A 
ATOM     16  C   UNL     1       2.419   7.117  18.209  0.00  0.00    +0.000 A 
ATOM     17  C   UNL     1       2.040   8.446  18.006  0.00  0.00    +0.000 A 
ATOM     18  C   UNL     1       1.517   9.184  19.064  0.00  0.00    +0.000 A 
ATOM     19 CL   UNL     1       1.110  10.841  18.830  0.00  0.00    +0.000 Cl
ATOM     20  C   UNL     1       1.340   8.598  20.315  0.00  0.00    +0.000 A 
ATOM     21  C   UNL     1       1.719   7.269  20.519  0.00  0.00    +0.000 A 
ENDBRANCH  14  15
ENDBRANCH   5  14
TORSDOF 6
ENDMDL
MODEL 8
REMARK VINA RESULT:      -6.3      2.785      4.447
REMARK  Name = 
REMARK  7 active torsions:
REMARK  status: ('A' for Active; 'I' for Inactive)
REMARK    1  A    between atoms: C_1  and  O_2
REMARK    2  A    between atoms: O_2  and  C_3
REMARK    3  A    between atoms: C_3  and  C_4
REMARK    4  A    between atoms: C_4  and  N_5
REMARK    5  A    between atoms: C_8  and  O_9
REMARK    6  A    between atoms: C_10  and  C_11
REMARK    7  A    between atoms: C_11  and  C_12
REMARK                            x       y       z     vdW  Elec       q    Type
REMARK                         _______ _______ _______ _____ _____    ______ ____
ROOT
ATOM      1  N   UNL     1       7.443   7.355  17.760  0.00  0.00    +0.000 N 
ATOM      2  C   UNL     1       7.990   6.650  18.820  0.00  0.00    +0.000 A 
ATOM      3  C   UNL     1       7.525   5.450  19.169  0.00  0.00    +0.000 A 
ATOM      4  C   UNL     1       6.475   4.836  18.399  0.00  0.00    +0.000 A 
ATOM      5  C   UNL     1       5.927   5.458  17.342  0.00  0.00    +0.000 A 
ATOM      6  C   UNL     1       6.337   6.872  17.050  0.00  0.00    +0.000 A 
ATOM      7  O   UNL     1       5.703   7.538  16.234  0.00  0.00    +0.000 OA
ENDROOT
BRANCH   4   8
ATOM      8  O   UNL     1       6.108   3.557  18.762  0.00  0.00    +0.000 OA
ATOM      9  H   UNL     1       6.532   3.331  19.607  0.00  0.00    +0.000 HD
ENDBRANCH   4   8
BRANCH   1  10
ATOM     10  C   UNL     1       7.962   8.691  17.432  0.00  0.00    +0.000 C 
BRANCH  10  11
ATOM     11  C   UNL     1       8.690   9.403  18.583  0.00  0.00    +0.000 C 
BRANCH  11  13
ATOM     12  C   UNL     1      10.106  11.215  19.104  0.00  0.00    +0.000 C 
ATOM     13  O   UNL     1       9.222  10.653  18.144  0.00  0.00    +0.000 OA
ENDBRANCH  11  13
ENDBRANCH  10  11
ENDBRANCH   1  10
BRANCH   5  14
ATOM     14  C   UNL     1       4.925   4.824  16.411  0.00  0.00    +0.000 C 
BRANCH  14  15
ATOM     15  C   UNL     1       3.685   4.377  17.164  0.00  0.00    +0.000 A 
ATOM     16  C   UNL     1       2.976   5.288  17.962  0.00  0.00    +0.000 A 
ATOM     17  C   UNL     1       1.917   4.855  18.763  0.00  0.00    +0.000 A 
ATOM     18  C   UNL     1       1.560   3.509  18.767  0.00  0.00    +0.000 A 
ATOM     19 CL   UNL     1       0.297   2.964  19.802  0.00  0.00    +0.000 Cl
ATOM     20  C   UNL     1       2.233   2.598  17.956  0.00  0.00    +0.000 A 
ATOM     21  C   UNL     1       3.293   3.030  17.156  0.00  0.00    +0.000 A 
ENDBRANCH  14  15
ENDBRANCH   5  14
TORSDOF 6
ENDMDL
MODEL 9
REMARK VINA RESULT:      -6.2      3.125      4.787
REMARK  Name = 
REMARK  7 active torsions:
REMARK  status: ('A' for Active; 'I' for Inactive)
REMARK    1  A    between atoms: C_1  and  O_2
REMARK    2  A    between atoms: O_2  and  C_3
REMARK    3  A    between atoms: C_3  and  C_4
REMARK    4  A    between atoms: C_4  and  N_5
REMARK    5  A    between atoms: C_8  and  O_9
REMARK    6  A    between atoms: C_10  and  C_11
REMARK    7  A    between atoms: C_11  and  C_12
REMARK                            x       y       z     vdW  Elec       q    Type
REMARK                         _______ _______ _______ _____ _____    ______ ____
ROOT
ATOM      1  N   UNL     1       3.746   3.759  17.717  0.00  0.00    +0.000 N 
ATOM      2  C   UNL     1       2.655   2.943  17.472  0.00  0.00    +0.000 A 
ATOM      3  C   UNL     1       1.594   2.941  18.279  0.00  0.00    +0.000 A 
ATOM      4  C   UNL     1       1.542   3.847  19.398  0.00  0.00    +0.000 A 
ATOM      5  C   UNL     1       2.557   4.684  19.667  0.00  0.00    +0.000 A 
ATOM      6  C   UNL     1       3.815   4.570  18.856  0.00  0.00    +0.000 A 
ATOM      7  O   UNL     1       4.831   5.164  19.214  0.00  0.00    +0.000 OA
ENDROOT
BRANCH   4   8
ATOM      8  O   UNL     1       0.377   3.855  20.135  0.00  0.00    +0.000 OA
ATOM      9  H   UNL     1       0.597   3.843  21.081  0.00  0.00    +0.000 HD
ENDBRANCH   4   8
BRANCH   1  10
ATOM     10  C   UNL     1       4.911   3.703  16.821  0.00  0.00    +0.000 C 
BRANCH  10  11
ATOM     11  C   UNL     1       5.174   4.987  16.019  0.00  0.00    +0.000 C 
BRANCH  11  13
ATOM     12  C   UNL     1       7.343   4.585  16.850  0.00  0.00    +0.000 C 
ATOM     13  O   UNL     1       6.573   5.171  15.808  0.00  0.00    +0.000 OA
ENDBRANCH  11  13
ENDBRANCH  10  11
ENDBRANCH   1  10
BRANCH   5  14
ATOM     14  C   UNL     1       2.517   5.749  20.732  0.00  0.00    +0.000 C 
BRANCH  14  15
ATOM     15  C   UNL     1       1.949   7.047  20.187  0.00  0.00    +0.000 A 
ATOM     16  C   UNL     1       2.270   7.470  18.888  0.00  0.00    +0.000 A 
ATOM     17  C   UNL     1       1.864   8.725  18.429  0.00  0.00    +0.000 A 
ATOM     18  C   UNL     1       1.133   9.562  19.267  0.00  0.00    +0.000 A 
ATOM     19 CL   UNL     1       0.687  11.134  18.725  0.00  0.00    +0.000 Cl
ATOM     20  C   UNL     1       0.779   9.145  20.548  0.00  0.00    +0.000 A 
ATOM     21  C   UNL     1       1.186   7.891  21.008  0.00  0.00    +0.000 A 
ENDBRANCH  14  15
ENDBRANCH   5  14
TORSDOF 6
ENDMDL
