MODEL 1
REMARK VINA RESULT:      -7.2      0.000      0.000
REMARK  Name = 
REMARK  12 active torsions:
REMARK  status: ('A' for Active; 'I' for Inactive)
REMARK    1  A    between atoms: C_1  and  O_2
REMARK    2  A    between atoms: O_2  and  C_3
REMARK    3  A    between atoms: C_6  and  N_7
REMARK    4  A    between atoms: N_7  and  C_8
REMARK    5  A    between atoms: C_8  and  C_9
REMARK    6  A    between atoms: N_11  and  C_12
REMARK    7  A    between atoms: C_12  and  C_13
REMARK    8  A    between atoms: C_13  and  C_14
REMARK    9  A    between atoms: C_14  and  S_15
REMARK   10  A    between atoms: S_15  and  C_16
REMARK   11  A    between atoms: C_22  and  C_24
REMARK   12  A    between atoms: C_25  and  C_26
REMARK                            x       y       z     vdW  Elec       q    Type
REMARK                         _______ _______ _______ _____ _____    ______ ____
ROOT
ATOM      1  N   UNL     1       1.118   9.586  19.250  0.00  0.00    +0.000 N 
ATOM      2  C   UNL     1       1.900   8.784  18.371  0.00  0.00    +0.000 C 
ATOM      3  O   UNL     1       2.336   9.129  17.276  0.00  0.00    +0.000 OA
ENDROOT
BRANCH   1   7
ATOM      4  C   UNL     1       0.006  13.736  18.622  0.00  0.00    +0.000 A 
ATOM      5  C   UNL     1       1.299  13.365  18.955  0.00  0.00    +0.000 A 
ATOM      6  C   UNL     1       1.682  12.018  18.995  0.00  0.00    +0.000 A 
ATOM      7  C   UNL     1       0.756  10.967  18.900  0.00  0.00    +0.000 A 
ATOM      8  C   UNL     1      -0.535  11.358  18.493  0.00  0.00    +0.000 A 
ATOM      9  C   UNL     1      -0.905  12.724  18.346  0.00  0.00    +0.000 A 
BRANCH   4  11
ATOM     10  C   UNL     1       0.501  15.885  19.521  0.00  0.00    +0.000 C 
ATOM     11  O   UNL     1      -0.198  15.083  18.582  0.00  0.00    +0.000 OA
ENDBRANCH   4  11
ENDBRANCH   1   7
BRANCH   2  12
ATOM     12  C   UNL     1       2.263   7.425  18.750  0.00  0.00    +0.000 C 
ATOM     13  C   UNL     1       2.463   6.298  19.174  0.00  0.00    +0.000 C 
BRANCH  13  14
ATOM     14  C   UNL     1       2.689   5.000  19.745  0.00  0.00    +0.000 A 
ATOM     15  C   UNL     1       1.902   4.532  20.806  0.00  0.00    +0.000 A 
ATOM     16  C   UNL     1       2.182   3.292  21.397  0.00  0.00    +0.000 A 
ATOM     17  C   UNL     1       3.238   2.513  20.925  0.00  0.00    +0.000 A 
ATOM     18  C   UNL     1       4.006   2.968  19.856  0.00  0.00    +0.000 A 
ATOM     19  C   UNL     1       3.733   4.208  19.269  0.00  0.00    +0.000 A 
ENDBRANCH  13  14
ENDBRANCH   2  12
BRANCH   1  20
ATOM     20  C   UNL     1       0.612   8.976  20.502  0.00  0.00    +0.000 C 
BRANCH  20  21
ATOM     21  C   UNL     1       0.420   9.801  21.804  0.00  0.00    +0.000 C 
ATOM     22  O   UNL     1       1.315   9.942  22.635  0.00  0.00    +0.000 OA
ATOM     23  N   UNL     1      -0.809  10.425  21.959  0.00  0.00    +0.000 N 
ATOM     24  H   UNL     1      -1.459  10.454  21.186  0.00  0.00    +0.000 HD
BRANCH  23  25
ATOM     25  C   UNL     1      -1.113  11.217  23.149  0.00  0.00    +0.000 C 
BRANCH  25  26
ATOM     26  C   UNL     1      -2.487  11.888  23.093  0.00  0.00    +0.000 C 
BRANCH  26  27
ATOM     27  C   UNL     1      -2.647  12.727  21.819  0.00  0.00    +0.000 C 
BRANCH  27  28
ATOM     28  S   UNL     1      -3.802  14.098  22.154  0.00  0.00    +0.000 S 
BRANCH  28  29
ATOM     29  C   UNL     1      -5.377  13.291  22.409  0.00  0.00    +0.000 A 
ATOM     30  C   UNL     1      -5.953  13.432  23.680  0.00  0.00    +0.000 A 
ATOM     31  C   UNL     1      -7.184  12.847  23.983  0.00  0.00    +0.000 A 
ATOM     32  C   UNL     1      -7.871  12.130  23.009  0.00  0.00    +0.000 A 
ATOM     33  C   UNL     1      -7.322  12.000  21.734  0.00  0.00    +0.000 A 
ATOM     34  C   UNL     1      -6.081  12.577  21.434  0.00  0.00    +0.000 A 
ENDBRANCH  28  29
ENDBRANCH  27  28
ENDBRANCH  26  27
ENDBRANCH  25  26
ENDBRANCH  23  25
ENDBRANCH  20  21
ENDBRANCH   1  20
TORSDOF 11
ENDMDL
MODEL 2
REMARK VINA RESULT:      -7.2      1.610      1.928
REMARK  Name = 
REMARK  12 active torsions:
REMARK  status: ('A' for Active; 'I' for Inactive)
REMARK    1  A    between atoms: C_1  and  O_2
REMARK    2  A    between atoms: O_2  and  C_3
REMARK    3  A    between atoms: C_6  and  N_7
REMARK    4  A    between atoms: N_7  and  C_8
REMARK    5  A    between atoms: C_8  and  C_9
REMARK    6  A    between atoms: N_11  and  C_12
REMARK    7  A    between atoms: C_12  and  C_13
REMARK    8  A    between atoms: C_13  and  C_14
REMARK    9  A    between atoms: C_14  and  S_15
REMARK   10  A    between atoms: S_15  and  C_16
REMARK   11  A    between atoms: C_22  and  C_24
REMARK   12  A    between atoms: C_25  and  C_26
REMARK                            x       y       z     vdW  Elec       q    Type
REMARK                         _______ _______ _______ _____ _____    ______ ____
ROOT
ATOM      1  N   UNL     1       1.320   9.694  19.406  0.00  0.00    +0.000 N 
ATOM      2  C   UNL     1       1.831   9.069  18.233  0.00  0.00    +0.000 C 
ATOM      3  O   UNL     1       2.004   9.610  17.144  0.00  0.00    +0.000 OA
ENDROOT
BRANCH   1   7
ATOM      4  C   UNL     1       0.080  13.836  19.801  0.00  0.00    +0.000 A 
ATOM      5  C   UNL     1       1.304  13.390  20.270  0.00  0.00    +0.000 A 
ATOM      6  C   UNL     1       1.760  12.094  19.993  0.00  0.00    +0.000 A 
ATOM      7  C   UNL     1       0.942  11.115  19.407  0.00  0.00    +0.000 A 
ATOM      8  C   UNL     1      -0.267  11.603  18.875  0.00  0.00    +0.000 A 
ATOM      9  C   UNL     1      -0.691  12.949  19.059  0.00  0.00    +0.000 A 
BRANCH   4  11
ATOM     10  C   UNL     1       0.709  15.821  20.957  0.00  0.00    +0.000 C 
ATOM     11  O   UNL     1      -0.201  15.133  20.113  0.00  0.00    +0.000 OA
ENDBRANCH   4  11
ENDBRANCH   1   7
BRANCH   2  12
ATOM     12  C   UNL     1       2.218   7.664  18.264  0.00  0.00    +0.000 C 
ATOM     13  C   UNL     1       2.464   6.473  18.162  0.00  0.00    +0.000 C 
BRANCH  13  14
ATOM     14  C   UNL     1       2.679   5.061  18.019  0.00  0.00    +0.000 A 
ATOM     15  C   UNL     1       1.629   4.150  18.193  0.00  0.00    +0.000 A 
ATOM     16  C   UNL     1       1.872   2.771  18.118  0.00  0.00    +0.000 A 
ATOM     17  C   UNL     1       3.159   2.300  17.859  0.00  0.00    +0.000 A 
ATOM     18  C   UNL     1       4.199   3.206  17.664  0.00  0.00    +0.000 A 
ATOM     19  C   UNL     1       3.960   4.581  17.745  0.00  0.00    +0.000 A 
ENDBRANCH  13  14
ENDBRANCH   2  12
BRANCH   1  20
ATOM     20  C   UNL     1       1.106   8.865  20.615  0.00  0.00    +0.000 C 
BRANCH  20  21
ATOM     21  C   UNL     1      -0.078   9.113  21.589  0.00  0.00    +0.000 C 
ATOM     22  O   UNL     1      -0.939   8.265  21.812  0.00  0.00    +0.000 OA
ATOM     23  N   UNL     1      -0.087  10.336  22.243  0.00  0.00    +0.000 N 
ATOM     24  H   UNL     1       0.721  10.940  22.191  0.00  0.00    +0.000 HD
BRANCH  23  25
ATOM     25  C   UNL     1      -1.158  10.690  23.173  0.00  0.00    +0.000 C 
BRANCH  25  26
ATOM     26  C   UNL     1      -1.828  12.026  22.840  0.00  0.00    +0.000 C 
BRANCH  26  27
ATOM     27  C   UNL     1      -3.165  12.178  23.575  0.00  0.00    +0.000 C 
BRANCH  27  28
ATOM     28  S   UNL     1      -4.106  13.544  22.814  0.00  0.00    +0.000 S 
BRANCH  28  29
ATOM     29  C   UNL     1      -4.846  12.809  21.362  0.00  0.00    +0.000 A 
ATOM     30  C   UNL     1      -6.179  12.390  21.484  0.00  0.00    +0.000 A 
ATOM     31  C   UNL     1      -6.855  11.809  20.408  0.00  0.00    +0.000 A 
ATOM     32  C   UNL     1      -6.211  11.659  19.184  0.00  0.00    +0.000 A 
ATOM     33  C   UNL     1      -4.893  12.092  19.040  0.00  0.00    +0.000 A 
ATOM     34  C   UNL     1      -4.213  12.664  20.124  0.00  0.00    +0.000 A 
ENDBRANCH  28  29
ENDBRANCH  27  28
ENDBRANCH  26  27
ENDBRANCH  25  26
ENDBRANCH  23  25
ENDBRANCH  20  21
ENDBRANCH   1  20
TORSDOF 11
ENDMDL
MODEL 3
REMARK VINA RESULT:      -7.2      2.252      7.284
REMARK  Name = 
REMARK  12 active torsions:
REMARK  status: ('A' for Active; 'I' for Inactive)
REMARK    1  A    between atoms: C_1  and  O_2
REMARK    2  A    between atoms: O_2  and  C_3
REMARK    3  A    between atoms: C_6  and  N_7
REMARK    4  A    between atoms: N_7  and  C_8
REMARK    5  A    between atoms: C_8  and  C_9
REMARK    6  A    between atoms: N_11  and  C_12
REMARK    7  A    between atoms: C_12  and  C_13
REMARK    8  A    between atoms: C_13  and  C_14
REMARK    9  A    between atoms: C_14  and  S_15
REMARK   10  A    between atoms: S_15  and  C_16
REMARK   11  A    between atoms: C_22  and  C_24
REMARK   12  A    between atoms: C_25  and  C_26
REMARK                            x       y       z     vdW  Elec       q    Type
REMARK                         _______ _______ _______ _____ _____    ______ ____
ROOT
ATOM      1  N   UNL     1       0.798   9.826  20.504  0.00  0.00    +0.000 N 
ATOM      2  C   UNL     1      -0.163   9.587  21.526  0.00  0.00    +0.000 C 
ATOM      3  O   UNL     1      -0.482   8.488  21.974  0.00  0.00    +0.000 OA
ENDROOT
BRANCH   1   7
ATOM      4  C   UNL     1       2.595   6.438  18.469  0.00  0.00    +0.000 A 
ATOM      5  C   UNL     1       2.362   7.641  17.823  0.00  0.00    +0.000 A 
ATOM      6  C   UNL     1       1.934   8.773  18.529  0.00  0.00    +0.000 A 
ATOM      7  C   UNL     1       1.529   8.718  19.872  0.00  0.00    +0.000 A 
ATOM      8  C   UNL     1       1.838   7.510  20.528  0.00  0.00    +0.000 A 
ATOM      9  C   UNL     1       2.374   6.386  19.840  0.00  0.00    +0.000 A 
BRANCH   4  11
ATOM     10  C   UNL     1       4.344   4.920  17.913  0.00  0.00    +0.000 C 
ATOM     11  O   UNL     1       3.051   5.444  17.654  0.00  0.00    +0.000 OA
ENDBRANCH   4  11
ENDBRANCH   1   7
BRANCH   2  12
ATOM     12  C   UNL     1      -0.859  10.705  22.152  0.00  0.00    +0.000 C 
ATOM     13  C   UNL     1      -1.568  11.578  22.624  0.00  0.00    +0.000 C 
BRANCH  13  14
ATOM     14  C   UNL     1      -2.445  12.603  23.115  0.00  0.00    +0.000 A 
ATOM     15  C   UNL     1      -2.194  13.956  22.850  0.00  0.00    +0.000 A 
ATOM     16  C   UNL     1      -3.022  14.946  23.396  0.00  0.00    +0.000 A 
ATOM     17  C   UNL     1      -4.107  14.590  24.196  0.00  0.00    +0.000 A 
ATOM     18  C   UNL     1      -4.371  13.244  24.441  0.00  0.00    +0.000 A 
ATOM     19  C   UNL     1      -3.542  12.255  23.904  0.00  0.00    +0.000 A 
ENDBRANCH  13  14
ENDBRANCH   2  12
BRANCH   1  20
ATOM     20  C   UNL     1       1.001  11.217  20.034  0.00  0.00    +0.000 C 
BRANCH  20  21
ATOM     21  C   UNL     1       0.128  11.845  18.913  0.00  0.00    +0.000 C 
ATOM     22  O   UNL     1       0.398  12.925  18.393  0.00  0.00    +0.000 OA
ATOM     23  N   UNL     1      -0.956  11.093  18.486  0.00  0.00    +0.000 N 
ATOM     24  H   UNL     1      -1.054  10.135  18.790  0.00  0.00    +0.000 HD
BRANCH  23  25
ATOM     25  C   UNL     1      -1.859  11.586  17.448  0.00  0.00    +0.000 C 
BRANCH  25  26
ATOM     26  C   UNL     1      -2.449  10.470  16.582  0.00  0.00    +0.000 C 
BRANCH  26  27
ATOM     27  C   UNL     1      -3.894  10.155  16.984  0.00  0.00    +0.000 C 
BRANCH  27  28
ATOM     28  S   UNL     1      -4.857  11.704  16.993  0.00  0.00    +0.000 S 
BRANCH  28  29
ATOM     29  C   UNL     1      -5.591  11.753  18.623  0.00  0.00    +0.000 A 
ATOM     30  C   UNL     1      -4.968  12.584  19.565  0.00  0.00    +0.000 A 
ATOM     31  C   UNL     1      -5.463  12.701  20.865  0.00  0.00    +0.000 A 
ATOM     32  C   UNL     1      -6.608  12.003  21.236  0.00  0.00    +0.000 A 
ATOM     33  C   UNL     1      -7.253  11.191  20.304  0.00  0.00    +0.000 A 
ATOM     34  C   UNL     1      -6.748  11.066  19.003  0.00  0.00    +0.000 A 
ENDBRANCH  28  29
ENDBRANCH  27  28
ENDBRANCH  26  27
ENDBRANCH  25  26
ENDBRANCH  23  25
ENDBRANCH  20  21
ENDBRANCH   1  20
TORSDOF 11
ENDMDL
MODEL 4
REMARK VINA RESULT:      -7.1      2.434      4.412
REMARK  Name = 
REMARK  12 active torsions:
REMARK  status: ('A' for Active; 'I' for Inactive)
REMARK    1  A    between atoms: C_1  and  O_2
REMARK    2  A    between atoms: O_2  and  C_3
REMARK    3  A    between atoms: C_6  and  N_7
REMARK    4  A    between atoms: N_7  and  C_8
REMARK    5  A    between atoms: C_8  and  C_9
REMARK    6  A    between atoms: N_11  and  C_12
REMARK    7  A    between atoms: C_12  and  C_13
REMARK    8  A    between atoms: C_13  and  C_14
REMARK    9  A    between atoms: C_14  and  S_15
REMARK   10  A    between atoms: S_15  and  C_16
REMARK   11  A    between atoms: C_22  and  C_24
REMARK   12  A    between atoms: C_25  and  C_26
REMARK                            x       y       z     vdW  Elec       q    Type
REMARK                         _______ _______ _______ _____ _____    ______ ____
ROOT
ATOM      1  N   UNL     1      -0.513  11.308  21.439  0.00  0.00    +0.000 N 
ATOM      2  C   UNL     1      -0.301  10.094  22.152  0.00  0.00    +0.000 C 
ATOM      3  O   UNL     1      -0.759   9.818  23.258  0.00  0.00    +0.000 OA
ENDROOT
BRANCH   1   7
ATOM      4  C   UNL     1      -2.913  14.687  22.732  0.00  0.00    +0.000 A 
ATOM      5  C   UNL     1      -3.424  13.697  21.910  0.00  0.00    +0.000 A 
ATOM      6  C   UNL     1      -2.695  12.533  21.633  0.00  0.00    +0.000 A 
ATOM      7  C   UNL     1      -1.347  12.382  21.997  0.00  0.00    +0.000 A 
ATOM      8  C   UNL     1      -0.868  13.362  22.888  0.00  0.00    +0.000 A 
ATOM      9  C   UNL     1      -1.642  14.495  23.261  0.00  0.00    +0.000 A 
BRANCH   4  11
ATOM     10  C   UNL     1      -3.691  16.830  22.044  0.00  0.00    +0.000 C 
ATOM     11  O   UNL     1      -3.760  15.734  22.943  0.00  0.00    +0.000 OA
ENDBRANCH   4  11
ENDBRANCH   1   7
BRANCH   2  12
ATOM     12  C   UNL     1       0.513   9.036  21.568  0.00  0.00    +0.000 C 
ATOM     13  C   UNL     1       1.157   8.207  20.946  0.00  0.00    +0.000 C 
BRANCH  13  14
ATOM     14  C   UNL     1       1.856   7.228  20.161  0.00  0.00    +0.000 A 
ATOM     15  C   UNL     1       2.438   7.570  18.933  0.00  0.00    +0.000 A 
ATOM     16  C   UNL     1       3.055   6.586  18.148  0.00  0.00    +0.000 A 
ATOM     17  C   UNL     1       3.103   5.264  18.591  0.00  0.00    +0.000 A 
ATOM     18  C   UNL     1       2.545   4.929  19.823  0.00  0.00    +0.000 A 
ATOM     19  C   UNL     1       1.923   5.907  20.604  0.00  0.00    +0.000 A 
ENDBRANCH  13  14
ENDBRANCH   2  12
BRANCH   1  20
ATOM     20  C   UNL     1       0.183  11.500  20.145  0.00  0.00    +0.000 C 
BRANCH  20  21
ATOM     21  C   UNL     1      -0.581  11.543  18.793  0.00  0.00    +0.000 C 
ATOM     22  O   UNL     1      -0.694  12.572  18.130  0.00  0.00    +0.000 OA
ATOM     23  N   UNL     1      -1.092  10.336  18.339  0.00  0.00    +0.000 N 
ATOM     24  H   UNL     1      -0.831   9.475  18.799  0.00  0.00    +0.000 HD
BRANCH  23  25
ATOM     25  C   UNL     1      -1.843  10.253  17.088  0.00  0.00    +0.000 C 
BRANCH  25  26
ATOM     26  C   UNL     1      -3.354  10.126  17.298  0.00  0.00    +0.000 C 
BRANCH  26  27
ATOM     27  C   UNL     1      -3.927  11.370  17.987  0.00  0.00    +0.000 C 
BRANCH  27  28
ATOM     28  S   UNL     1      -5.696  11.516  17.569  0.00  0.00    +0.000 S 
BRANCH  28  29
ATOM     29  C   UNL     1      -6.540  10.881  19.012  0.00  0.00    +0.000 A 
ATOM     30  C   UNL     1      -6.929  11.825  19.974  0.00  0.00    +0.000 A 
ATOM     31  C   UNL     1      -7.600  11.437  21.136  0.00  0.00    +0.000 A 
ATOM     32  C   UNL     1      -7.914  10.097  21.342  0.00  0.00    +0.000 A 
ATOM     33  C   UNL     1      -7.555   9.150  20.383  0.00  0.00    +0.000 A 
ATOM     34  C   UNL     1      -6.871   9.540  19.224  0.00  0.00    +0.000 A 
ENDBRANCH  28  29
ENDBRANCH  27  28
ENDBRANCH  26  27
ENDBRANCH  25  26
ENDBRANCH  23  25
ENDBRANCH  20  21
ENDBRANCH   1  20
TORSDOF 11
ENDMDL
MODEL 5
REMARK VINA RESULT:      -7.1      4.222      9.193
REMARK  Name = 
REMARK  12 active torsions:
REMARK  status: ('A' for Active; 'I' for Inactive)
REMARK    1  A    between atoms: C_1  and  O_2
REMARK    2  A    between atoms: O_2  and  C_3
REMARK    3  A    between atoms: C_6  and  N_7
REMARK    4  A    between atoms: N_7  and  C_8
REMARK    5  A    between atoms: C_8  and  C_9
REMARK    6  A    between atoms: N_11  and  C_12
REMARK    7  A    between atoms: C_12  and  C_13
REMARK    8  A    between atoms: C_13  and  C_14
REMARK    9  A    between atoms: C_14  and  S_15
REMARK   10  A    between atoms: S_15  and  C_16
REMARK   11  A    between atoms: C_22  and  C_24
REMARK   12  A    between atoms: C_25  and  C_26
REMARK                            x       y       z     vdW  Elec       q    Type
REMARK                         _______ _______ _______ _____ _____    ______ ____
ROOT
ATOM      1  N   UNL     1       0.680   9.982  20.585  0.00  0.00    +0.000 N 
ATOM      2  C   UNL     1       1.027   9.014  21.569  0.00  0.00    +0.000 C 
ATOM      3  O   UNL     1       1.225   9.235  22.761  0.00  0.00    +0.000 OA
ENDROOT
BRANCH   1   7
ATOM      4  C   UNL     1      -0.035  14.207  21.284  0.00  0.00    +0.000 A 
ATOM      5  C   UNL     1      -0.959  13.239  21.640  0.00  0.00    +0.000 A 
ATOM      6  C   UNL     1      -0.651  11.875  21.559  0.00  0.00    +0.000 A 
ATOM      7  C   UNL     1       0.516  11.400  20.938  0.00  0.00    +0.000 A 
ATOM      8  C   UNL     1       1.471  12.394  20.648  0.00  0.00    +0.000 A 
ATOM      9  C   UNL     1       1.206  13.779  20.827  0.00  0.00    +0.000 A 
BRANCH   4  11
ATOM     10  C   UNL     1       0.010  16.477  20.565  0.00  0.00    +0.000 C 
ATOM     11  O   UNL     1      -0.468  15.487  21.462  0.00  0.00    +0.000 OA
ENDBRANCH   4  11
ENDBRANCH   1   7
BRANCH   2  12
ATOM     12  C   UNL     1       1.164   7.611  21.199  0.00  0.00    +0.000 C 
ATOM     13  C   UNL     1       1.425   6.458  20.896  0.00  0.00    +0.000 C 
BRANCH  13  14
ATOM     14  C   UNL     1       1.793   5.129  20.496  0.00  0.00    +0.000 A 
ATOM     15  C   UNL     1       1.753   4.744  19.148  0.00  0.00    +0.000 A 
ATOM     16  C   UNL     1       2.047   3.423  18.784  0.00  0.00    +0.000 A 
ATOM     17  C   UNL     1       2.392   2.488  19.759  0.00  0.00    +0.000 A 
ATOM     18  C   UNL     1       2.454   2.876  21.096  0.00  0.00    +0.000 A 
ATOM     19  C   UNL     1       2.154   4.191  21.462  0.00  0.00    +0.000 A 
ENDBRANCH  13  14
ENDBRANCH   2  12
BRANCH   1  20
ATOM     20  C   UNL     1       0.554   9.545  19.175  0.00  0.00    +0.000 C 
BRANCH  20  21
ATOM     21  C   UNL     1       1.775   9.483  18.217  0.00  0.00    +0.000 C 
ATOM     22  O   UNL     1       2.218  10.477  17.646  0.00  0.00    +0.000 OA
ATOM     23  N   UNL     1       2.382   8.243  18.078  0.00  0.00    +0.000 N 
ATOM     24  H   UNL     1       2.125   7.485  18.694  0.00  0.00    +0.000 HD
BRANCH  23  25
ATOM     25  C   UNL     1       3.531   8.056  17.194  0.00  0.00    +0.000 C 
BRANCH  25  26
ATOM     26  C   UNL     1       4.210   6.696  17.367  0.00  0.00    +0.000 C 
BRANCH  26  27
ATOM     27  C   UNL     1       5.176   6.403  16.213  0.00  0.00    +0.000 C 
BRANCH  27  28
ATOM     28  S   UNL     1       5.344   4.597  16.024  0.00  0.00    +0.000 S 
BRANCH  28  29
ATOM     29  C   UNL     1       5.972   4.387  14.364  0.00  0.00    +0.000 A 
ATOM     30  C   UNL     1       7.167   5.058  14.059  0.00  0.00    +0.000 A 
ATOM     31  C   UNL     1       7.748   4.957  12.792  0.00  0.00    +0.000 A 
ATOM     32  C   UNL     1       7.153   4.162  11.817  0.00  0.00    +0.000 A 
ATOM     33  C   UNL     1       5.979   3.471  12.113  0.00  0.00    +0.000 A 
ATOM     34  C   UNL     1       5.391   3.583  13.380  0.00  0.00    +0.000 A 
ENDBRANCH  28  29
ENDBRANCH  27  28
ENDBRANCH  26  27
ENDBRANCH  25  26
ENDBRANCH  23  25
ENDBRANCH  20  21
ENDBRANCH   1  20
TORSDOF 11
ENDMDL
MODEL 6
REMARK VINA RESULT:      -7.1      1.274      2.013
REMARK  Name = 
REMARK  12 active torsions:
REMARK  status: ('A' for Active; 'I' for Inactive)
REMARK    1  A    between atoms: C_1  and  O_2
REMARK    2  A    between atoms: O_2  and  C_3
REMARK    3  A    between atoms: C_6  and  N_7
REMARK    4  A    between atoms: N_7  and  C_8
REMARK    5  A    between atoms: C_8  and  C_9
REMARK    6  A    between atoms: N_11  and  C_12
REMARK    7  A    between atoms: C_12  and  C_13
REMARK    8  A    between atoms: C_13  and  C_14
REMARK    9  A    between atoms: C_14  and  S_15
REMARK   10  A    between atoms: S_15  and  C_16
REMARK   11  A    between atoms: C_22  and  C_24
REMARK   12  A    between atoms: C_25  and  C_26
REMARK                            x       y       z     vdW  Elec       q    Type
REMARK                         _______ _______ _______ _____ _____    ______ ____
ROOT
ATOM      1  N   UNL     1       1.375   9.983  19.473  0.00  0.00    +0.000 N 
ATOM      2  C   UNL     1       1.740   9.021  18.489  0.00  0.00    +0.000 C 
ATOM      3  O   UNL     1       1.762   9.206  17.274  0.00  0.00    +0.000 OA
ENDROOT
BRANCH   1   7
ATOM      4  C   UNL     1       0.203  14.102  18.759  0.00  0.00    +0.000 A 
ATOM      5  C   UNL     1       1.521  13.745  18.993  0.00  0.00    +0.000 A 
ATOM      6  C   UNL     1       1.909  12.401  19.060  0.00  0.00    +0.000 A 
ATOM      7  C   UNL     1       0.980  11.347  19.094  0.00  0.00    +0.000 A 
ATOM      8  C   UNL     1      -0.342  11.722  18.785  0.00  0.00    +0.000 A 
ATOM      9  C   UNL     1      -0.727  13.081  18.609  0.00  0.00    +0.000 A 
BRANCH   4  11
ATOM     10  C   UNL     1      -0.986  16.017  19.530  0.00  0.00    +0.000 C 
ATOM     11  O   UNL     1      -0.006  15.447  18.675  0.00  0.00    +0.000 OA
ENDBRANCH   4  11
ENDBRANCH   1   7
BRANCH   2  12
ATOM     12  C   UNL     1       2.147   7.681  18.891  0.00  0.00    +0.000 C 
ATOM     13  C   UNL     1       2.369   6.560  19.318  0.00  0.00    +0.000 C 
BRANCH  13  14
ATOM     14  C   UNL     1       2.608   5.266  19.892  0.00  0.00    +0.000 A 
ATOM     15  C   UNL     1       3.634   4.441  19.409  0.00  0.00    +0.000 A 
ATOM     16  C   UNL     1       3.808   3.153  19.934  0.00  0.00    +0.000 A 
ATOM     17  C   UNL     1       2.969   2.690  20.947  0.00  0.00    +0.000 A 
ATOM     18  C   UNL     1       1.964   3.518  21.443  0.00  0.00    +0.000 A 
ATOM     19  C   UNL     1       1.784   4.800  20.915  0.00  0.00    +0.000 A 
ENDBRANCH  13  14
ENDBRANCH   2  12
BRANCH   1  20
ATOM     20  C   UNL     1       1.331   9.561  20.893  0.00  0.00    +0.000 C 
BRANCH  20  21
ATOM     21  C   UNL     1       0.012   9.553  21.712  0.00  0.00    +0.000 C 
ATOM     22  O   UNL     1      -0.709   8.561  21.794  0.00  0.00    +0.000 OA
ATOM     23  N   UNL     1      -0.290  10.720  22.400  0.00  0.00    +0.000 N 
ATOM     24  H   UNL     1       0.401  11.453  22.473  0.00  0.00    +0.000 HD
BRANCH  23  25
ATOM     25  C   UNL     1      -1.511  10.838  23.194  0.00  0.00    +0.000 C 
BRANCH  25  26
ATOM     26  C   UNL     1      -2.198  12.198  23.044  0.00  0.00    +0.000 C 
BRANCH  26  27
ATOM     27  C   UNL     1      -2.601  12.463  21.589  0.00  0.00    +0.000 C 
BRANCH  27  28
ATOM     28  S   UNL     1      -4.191  13.356  21.568  0.00  0.00    +0.000 S 
BRANCH  28  29
ATOM     29  C   UNL     1      -5.210  12.407  20.447  0.00  0.00    +0.000 A 
ATOM     30  C   UNL     1      -4.645  12.094  19.201  0.00  0.00    +0.000 A 
ATOM     31  C   UNL     1      -5.353  11.352  18.253  0.00  0.00    +0.000 A 
ATOM     32  C   UNL     1      -6.631  10.889  18.548  0.00  0.00    +0.000 A 
ATOM     33  C   UNL     1      -7.197  11.171  19.790  0.00  0.00    +0.000 A 
ATOM     34  C   UNL     1      -6.491  11.927  20.736  0.00  0.00    +0.000 A 
ENDBRANCH  28  29
ENDBRANCH  27  28
ENDBRANCH  26  27
ENDBRANCH  25  26
ENDBRANCH  23  25
ENDBRANCH  20  21
ENDBRANCH   1  20
TORSDOF 11
ENDMDL
MODEL 7
REMARK VINA RESULT:      -7.0      2.307      7.129
REMARK  Name = 
REMARK  12 active torsions:
REMARK  status: ('A' for Active; 'I' for Inactive)
REMARK    1  A    between atoms: C_1  and  O_2
REMARK    2  A    between atoms: O_2  and  C_3
REMARK    3  A    between atoms: C_6  and  N_7
REMARK    4  A    between atoms: N_7  and  C_8
REMARK    5  A    between atoms: C_8  and  C_9
REMARK    6  A    between atoms: N_11  and  C_12
REMARK    7  A    between atoms: C_12  and  C_13
REMARK    8  A    between atoms: C_13  and  C_14
REMARK    9  A    between atoms: C_14  and  S_15
REMARK   10  A    between atoms: S_15  and  C_16
REMARK   11  A    between atoms: C_22  and  C_24
REMARK   12  A    between atoms: C_25  and  C_26
REMARK                            x       y       z     vdW  Elec       q    Type
REMARK                         _______ _______ _______ _____ _____    ______ ____
ROOT
ATOM      1  N   UNL     1       0.831   9.687  19.999  0.00  0.00    +0.000 N 
ATOM      2  C   UNL     1      -0.057   9.492  21.094  0.00  0.00    +0.000 C 
ATOM      3  O   UNL     1      -0.307   8.419  21.638  0.00  0.00    +0.000 OA
ENDROOT
BRANCH   1   7
ATOM      4  C   UNL     1       3.327   6.487  18.456  0.00  0.00    +0.000 A 
ATOM      5  C   UNL     1       2.721   6.409  19.699  0.00  0.00    +0.000 A 
ATOM      6  C   UNL     1       1.792   7.371  20.116  0.00  0.00    +0.000 A 
ATOM      7  C   UNL     1       1.564   8.560  19.404  0.00  0.00    +0.000 A 
ATOM      8  C   UNL     1       2.132   8.589  18.116  0.00  0.00    +0.000 A 
ATOM      9  C   UNL     1       2.995   7.562  17.641  0.00  0.00    +0.000 A 
BRANCH   4  11
ATOM     10  C   UNL     1       5.529   5.586  18.570  0.00  0.00    +0.000 C 
ATOM     11  O   UNL     1       4.172   5.453  18.179  0.00  0.00    +0.000 OA
ENDBRANCH   4  11
ENDBRANCH   1   7
BRANCH   2  12
ATOM     12  C   UNL     1      -0.757  10.629  21.680  0.00  0.00    +0.000 C 
ATOM     13  C   UNL     1      -1.294  11.529  22.302  0.00  0.00    +0.000 C 
BRANCH  13  14
ATOM     14  C   UNL     1      -1.947  12.537  23.090  0.00  0.00    +0.000 A 
ATOM     15  C   UNL     1      -1.285  13.724  23.436  0.00  0.00    +0.000 A 
ATOM     16  C   UNL     1      -1.913  14.664  24.264  0.00  0.00    +0.000 A 
ATOM     17  C   UNL     1      -3.203  14.430  24.739  0.00  0.00    +0.000 A 
ATOM     18  C   UNL     1      -3.869  13.261  24.377  0.00  0.00    +0.000 A 
ATOM     19  C   UNL     1      -3.242  12.318  23.557  0.00  0.00    +0.000 A 
ENDBRANCH  13  14
ENDBRANCH   2  12
BRANCH   1  20
ATOM     20  C   UNL     1       0.952  11.045  19.419  0.00  0.00    +0.000 C 
BRANCH  20  21
ATOM     21  C   UNL     1      -0.190  11.695  18.592  0.00  0.00    +0.000 C 
ATOM     22  O   UNL     1      -0.326  12.913  18.496  0.00  0.00    +0.000 OA
ATOM     23  N   UNL     1      -1.031  10.823  17.916  0.00  0.00    +0.000 N 
ATOM     24  H   UNL     1      -0.794   9.843  17.855  0.00  0.00    +0.000 HD
BRANCH  23  25
ATOM     25  C   UNL     1      -2.151  11.316  17.117  0.00  0.00    +0.000 C 
BRANCH  25  26
ATOM     26  C   UNL     1      -3.447  11.457  17.919  0.00  0.00    +0.000 C 
BRANCH  26  27
ATOM     27  C   UNL     1      -4.676  11.168  17.049  0.00  0.00    +0.000 C 
BRANCH  27  28
ATOM     28  S   UNL     1      -5.898  12.501  17.287  0.00  0.00    +0.000 S 
BRANCH  28  29
ATOM     29  C   UNL     1      -6.320  12.402  19.021  0.00  0.00    +0.000 A 
ATOM     30  C   UNL     1      -7.162  11.346  19.400  0.00  0.00    +0.000 A 
ATOM     31  C   UNL     1      -7.548  11.173  20.731  0.00  0.00    +0.000 A 
ATOM     32  C   UNL     1      -7.078  12.043  21.709  0.00  0.00    +0.000 A 
ATOM     33  C   UNL     1      -6.221  13.083  21.352  0.00  0.00    +0.000 A 
ATOM     34  C   UNL     1      -5.844  13.263  20.014  0.00  0.00    +0.000 A 
ENDBRANCH  28  29
ENDBRANCH  27  28
ENDBRANCH  26  27
ENDBRANCH  25  26
ENDBRANCH  23  25
ENDBRANCH  20  21
ENDBRANCH   1  20
TORSDOF 11
ENDMDL
MODEL 8
REMARK VINA RESULT:      -7.0      1.350      1.680
REMARK  Name = 
REMARK  12 active torsions:
REMARK  status: ('A' for Active; 'I' for Inactive)
REMARK    1  A    between atoms: C_1  and  O_2
REMARK    2  A    between atoms: O_2  and  C_3
REMARK    3  A    between atoms: C_6  and  N_7
REMARK    4  A    between atoms: N_7  and  C_8
REMARK    5  A    between atoms: C_8  and  C_9
REMARK    6  A    between atoms: N_11  and  C_12
REMARK    7  A    between atoms: C_12  and  C_13
REMARK    8  A    between atoms: C_13  and  C_14
REMARK    9  A    between atoms: C_14  and  S_15
REMARK   10  A    between atoms: S_15  and  C_16
REMARK   11  A    between atoms: C_22  and  C_24
REMARK   12  A    between atoms: C_25  and  C_26
REMARK                            x       y       z     vdW  Elec       q    Type
REMARK                         _______ _______ _______ _____ _____    ______ ____
ROOT
ATOM      1  N   UNL     1       1.309   9.587  19.415  0.00  0.00    +0.000 N 
ATOM      2  C   UNL     1       1.805   8.913  18.264  0.00  0.00    +0.000 C 
ATOM      3  O   UNL     1       1.911   9.391  17.137  0.00  0.00    +0.000 OA
ENDROOT
BRANCH   1   7
ATOM      4  C   UNL     1       0.085  13.707  18.802  0.00  0.00    +0.000 A 
ATOM      5  C   UNL     1      -0.756  12.644  18.521  0.00  0.00    +0.000 A 
ATOM      6  C   UNL     1      -0.412  11.332  18.874  0.00  0.00    +0.000 A 
ATOM      7  C   UNL     1       0.865  10.987  19.345  0.00  0.00    +0.000 A 
ATOM      8  C   UNL     1       1.678  12.084  19.690  0.00  0.00    +0.000 A 
ATOM      9  C   UNL     1       1.292  13.428  19.433  0.00  0.00    +0.000 A 
BRANCH   4  11
ATOM     10  C   UNL     1      -0.185  16.018  19.316  0.00  0.00    +0.000 C 
ATOM     11  O   UNL     1      -0.410  14.925  18.439  0.00  0.00    +0.000 OA
ENDBRANCH   4  11
ENDBRANCH   1   7
BRANCH   2  12
ATOM     12  C   UNL     1       2.258   7.531  18.364  0.00  0.00    +0.000 C 
ATOM     13  C   UNL     1       2.600   6.362  18.304  0.00  0.00    +0.000 C 
BRANCH  13  14
ATOM     14  C   UNL     1       2.939   4.971  18.189  0.00  0.00    +0.000 A 
ATOM     15  C   UNL     1       2.044   4.056  17.617  0.00  0.00    +0.000 A 
ATOM     16  C   UNL     1       2.363   2.691  17.576  0.00  0.00    +0.000 A 
ATOM     17  C   UNL     1       3.576   2.239  18.095  0.00  0.00    +0.000 A 
ATOM     18  C   UNL     1       4.475   3.152  18.643  0.00  0.00    +0.000 A 
ATOM     19  C   UNL     1       4.156   4.512  18.691  0.00  0.00    +0.000 A 
ENDBRANCH  13  14
ENDBRANCH   2  12
BRANCH   1  20
ATOM     20  C   UNL     1       1.180   8.827  20.681  0.00  0.00    +0.000 C 
BRANCH  20  21
ATOM     21  C   UNL     1      -0.010   9.040  21.656  0.00  0.00    +0.000 C 
ATOM     22  O   UNL     1      -0.895   8.202  21.811  0.00  0.00    +0.000 OA
ATOM     23  N   UNL     1       0.005  10.216  22.391  0.00  0.00    +0.000 N 
ATOM     24  H   UNL     1       0.828  10.800  22.389  0.00  0.00    +0.000 HD
BRANCH  23  25
ATOM     25  C   UNL     1      -1.069  10.536  23.331  0.00  0.00    +0.000 C 
BRANCH  25  26
ATOM     26  C   UNL     1      -1.990  11.653  22.836  0.00  0.00    +0.000 C 
BRANCH  26  27
ATOM     27  C   UNL     1      -1.321  13.026  22.962  0.00  0.00    +0.000 C 
BRANCH  27  28
ATOM     28  S   UNL     1      -2.318  14.257  22.057  0.00  0.00    +0.000 S 
BRANCH  28  29
ATOM     29  C   UNL     1      -3.998  13.673  22.235  0.00  0.00    +0.000 A 
ATOM     30  C   UNL     1      -4.618  13.918  23.470  0.00  0.00    +0.000 A 
ATOM     31  C   UNL     1      -5.932  13.510  23.712  0.00  0.00    +0.000 A 
ATOM     32  C   UNL     1      -6.655  12.869  22.711  0.00  0.00    +0.000 A 
ATOM     33  C   UNL     1      -6.061  12.640  21.470  0.00  0.00    +0.000 A 
ATOM     34  C   UNL     1      -4.739  13.039  21.233  0.00  0.00    +0.000 A 
ENDBRANCH  28  29
ENDBRANCH  27  28
ENDBRANCH  26  27
ENDBRANCH  25  26
ENDBRANCH  23  25
ENDBRANCH  20  21
ENDBRANCH   1  20
TORSDOF 11
ENDMDL
MODEL 9
REMARK VINA RESULT:      -7.0      1.485      1.848
REMARK  Name = 
REMARK  12 active torsions:
REMARK  status: ('A' for Active; 'I' for Inactive)
REMARK    1  A    between atoms: C_1  and  O_2
REMARK    2  A    between atoms: O_2  and  C_3
REMARK    3  A    between atoms: C_6  and  N_7
REMARK    4  A    between atoms: N_7  and  C_8
REMARK    5  A    between atoms: C_8  and  C_9
REMARK    6  A    between atoms: N_11  and  C_12
REMARK    7  A    between atoms: C_12  and  C_13
REMARK    8  A    between atoms: C_13  and  C_14
REMARK    9  A    between atoms: C_14  and  S_15
REMARK   10  A    between atoms: S_15  and  C_16
REMARK   11  A    between atoms: C_22  and  C_24
REMARK   12  A    between atoms: C_25  and  C_26
REMARK                            x       y       z     vdW  Elec       q    Type
REMARK                         _______ _______ _______ _____ _____    ______ ____
ROOT
ATOM      1  N   UNL     1       1.140  10.700  19.165  0.00  0.00    +0.000 N 
ATOM      2  C   UNL     1       1.963  10.089  18.177  0.00  0.00    +0.000 C 
ATOM      3  O   UNL     1       2.608  10.677  17.312  0.00  0.00    +0.000 OA
ENDROOT
BRANCH   1   7
ATOM      4  C   UNL     1       0.860  15.029  18.990  0.00  0.00    +0.000 A 
ATOM      5  C   UNL     1      -0.104  14.209  18.428  0.00  0.00    +0.000 A 
ATOM      6  C   UNL     1      -0.088  12.823  18.630  0.00  0.00    +0.000 A 
ATOM      7  C   UNL     1       0.993  12.161  19.236  0.00  0.00    +0.000 A 
ATOM      8  C   UNL     1       1.925  13.012  19.861  0.00  0.00    +0.000 A 
ATOM      9  C   UNL     1       1.856  14.428  19.750  0.00  0.00    +0.000 A 
BRANCH   4  11
ATOM     10  C   UNL     1      -0.635  16.804  18.456  0.00  0.00    +0.000 C 
ATOM     11  O   UNL     1       0.681  16.357  18.740  0.00  0.00    +0.000 OA
ENDBRANCH   4  11
ENDBRANCH   1   7
BRANCH   2  12
ATOM     12  C   UNL     1       2.108   8.640  18.140  0.00  0.00    +0.000 C 
ATOM     13  C   UNL     1       2.352   7.450  18.026  0.00  0.00    +0.000 C 
BRANCH  13  14
ATOM     14  C   UNL     1       2.659   6.063  17.817  0.00  0.00    +0.000 A 
ATOM     15  C   UNL     1       1.688   5.071  18.013  0.00  0.00    +0.000 A 
ATOM     16  C   UNL     1       2.025   3.718  17.872  0.00  0.00    +0.000 A 
ATOM     17  C   UNL     1       3.325   3.352  17.526  0.00  0.00    +0.000 A 
ATOM     18  C   UNL     1       4.285   4.338  17.310  0.00  0.00    +0.000 A 
ATOM     19  C   UNL     1       3.953   5.688  17.456  0.00  0.00    +0.000 A 
ENDBRANCH  13  14
ENDBRANCH   2  12
BRANCH   1  20
ATOM     20  C   UNL     1       0.371   9.828  20.084  0.00  0.00    +0.000 C 
BRANCH  20  21
ATOM     21  C   UNL     1       0.142  10.197  21.575  0.00  0.00    +0.000 C 
ATOM     22  O   UNL     1       0.976   9.969  22.448  0.00  0.00    +0.000 OA
ATOM     23  N   UNL     1      -1.044  10.854  21.868  0.00  0.00    +0.000 N 
ATOM     24  H   UNL     1      -1.627  11.198  21.118  0.00  0.00    +0.000 HD
BRANCH  23  25
ATOM     25  C   UNL     1      -1.379  11.240  23.237  0.00  0.00    +0.000 C 
BRANCH  25  26
ATOM     26  C   UNL     1      -2.744  11.923  23.355  0.00  0.00    +0.000 C 
BRANCH  26  27
ATOM     27  C   UNL     1      -2.640  13.429  23.087  0.00  0.00    +0.000 C 
BRANCH  27  28
ATOM     28  S   UNL     1      -4.138  14.249  23.729  0.00  0.00    +0.000 S 
BRANCH  28  29
ATOM     29  C   UNL     1      -5.486  13.345  22.979  0.00  0.00    +0.000 A 
ATOM     30  C   UNL     1      -6.491  12.890  23.846  0.00  0.00    +0.000 A 
ATOM     31  C   UNL     1      -7.593  12.179  23.363  0.00  0.00    +0.000 A 
ATOM     32  C   UNL     1      -7.717  11.933  22.000  0.00  0.00    +0.000 A 
ATOM     33  C   UNL     1      -6.738  12.400  21.123  0.00  0.00    +0.000 A 
ATOM     34  C   UNL     1      -5.628  13.102  21.610  0.00  0.00    +0.000 A 
ENDBRANCH  28  29
ENDBRANCH  27  28
ENDBRANCH  26  27
ENDBRANCH  25  26
ENDBRANCH  23  25
ENDBRANCH  20  21
ENDBRANCH   1  20
TORSDOF 11
ENDMDL
