MODEL 1
REMARK VINA RESULT:      -8.5      0.000      0.000
REMARK  Name = 
REMARK  5 active torsions:
REMARK  status: ('A' for Active; 'I' for Inactive)
REMARK    1  A    between atoms: C_2  and  C_3
REMARK    2  A    between atoms: N_10  and  S_11
REMARK    3  A    between atoms: S_11  and  C_14
REMARK    4  A    between atoms: C_18  and  C_19
REMARK    5  A    between atoms: C_19  and  O_21
REMARK                            x       y       z     vdW  Elec       q    Type
REMARK                         _______ _______ _______ _____ _____    ______ ____
ROOT
ATOM      1  S   UNL     1       3.436   4.063  18.528  0.00  0.00    +0.000 S 
ATOM      2  O   UNL     1       3.685   3.689  19.904  0.00  0.00    +0.000 OA
ATOM      3  O   UNL     1       2.693   3.189  17.642  0.00  0.00    +0.000 OA
ENDROOT
BRANCH   1  11
ATOM      4  C   UNL     1       0.613   9.278  21.138  0.00  0.00    +0.000 A 
ATOM      5  C   UNL     1       0.837  10.156  20.076  0.00  0.00    +0.000 A 
ATOM      6  C   UNL     1       1.508   9.712  18.935  0.00  0.00    +0.000 A 
ATOM      7  C   UNL     1       1.963   8.388  18.846  0.00  0.00    +0.000 A 
ATOM      8  C   UNL     1       1.715   7.492  19.899  0.00  0.00    +0.000 A 
ATOM      9  C   UNL     1       1.046   7.954  21.048  0.00  0.00    +0.000 A 
ATOM     10  C   UNL     1       2.218   6.062  19.853  0.00  0.00    +0.000 C 
ATOM     11  N   UNL     1       2.671   5.598  18.508  0.00  0.00    +0.000 NA
ATOM     12  C   UNL     1       3.500   6.652  17.843  0.00  0.00    +0.000 C 
ATOM     13  C   UNL     1       2.666   7.913  17.601  0.00  0.00    +0.000 C 
BRANCH   4  15
ATOM     14  C   UNL     1      -0.644  10.130  23.285  0.00  0.00    +0.000 C 
ATOM     15  C   UNL     1      -0.070   9.744  22.304  0.00  0.00    +0.000 C 
ENDBRANCH   4  15
ENDBRANCH   1  11
BRANCH   1  16
ATOM     16  C   UNL     1       5.032   4.347  17.785  0.00  0.00    +0.000 A 
ATOM     17  C   UNL     1       6.117   4.645  18.618  0.00  0.00    +0.000 A 
ATOM     18  C   UNL     1       7.369   4.886  18.056  0.00  0.00    +0.000 A 
ATOM     19  C   UNL     1       7.540   4.811  16.673  0.00  0.00    +0.000 A 
ATOM     20  C   UNL     1       6.466   4.464  15.838  0.00  0.00    +0.000 A 
ATOM     21  C   UNL     1       5.201   4.234  16.396  0.00  0.00    +0.000 A 
BRANCH  20  22
ATOM     22  C   UNL     1       6.730   4.423  14.373  0.00  0.00    +0.000 C 
ATOM     23  O   UNL     1       7.349   5.300  13.798  0.00  0.00    +0.000 OA
BRANCH  22  24
ATOM     24  O   UNL     1       6.262   3.324  13.747  0.00  0.00    +0.000 OA
ATOM     25  H   UNL     1       6.923   2.665  13.474  0.00  0.00    +0.000 HD
ENDBRANCH  22  24
ENDBRANCH  20  22
ENDBRANCH   1  16
TORSDOF 5
ENDMDL
MODEL 2
REMARK VINA RESULT:      -8.4      3.369      4.680
REMARK  Name = 
REMARK  5 active torsions:
REMARK  status: ('A' for Active; 'I' for Inactive)
REMARK    1  A    between atoms: C_2  and  C_3
REMARK    2  A    between atoms: N_10  and  S_11
REMARK    3  A    between atoms: S_11  and  C_14
REMARK    4  A    between atoms: C_18  and  C_19
REMARK    5  A    between atoms: C_19  and  O_21
REMARK                            x       y       z     vdW  Elec       q    Type
REMARK                         _______ _______ _______ _____ _____    ______ ____
ROOT
ATOM      1  S   UNL     1       7.320   5.261  16.199  0.00  0.00    +0.000 S 
ATOM      2  O   UNL     1       7.912   6.575  16.332  0.00  0.00    +0.000 OA
ATOM      3  O   UNL     1       7.933   4.102  16.816  0.00  0.00    +0.000 OA
ENDROOT
BRANCH   1  11
ATOM      4  C   UNL     1       2.355   4.003  20.168  0.00  0.00    +0.000 A 
ATOM      5  C   UNL     1       1.545   5.074  19.789  0.00  0.00    +0.000 A 
ATOM      6  C   UNL     1       1.984   5.970  18.812  0.00  0.00    +0.000 A 
ATOM      7  C   UNL     1       3.238   5.803  18.206  0.00  0.00    +0.000 A 
ATOM      8  C   UNL     1       4.047   4.710  18.562  0.00  0.00    +0.000 A 
ATOM      9  C   UNL     1       3.596   3.820  19.555  0.00  0.00    +0.000 A 
ATOM     10  C   UNL     1       5.421   4.512  17.951  0.00  0.00    +0.000 C 
ATOM     11  N   UNL     1       5.692   5.337  16.736  0.00  0.00    +0.000 NA
ATOM     12  C   UNL     1       5.212   6.740  16.937  0.00  0.00    +0.000 C 
ATOM     13  C   UNL     1       3.693   6.761  17.136  0.00  0.00    +0.000 C 
BRANCH   4  15
ATOM     14  C   UNL     1       1.513   2.331  22.015  0.00  0.00    +0.000 C 
ATOM     15  C   UNL     1       1.898   3.096  21.174  0.00  0.00    +0.000 C 
ENDBRANCH   4  15
ENDBRANCH   1  11
BRANCH   1  16
ATOM     16  C   UNL     1       7.202   4.936  14.450  0.00  0.00    +0.000 A 
ATOM     17  C   UNL     1       8.024   5.656  13.575  0.00  0.00    +0.000 A 
ATOM     18  C   UNL     1       7.935   5.429  12.204  0.00  0.00    +0.000 A 
ATOM     19  C   UNL     1       7.045   4.474  11.710  0.00  0.00    +0.000 A 
ATOM     20  C   UNL     1       6.254   3.714  12.587  0.00  0.00    +0.000 A 
ATOM     21  C   UNL     1       6.328   3.948  13.967  0.00  0.00    +0.000 A 
BRANCH  20  22
ATOM     22  C   UNL     1       5.318   2.729  11.977  0.00  0.00    +0.000 C 
ATOM     23  O   UNL     1       4.178   3.020  11.665  0.00  0.00    +0.000 OA
BRANCH  22  24
ATOM     24  O   UNL     1       5.847   1.505  11.767  0.00  0.00    +0.000 OA
ATOM     25  H   UNL     1       5.231   0.811  11.477  0.00  0.00    +0.000 HD
ENDBRANCH  22  24
ENDBRANCH  20  22
ENDBRANCH   1  16
TORSDOF 5
ENDMDL
MODEL 3
REMARK VINA RESULT:      -8.2      1.074      2.151
REMARK  Name = 
REMARK  5 active torsions:
REMARK  status: ('A' for Active; 'I' for Inactive)
REMARK    1  A    between atoms: C_2  and  C_3
REMARK    2  A    between atoms: N_10  and  S_11
REMARK    3  A    between atoms: S_11  and  C_14
REMARK    4  A    between atoms: C_18  and  C_19
REMARK    5  A    between atoms: C_19  and  O_21
REMARK                            x       y       z     vdW  Elec       q    Type
REMARK                         _______ _______ _______ _____ _____    ______ ____
ROOT
ATOM      1  S   UNL     1       3.318   3.565  17.995  0.00  0.00    +0.000 S 
ATOM      2  O   UNL     1       3.525   2.384  18.806  0.00  0.00    +0.000 OA
ATOM      3  O   UNL     1       2.385   3.552  16.886  0.00  0.00    +0.000 OA
ENDROOT
BRANCH   1  11
ATOM      4  C   UNL     1       1.396   9.595  19.382  0.00  0.00    +0.000 A 
ATOM      5  C   UNL     1       0.915   9.340  20.667  0.00  0.00    +0.000 A 
ATOM      6  C   UNL     1       0.978   8.048  21.192  0.00  0.00    +0.000 A 
ATOM      7  C   UNL     1       1.523   6.999  20.437  0.00  0.00    +0.000 A 
ATOM      8  C   UNL     1       2.036   7.254  19.153  0.00  0.00    +0.000 A 
ATOM      9  C   UNL     1       1.957   8.559  18.632  0.00  0.00    +0.000 A 
ATOM     10  C   UNL     1       2.605   6.141  18.295  0.00  0.00    +0.000 C 
ATOM     11  N   UNL     1       2.889   4.868  19.023  0.00  0.00    +0.000 NA
ATOM     12  C   UNL     1       1.760   4.532  19.947  0.00  0.00    +0.000 C 
ATOM     13  C   UNL     1       1.608   5.613  21.021  0.00  0.00    +0.000 C 
BRANCH   4  15
ATOM     14  C   UNL     1       1.262  12.033  18.406  0.00  0.00    +0.000 C 
ATOM     15  C   UNL     1       1.320  10.920  18.851  0.00  0.00    +0.000 C 
ENDBRANCH   4  15
ENDBRANCH   1  11
BRANCH   1  16
ATOM     16  C   UNL     1       4.916   4.014  17.343  0.00  0.00    +0.000 A 
ATOM     17  C   UNL     1       5.936   4.353  18.240  0.00  0.00    +0.000 A 
ATOM     18  C   UNL     1       7.187   4.723  17.752  0.00  0.00    +0.000 A 
ATOM     19  C   UNL     1       7.424   4.736  16.376  0.00  0.00    +0.000 A 
ATOM     20  C   UNL     1       6.419   4.349  15.475  0.00  0.00    +0.000 A 
ATOM     21  C   UNL     1       5.153   3.990  15.960  0.00  0.00    +0.000 A 
BRANCH  20  22
ATOM     22  C   UNL     1       6.749   4.408  14.024  0.00  0.00    +0.000 C 
ATOM     23  O   UNL     1       7.433   5.294  13.547  0.00  0.00    +0.000 OA
BRANCH  22  24
ATOM     24  O   UNL     1       6.259   3.386  13.293  0.00  0.00    +0.000 OA
ATOM     25  H   UNL     1       6.889   2.685  13.050  0.00  0.00    +0.000 HD
ENDBRANCH  22  24
ENDBRANCH  20  22
ENDBRANCH   1  16
TORSDOF 5
ENDMDL
MODEL 4
REMARK VINA RESULT:      -8.1      1.133      1.399
REMARK  Name = 
REMARK  5 active torsions:
REMARK  status: ('A' for Active; 'I' for Inactive)
REMARK    1  A    between atoms: C_2  and  C_3
REMARK    2  A    between atoms: N_10  and  S_11
REMARK    3  A    between atoms: S_11  and  C_14
REMARK    4  A    between atoms: C_18  and  C_19
REMARK    5  A    between atoms: C_19  and  O_21
REMARK                            x       y       z     vdW  Elec       q    Type
REMARK                         _______ _______ _______ _____ _____    ______ ____
ROOT
ATOM      1  S   UNL     1       4.470   4.102  18.160  0.00  0.00    +0.000 S 
ATOM      2  O   UNL     1       5.337   4.158  19.318  0.00  0.00    +0.000 OA
ATOM      3  O   UNL     1       3.651   2.935  17.899  0.00  0.00    +0.000 OA
ENDROOT
BRANCH   1  11
ATOM      4  C   UNL     1       0.934   8.774  20.926  0.00  0.00    +0.000 A 
ATOM      5  C   UNL     1       0.913   9.652  19.841  0.00  0.00    +0.000 A 
ATOM      6  C   UNL     1       1.569   9.311  18.657  0.00  0.00    +0.000 A 
ATOM      7  C   UNL     1       2.252   8.091  18.546  0.00  0.00    +0.000 A 
ATOM      8  C   UNL     1       2.253   7.190  19.625  0.00  0.00    +0.000 A 
ATOM      9  C   UNL     1       1.597   7.550  20.817  0.00  0.00    +0.000 A 
ATOM     10  C   UNL     1       3.005   5.876  19.555  0.00  0.00    +0.000 C 
ATOM     11  N   UNL     1       3.435   5.470  18.183  0.00  0.00    +0.000 NA
ATOM     12  C   UNL     1       4.005   6.641  17.446  0.00  0.00    +0.000 C 
ATOM     13  C   UNL     1       2.937   7.723  17.255  0.00  0.00    +0.000 C 
BRANCH   4  15
ATOM     14  C   UNL     1      -0.301   9.438  23.151  0.00  0.00    +0.000 C 
ATOM     15  C   UNL     1       0.266   9.135  22.137  0.00  0.00    +0.000 C 
ENDBRANCH   4  15
ENDBRANCH   1  11
BRANCH   1  16
ATOM     16  C   UNL     1       5.513   4.352  16.736  0.00  0.00    +0.000 A 
ATOM     17  C   UNL     1       6.710   5.060  16.896  0.00  0.00    +0.000 A 
ATOM     18  C   UNL     1       7.532   5.280  15.793  0.00  0.00    +0.000 A 
ATOM     19  C   UNL     1       7.170   4.780  14.541  0.00  0.00    +0.000 A 
ATOM     20  C   UNL     1       5.995   4.028  14.385  0.00  0.00    +0.000 A 
ATOM     21  C   UNL     1       5.156   3.814  15.489  0.00  0.00    +0.000 A 
BRANCH  20  22
ATOM     22  C   UNL     1       5.673   3.546  13.013  0.00  0.00    +0.000 C 
ATOM     23  O   UNL     1       4.590   3.739  12.492  0.00  0.00    +0.000 OA
BRANCH  22  24
ATOM     24  O   UNL     1       6.686   2.913  12.387  0.00  0.00    +0.000 OA
ATOM     25  H   UNL     1       6.585   1.954  12.258  0.00  0.00    +0.000 HD
ENDBRANCH  22  24
ENDBRANCH  20  22
ENDBRANCH   1  16
TORSDOF 5
ENDMDL
MODEL 5
REMARK VINA RESULT:      -8.0      1.635      2.355
REMARK  Name = 
REMARK  5 active torsions:
REMARK  status: ('A' for Active; 'I' for Inactive)
REMARK    1  A    between atoms: C_2  and  C_3
REMARK    2  A    between atoms: N_10  and  S_11
REMARK    3  A    between atoms: S_11  and  C_14
REMARK    4  A    between atoms: C_18  and  C_19
REMARK    5  A    between atoms: C_19  and  O_21
REMARK                            x       y       z     vdW  Elec       q    Type
REMARK                         _______ _______ _______ _____ _____    ______ ____
ROOT
ATOM      1  S   UNL     1       3.129   4.168  18.428  0.00  0.00    +0.000 S 
ATOM      2  O   UNL     1       3.192   3.674  19.787  0.00  0.00    +0.000 OA
ATOM      3  O   UNL     1       2.479   3.400  17.385  0.00  0.00    +0.000 OA
ENDROOT
BRANCH   1  11
ATOM      4  C   UNL     1       0.524   9.429  21.169  0.00  0.00    +0.000 A 
ATOM      5  C   UNL     1       0.764  10.318  20.121  0.00  0.00    +0.000 A 
ATOM      6  C   UNL     1       1.405   9.873  18.963  0.00  0.00    +0.000 A 
ATOM      7  C   UNL     1       1.813   8.536  18.844  0.00  0.00    +0.000 A 
ATOM      8  C   UNL     1       1.547   7.629  19.884  0.00  0.00    +0.000 A 
ATOM      9  C   UNL     1       0.909   8.093  21.050  0.00  0.00    +0.000 A 
ATOM     10  C   UNL     1       1.999   6.184  19.806  0.00  0.00    +0.000 C 
ATOM     11  N   UNL     1       2.418   5.729  18.446  0.00  0.00    +0.000 NA
ATOM     12  C   UNL     1       3.275   6.766  17.789  0.00  0.00    +0.000 C 
ATOM     13  C   UNL     1       2.483   8.060  17.581  0.00  0.00    +0.000 C 
BRANCH   4  15
ATOM     14  C   UNL     1      -0.670  10.286  23.351  0.00  0.00    +0.000 C 
ATOM     15  C   UNL     1      -0.127   9.897  22.354  0.00  0.00    +0.000 C 
ENDBRANCH   4  15
ENDBRANCH   1  11
BRANCH   1  16
ATOM     16  C   UNL     1       4.813   4.449  17.914  0.00  0.00    +0.000 A 
ATOM     17  C   UNL     1       5.220   3.979  16.660  0.00  0.00    +0.000 A 
ATOM     18  C   UNL     1       6.536   4.173  16.246  0.00  0.00    +0.000 A 
ATOM     19  C   UNL     1       7.436   4.849  17.072  0.00  0.00    +0.000 A 
ATOM     20  C   UNL     1       7.019   5.365  18.309  0.00  0.00    +0.000 A 
ATOM     21  C   UNL     1       5.700   5.161  18.738  0.00  0.00    +0.000 A 
BRANCH  20  22
ATOM     22  C   UNL     1       8.046   6.059  19.136  0.00  0.00    +0.000 C 
ATOM     23  O   UNL     1       8.461   7.170  18.862  0.00  0.00    +0.000 OA
BRANCH  22  24
ATOM     24  O   UNL     1       8.448   5.373  20.226  0.00  0.00    +0.000 OA
ATOM     25  H   UNL     1       9.004   5.856  20.862  0.00  0.00    +0.000 HD
ENDBRANCH  22  24
ENDBRANCH  20  22
ENDBRANCH   1  16
TORSDOF 5
ENDMDL
MODEL 6
REMARK VINA RESULT:      -8.0      2.564      7.847
REMARK  Name = 
REMARK  5 active torsions:
REMARK  status: ('A' for Active; 'I' for Inactive)
REMARK    1  A    between atoms: C_2  and  C_3
REMARK    2  A    between atoms: N_10  and  S_11
REMARK    3  A    between atoms: S_11  and  C_14
REMARK    4  A    between atoms: C_18  and  C_19
REMARK    5  A    between atoms: C_19  and  O_21
REMARK                            x       y       z     vdW  Elec       q    Type
REMARK                         _______ _______ _______ _____ _____    ______ ____
ROOT
ATOM      1  S   UNL     1       2.292   4.753  19.910  0.00  0.00    +0.000 S 
ATOM      2  O   UNL     1       1.249   4.065  19.179  0.00  0.00    +0.000 OA
ATOM      3  O   UNL     1       2.516   4.485  21.316  0.00  0.00    +0.000 OA
ENDROOT
BRANCH   1  11
ATOM      4  C   UNL     1       6.131   4.080  14.734  0.00  0.00    +0.000 A 
ATOM      5  C   UNL     1       7.331   4.438  15.351  0.00  0.00    +0.000 A 
ATOM      6  C   UNL     1       7.343   4.787  16.703  0.00  0.00    +0.000 A 
ATOM      7  C   UNL     1       6.156   4.783  17.450  0.00  0.00    +0.000 A 
ATOM      8  C   UNL     1       4.949   4.396  16.842  0.00  0.00    +0.000 A 
ATOM      9  C   UNL     1       4.949   4.056  15.477  0.00  0.00    +0.000 A 
ATOM     10  C   UNL     1       3.640   4.407  17.608  0.00  0.00    +0.000 C 
ATOM     11  N   UNL     1       3.781   4.519  19.090  0.00  0.00    +0.000 NA
ATOM     12  C   UNL     1       4.806   5.552  19.442  0.00  0.00    +0.000 C 
ATOM     13  C   UNL     1       6.183   5.139  18.914  0.00  0.00    +0.000 C 
BRANCH   4  15
ATOM     14  C   UNL     1       6.123   3.442  12.183  0.00  0.00    +0.000 C 
ATOM     15  C   UNL     1       6.129   3.731  13.348  0.00  0.00    +0.000 C 
ENDBRANCH   4  15
ENDBRANCH   1  11
BRANCH   1  16
ATOM     16  C   UNL     1       1.958   6.497  19.745  0.00  0.00    +0.000 A 
ATOM     17  C   UNL     1       2.156   7.104  18.499  0.00  0.00    +0.000 A 
ATOM     18  C   UNL     1       1.916   8.468  18.353  0.00  0.00    +0.000 A 
ATOM     19  C   UNL     1       1.463   9.218  19.439  0.00  0.00    +0.000 A 
ATOM     20  C   UNL     1       1.215   8.604  20.677  0.00  0.00    +0.000 A 
ATOM     21  C   UNL     1       1.468   7.234  20.835  0.00  0.00    +0.000 A 
BRANCH  20  22
ATOM     22  C   UNL     1       0.749   9.479  21.789  0.00  0.00    +0.000 C 
ATOM     23  O   UNL     1      -0.338  10.026  21.775  0.00  0.00    +0.000 OA
BRANCH  22  24
ATOM     24  O   UNL     1       1.611   9.587  22.820  0.00  0.00    +0.000 OA
ATOM     25  H   UNL     1       1.554   8.901  23.507  0.00  0.00    +0.000 HD
ENDBRANCH  22  24
ENDBRANCH  20  22
ENDBRANCH   1  16
TORSDOF 5
ENDMDL
MODEL 7
REMARK VINA RESULT:      -7.8      1.796      2.945
REMARK  Name = 
REMARK  5 active torsions:
REMARK  status: ('A' for Active; 'I' for Inactive)
REMARK    1  A    between atoms: C_2  and  C_3
REMARK    2  A    between atoms: N_10  and  S_11
REMARK    3  A    between atoms: S_11  and  C_14
REMARK    4  A    between atoms: C_18  and  C_19
REMARK    5  A    between atoms: C_19  and  O_21
REMARK                            x       y       z     vdW  Elec       q    Type
REMARK                         _______ _______ _______ _____ _____    ______ ____
ROOT
ATOM      1  S   UNL     1       3.433   3.774  17.921  0.00  0.00    +0.000 S 
ATOM      2  O   UNL     1       3.821   2.620  18.704  0.00  0.00    +0.000 OA
ATOM      3  O   UNL     1       2.427   3.666  16.884  0.00  0.00    +0.000 OA
ENDROOT
BRANCH   1  11
ATOM      4  C   UNL     1       1.250   9.666  19.501  0.00  0.00    +0.000 A 
ATOM      5  C   UNL     1       0.778   9.349  20.776  0.00  0.00    +0.000 A 
ATOM      6  C   UNL     1       0.897   8.044  21.258  0.00  0.00    +0.000 A 
ATOM      7  C   UNL     1       1.487   7.045  20.471  0.00  0.00    +0.000 A 
ATOM      8  C   UNL     1       1.991   7.364  19.198  0.00  0.00    +0.000 A 
ATOM      9  C   UNL     1       1.856   8.681  18.719  0.00  0.00    +0.000 A 
ATOM     10  C   UNL     1       2.608   6.306  18.305  0.00  0.00    +0.000 C 
ATOM     11  N   UNL     1       2.946   5.023  18.991  0.00  0.00    +0.000 NA
ATOM     12  C   UNL     1       1.832   4.608  19.900  0.00  0.00    +0.000 C 
ATOM     13  C   UNL     1       1.632   5.645  21.009  0.00  0.00    +0.000 C 
BRANCH   4  15
ATOM     14  C   UNL     1       1.006  12.129  18.611  0.00  0.00    +0.000 C 
ATOM     15  C   UNL     1       1.117  11.004  19.014  0.00  0.00    +0.000 C 
ENDBRANCH   4  15
ENDBRANCH   1  11
BRANCH   1  16
ATOM     16  C   UNL     1       4.922   4.390  17.160  0.00  0.00    +0.000 A 
ATOM     17  C   UNL     1       5.341   3.827  15.948  0.00  0.00    +0.000 A 
ATOM     18  C   UNL     1       6.510   4.283  15.345  0.00  0.00    +0.000 A 
ATOM     19  C   UNL     1       7.248   5.309  15.938  0.00  0.00    +0.000 A 
ATOM     20  C   UNL     1       6.806   5.911  17.127  0.00  0.00    +0.000 A 
ATOM     21  C   UNL     1       5.637   5.447  17.746  0.00  0.00    +0.000 A 
BRANCH  20  22
ATOM     22  C   UNL     1       7.660   6.987  17.701  0.00  0.00    +0.000 C 
ATOM     23  O   UNL     1       7.814   8.061  17.149  0.00  0.00    +0.000 OA
BRANCH  22  24
ATOM     24  O   UNL     1       8.216   6.689  18.893  0.00  0.00    +0.000 OA
ATOM     25  H   UNL     1       7.603   6.538  19.633  0.00  0.00    +0.000 HD
ENDBRANCH  22  24
ENDBRANCH  20  22
ENDBRANCH   1  16
TORSDOF 5
ENDMDL
MODEL 8
REMARK VINA RESULT:      -7.8      2.081      2.626
REMARK  Name = 
REMARK  5 active torsions:
REMARK  status: ('A' for Active; 'I' for Inactive)
REMARK    1  A    between atoms: C_2  and  C_3
REMARK    2  A    between atoms: N_10  and  S_11
REMARK    3  A    between atoms: S_11  and  C_14
REMARK    4  A    between atoms: C_18  and  C_19
REMARK    5  A    between atoms: C_19  and  O_21
REMARK                            x       y       z     vdW  Elec       q    Type
REMARK                         _______ _______ _______ _____ _____    ______ ____
ROOT
ATOM      1  S   UNL     1       2.590   4.765  19.408  0.00  0.00    +0.000 S 
ATOM      2  O   UNL     1       2.812   4.630  20.832  0.00  0.00    +0.000 OA
ATOM      3  O   UNL     1       1.768   3.812  18.689  0.00  0.00    +0.000 OA
ENDROOT
BRANCH   1  11
ATOM      4  C   UNL     1       0.206  10.581  20.977  0.00  0.00    +0.000 A 
ATOM      5  C   UNL     1       0.523  11.235  19.786  0.00  0.00    +0.000 A 
ATOM      6  C   UNL     1       1.170  10.541  18.761  0.00  0.00    +0.000 A 
ATOM      7  C   UNL     1       1.506   9.188  18.919  0.00  0.00    +0.000 A 
ATOM      8  C   UNL     1       1.163   8.516  20.105  0.00  0.00    +0.000 A 
ATOM      9  C   UNL     1       0.520   9.230  21.134  0.00  0.00    +0.000 A 
ATOM     10  C   UNL     1       1.536   7.063  20.325  0.00  0.00    +0.000 C 
ATOM     11  N   UNL     1       1.966   6.332  19.096  0.00  0.00    +0.000 NA
ATOM     12  C   UNL     1       2.897   7.177  18.283  0.00  0.00    +0.000 C 
ATOM     13  C   UNL     1       2.183   8.442  17.798  0.00  0.00    +0.000 C 
BRANCH   4  15
ATOM     14  C   UNL     1      -1.006  11.907  22.898  0.00  0.00    +0.000 C 
ATOM     15  C   UNL     1      -0.450  11.303  22.023  0.00  0.00    +0.000 C 
ENDBRANCH   4  15
ENDBRANCH   1  11
BRANCH   1  16
ATOM     16  C   UNL     1       4.202   4.763  18.644  0.00  0.00    +0.000 A 
ATOM     17  C   UNL     1       4.347   4.177  17.382  0.00  0.00    +0.000 A 
ATOM     18  C   UNL     1       5.600   4.151  16.775  0.00  0.00    +0.000 A 
ATOM     19  C   UNL     1       6.699   4.724  17.416  0.00  0.00    +0.000 A 
ATOM     20  C   UNL     1       6.549   5.358  18.660  0.00  0.00    +0.000 A 
ATOM     21  C   UNL     1       5.293   5.375  19.283  0.00  0.00    +0.000 A 
BRANCH  20  22
ATOM     22  C   UNL     1       7.774   5.929  19.284  0.00  0.00    +0.000 C 
ATOM     23  O   UNL     1       8.380   6.864  18.792  0.00  0.00    +0.000 OA
BRANCH  22  24
ATOM     24  O   UNL     1       8.135   5.352  20.449  0.00  0.00    +0.000 OA
ATOM     25  H   UNL     1       7.866   4.427  20.576  0.00  0.00    +0.000 HD
ENDBRANCH  22  24
ENDBRANCH  20  22
ENDBRANCH   1  16
TORSDOF 5
ENDMDL
MODEL 9
REMARK VINA RESULT:      -7.7      5.627      9.299
REMARK  Name = 
REMARK  5 active torsions:
REMARK  status: ('A' for Active; 'I' for Inactive)
REMARK    1  A    between atoms: C_2  and  C_3
REMARK    2  A    between atoms: N_10  and  S_11
REMARK    3  A    between atoms: S_11  and  C_14
REMARK    4  A    between atoms: C_18  and  C_19
REMARK    5  A    between atoms: C_19  and  O_21
REMARK                            x       y       z     vdW  Elec       q    Type
REMARK                         _______ _______ _______ _____ _____    ______ ____
ROOT
ATOM      1  S   UNL     1      -0.258  11.167  19.349  0.00  0.00    +0.000 S 
ATOM      2  O   UNL     1      -0.696  11.521  20.683  0.00  0.00    +0.000 OA
ATOM      3  O   UNL     1       0.642  12.028  18.609  0.00  0.00    +0.000 OA
ENDROOT
BRANCH   1  11
ATOM      4  C   UNL     1       3.917   6.516  17.641  0.00  0.00    +0.000 A 
ATOM      5  C   UNL     1       3.804   5.739  18.794  0.00  0.00    +0.000 A 
ATOM      6  C   UNL     1       2.951   6.139  19.824  0.00  0.00    +0.000 A 
ATOM      7  C   UNL     1       2.204   7.322  19.711  0.00  0.00    +0.000 A 
ATOM      8  C   UNL     1       2.292   8.094  18.540  0.00  0.00    +0.000 A 
ATOM      9  C   UNL     1       3.163   7.685  17.513  0.00  0.00    +0.000 A 
ATOM     10  C   UNL     1       1.524   9.394  18.392  0.00  0.00    +0.000 C 
ATOM     11  N   UNL     1       0.442   9.602  19.400  0.00  0.00    +0.000 NA
ATOM     12  C   UNL     1       0.920   9.224  20.767  0.00  0.00    +0.000 C 
ATOM     13  C   UNL     1       1.269   7.733  20.818  0.00  0.00    +0.000 C 
BRANCH   4  15
ATOM     14  C   UNL     1       5.535   5.748  15.715  0.00  0.00    +0.000 C 
ATOM     15  C   UNL     1       4.799   6.100  16.595  0.00  0.00    +0.000 C 
ENDBRANCH   4  15
ENDBRANCH   1  11
BRANCH   1  16
ATOM     16  C   UNL     1      -1.734  10.968  18.369  0.00  0.00    +0.000 A 
ATOM     17  C   UNL     1      -1.704  10.088  17.281  0.00  0.00    +0.000 A 
ATOM     18  C   UNL     1      -2.841   9.929  16.492  0.00  0.00    +0.000 A 
ATOM     19  C   UNL     1      -4.008  10.631  16.800  0.00  0.00    +0.000 A 
ATOM     20  C   UNL     1      -4.058  11.477  17.920  0.00  0.00    +0.000 A 
ATOM     21  C   UNL     1      -2.912  11.651  18.709  0.00  0.00    +0.000 A 
BRANCH  20  22
ATOM     22  C   UNL     1      -5.336  12.201  18.168  0.00  0.00    +0.000 C 
ATOM     23  O   UNL     1      -5.932  12.126  19.227  0.00  0.00    +0.000 OA
BRANCH  22  24
ATOM     24  O   UNL     1      -5.755  12.970  17.142  0.00  0.00    +0.000 OA
ATOM     25  H   UNL     1      -5.983  12.506  16.318  0.00  0.00    +0.000 HD
ENDBRANCH  22  24
ENDBRANCH  20  22
ENDBRANCH   1  16
TORSDOF 5
ENDMDL
