MODEL 1
REMARK VINA RESULT:      -9.1      0.000      0.000
REMARK  Name = 
REMARK  9 active torsions:
REMARK  status: ('A' for Active; 'I' for Inactive)
REMARK    1  A    between atoms: C_2  and  O_3
REMARK    2  A    between atoms: C_2  and  C_4
REMARK    3  A    between atoms: C_7  and  C_8
REMARK    4  A    between atoms: C_8  and  C_10
REMARK    5  A    between atoms: C_13  and  O_14
REMARK    6  A    between atoms: O_14  and  C_15
REMARK    7  A    between atoms: C_15  and  C_16
REMARK    8  A    between atoms: C_18  and  C_19
REMARK    9  A    between atoms: C_25  and  C_26
REMARK                            x       y       z     vdW  Elec       q    Type
REMARK                         _______ _______ _______ _____ _____    ______ ____
ROOT
ATOM      1  C   UNL     1      -0.169  10.985  19.325  0.00  0.00    +0.000 A 
ATOM      2  C   UNL     1      -0.222  10.194  20.475  0.00  0.00    +0.000 A 
ATOM      3  C   UNL     1       0.596   9.074  20.593  0.00  0.00    +0.000 A 
ATOM      4  C   UNL     1       1.449   8.719  19.546  0.00  0.00    +0.000 A 
ATOM      5  C   UNL     1       1.560   9.547  18.428  0.00  0.00    +0.000 A 
ATOM      6  C   UNL     1       0.757  10.686  18.317  0.00  0.00    +0.000 A 
ENDROOT
BRANCH   1   7
ATOM      7  C   UNL     1      -1.093  12.139  19.253  0.00  0.00    +0.000 C 
ATOM      8  O   UNL     1      -0.634  13.274  19.355  0.00  0.00    +0.000 OA
BRANCH   7  12
ATOM      9  C   UNL     1      -5.308  11.656  18.683  0.00  0.00    +0.000 A 
ATOM     10  C   UNL     1      -4.394  11.070  17.801  0.00  0.00    +0.000 A 
ATOM     11  C   UNL     1      -3.023  11.235  18.007  0.00  0.00    +0.000 A 
ATOM     12  C   UNL     1      -2.559  11.974  19.102  0.00  0.00    +0.000 A 
ATOM     13  C   UNL     1      -3.476  12.571  19.977  0.00  0.00    +0.000 A 
ATOM     14  C   UNL     1      -4.849  12.399  19.780  0.00  0.00    +0.000 A 
BRANCH   9  16
ATOM     15  O   UNL     1      -7.522  12.328  18.146  0.00  0.00    +0.000 OA
ATOM     16  C   UNL     1      -6.754  11.431  18.442  0.00  0.00    +0.000 C 
BRANCH  16  17
ATOM     17  O   UNL     1      -7.145  10.150  18.614  0.00  0.00    +0.000 OA
ATOM     18  H   UNL     1      -6.846   9.529  17.927  0.00  0.00    +0.000 HD
ENDBRANCH  16  17
ENDBRANCH   9  16
ENDBRANCH   7  12
ENDBRANCH   1   7
BRANCH   4  19
ATOM     19  O   UNL     1       2.203   7.576  19.534  0.00  0.00    +0.000 OA
BRANCH  19  20
ATOM     20  C   UNL     1       2.809   7.295  18.265  0.00  0.00    +0.000 C 
BRANCH  20  21
ATOM     21  C   UNL     1       2.935   5.808  17.994  0.00  0.00    +0.000 A 
ATOM     22  C   UNL     1       2.012   4.912  18.562  0.00  0.00    +0.000 A 
ATOM     23  C   UNL     1       2.168   3.524  18.448  0.00  0.00    +0.000 A 
ATOM     24  C   UNL     1       3.240   3.027  17.698  0.00  0.00    +0.000 A 
ATOM     25  C   UNL     1       4.145   3.901  17.094  0.00  0.00    +0.000 A 
ATOM     26  C   UNL     1       4.019   5.297  17.240  0.00  0.00    +0.000 A 
BRANCH  23  27
ATOM     27  C   UNL     1       1.232   2.582  19.163  0.00  0.00    +0.000 C 
ATOM     28  F   UNL     1       0.718   3.095  20.316  0.00  0.00    +0.000 F 
ATOM     29  F   UNL     1       0.162   2.226  18.403  0.00  0.00    +0.000 F 
ATOM     30  F   UNL     1       1.846   1.420  19.518  0.00  0.00    +0.000 F 
ENDBRANCH  23  27
BRANCH  26  31
ATOM     31  C   UNL     1       5.096   6.158  16.604  0.00  0.00    +0.000 C 
ATOM     32  F   UNL     1       5.782   6.955  17.469  0.00  0.00    +0.000 F 
ATOM     33  F   UNL     1       6.042   5.409  15.973  0.00  0.00    +0.000 F 
ATOM     34  F   UNL     1       4.594   6.998  15.658  0.00  0.00    +0.000 F 
ENDBRANCH  26  31
ENDBRANCH  20  21
ENDBRANCH  19  20
ENDBRANCH   4  19
TORSDOF 9
ENDMDL
MODEL 2
REMARK VINA RESULT:      -9.0      0.347      1.103
REMARK  Name = 
REMARK  9 active torsions:
REMARK  status: ('A' for Active; 'I' for Inactive)
REMARK    1  A    between atoms: C_2  and  O_3
REMARK    2  A    between atoms: C_2  and  C_4
REMARK    3  A    between atoms: C_7  and  C_8
REMARK    4  A    between atoms: C_8  and  C_10
REMARK    5  A    between atoms: C_13  and  O_14
REMARK    6  A    between atoms: O_14  and  C_15
REMARK    7  A    between atoms: C_15  and  C_16
REMARK    8  A    between atoms: C_18  and  C_19
REMARK    9  A    between atoms: C_25  and  C_26
REMARK                            x       y       z     vdW  Elec       q    Type
REMARK                         _______ _______ _______ _____ _____    ______ ____
ROOT
ATOM      1  C   UNL     1      -0.192  10.802  19.020  0.00  0.00    +0.000 A 
ATOM      2  C   UNL     1       0.414  10.275  17.877  0.00  0.00    +0.000 A 
ATOM      3  C   UNL     1       1.259   9.175  17.977  0.00  0.00    +0.000 A 
ATOM      4  C   UNL     1       1.531   8.614  19.226  0.00  0.00    +0.000 A 
ATOM      5  C   UNL     1       0.871   9.089  20.360  0.00  0.00    +0.000 A 
ATOM      6  C   UNL     1       0.002  10.180  20.260  0.00  0.00    +0.000 A 
ENDROOT
BRANCH   1   7
ATOM      7  C   UNL     1      -1.051  11.995  18.843  0.00  0.00    +0.000 C 
ATOM      8  O   UNL     1      -0.525  13.105  18.813  0.00  0.00    +0.000 OA
BRANCH   7  12
ATOM      9  C   UNL     1      -5.301  11.735  18.410  0.00  0.00    +0.000 A 
ATOM     10  C   UNL     1      -4.448  11.204  17.436  0.00  0.00    +0.000 A 
ATOM     11  C   UNL     1      -3.065  11.296  17.598  0.00  0.00    +0.000 A 
ATOM     12  C   UNL     1      -2.527  11.903  18.740  0.00  0.00    +0.000 A 
ATOM     13  C   UNL     1      -3.383  12.444  19.708  0.00  0.00    +0.000 A 
ATOM     14  C   UNL     1      -4.769  12.345  19.554  0.00  0.00    +0.000 A 
BRANCH   9  16
ATOM     15  O   UNL     1      -7.467  12.494  17.795  0.00  0.00    +0.000 OA
ATOM     16  C   UNL     1      -6.763  11.590  18.211  0.00  0.00    +0.000 C 
BRANCH  16  17
ATOM     17  O   UNL     1      -7.249  10.380  18.563  0.00  0.00    +0.000 OA
ATOM     18  H   UNL     1      -7.960  10.037  17.993  0.00  0.00    +0.000 HD
ENDBRANCH  16  17
ENDBRANCH   9  16
ENDBRANCH   7  12
ENDBRANCH   1   7
BRANCH   4  19
ATOM     19  O   UNL     1       2.434   7.604  19.427  0.00  0.00    +0.000 OA
BRANCH  19  20
ATOM     20  C   UNL     1       3.196   7.268  18.260  0.00  0.00    +0.000 C 
BRANCH  20  21
ATOM     21  C   UNL     1       3.162   5.784  17.946  0.00  0.00    +0.000 A 
ATOM     22  C   UNL     1       2.196   4.962  18.554  0.00  0.00    +0.000 A 
ATOM     23  C   UNL     1       2.212   3.569  18.397  0.00  0.00    +0.000 A 
ATOM     24  C   UNL     1       3.180   2.997  17.566  0.00  0.00    +0.000 A 
ATOM     25  C   UNL     1       4.124   3.800  16.923  0.00  0.00    +0.000 A 
ATOM     26  C   UNL     1       4.141   5.196  17.110  0.00  0.00    +0.000 A 
BRANCH  23  27
ATOM     27  C   UNL     1       1.237   2.699  19.151  0.00  0.00    +0.000 C 
ATOM     28  F   UNL     1       0.112   2.399  18.443  0.00  0.00    +0.000 F 
ATOM     29  F   UNL     1       1.775   1.506  19.522  0.00  0.00    +0.000 F 
ATOM     30  F   UNL     1       0.804   3.290  20.299  0.00  0.00    +0.000 F 
ENDBRANCH  23  27
BRANCH  26  31
ATOM     31  C   UNL     1       5.253   5.971  16.424  0.00  0.00    +0.000 C 
ATOM     32  F   UNL     1       6.093   6.637  17.262  0.00  0.00    +0.000 F 
ATOM     33  F   UNL     1       6.053   5.161  15.676  0.00  0.00    +0.000 F 
ATOM     34  F   UNL     1       4.772   6.914  15.567  0.00  0.00    +0.000 F 
ENDBRANCH  26  31
ENDBRANCH  20  21
ENDBRANCH  19  20
ENDBRANCH   4  19
TORSDOF 9
ENDMDL
MODEL 3
REMARK VINA RESULT:      -9.0      0.509      1.293
REMARK  Name = 
REMARK  9 active torsions:
REMARK  status: ('A' for Active; 'I' for Inactive)
REMARK    1  A    between atoms: C_2  and  O_3
REMARK    2  A    between atoms: C_2  and  C_4
REMARK    3  A    between atoms: C_7  and  C_8
REMARK    4  A    between atoms: C_8  and  C_10
REMARK    5  A    between atoms: C_13  and  O_14
REMARK    6  A    between atoms: O_14  and  C_15
REMARK    7  A    between atoms: C_15  and  C_16
REMARK    8  A    between atoms: C_18  and  C_19
REMARK    9  A    between atoms: C_25  and  C_26
REMARK                            x       y       z     vdW  Elec       q    Type
REMARK                         _______ _______ _______ _____ _____    ______ ____
ROOT
ATOM      1  C   UNL     1       0.127  10.694  19.006  0.00  0.00    +0.000 A 
ATOM      2  C   UNL     1       0.198  10.115  20.276  0.00  0.00    +0.000 A 
ATOM      3  C   UNL     1       1.042   9.033  20.505  0.00  0.00    +0.000 A 
ATOM      4  C   UNL     1       1.798   8.502  19.457  0.00  0.00    +0.000 A 
ATOM      5  C   UNL     1       1.786   9.123  18.208  0.00  0.00    +0.000 A 
ATOM      6  C   UNL     1       0.957  10.226  17.980  0.00  0.00    +0.000 A 
ENDROOT
BRANCH   1   7
ATOM      7  C   UNL     1      -0.820  11.819  18.827  0.00  0.00    +0.000 C 
ATOM      8  O   UNL     1      -0.394  12.969  18.894  0.00  0.00    +0.000 OA
BRANCH   7  12
ATOM      9  C   UNL     1      -5.031  11.237  18.324  0.00  0.00    +0.000 A 
ATOM     10  C   UNL     1      -4.541  12.172  19.242  0.00  0.00    +0.000 A 
ATOM     11  C   UNL     1      -3.164  12.350  19.389  0.00  0.00    +0.000 A 
ATOM     12  C   UNL     1      -2.271  11.607  18.608  0.00  0.00    +0.000 A 
ATOM     13  C   UNL     1      -2.763  10.663  17.697  0.00  0.00    +0.000 A 
ATOM     14  C   UNL     1      -4.141  10.489  17.541  0.00  0.00    +0.000 A 
BRANCH   9  16
ATOM     15  O   UNL     1      -7.136  10.206  18.709  0.00  0.00    +0.000 OA
ATOM     16  C   UNL     1      -6.500  11.101  18.182  0.00  0.00    +0.000 C 
BRANCH  16  17
ATOM     17  O   UNL     1      -7.064  12.039  17.389  0.00  0.00    +0.000 OA
ATOM     18  H   UNL     1      -6.553  12.863  17.293  0.00  0.00    +0.000 HD
ENDBRANCH  16  17
ENDBRANCH   9  16
ENDBRANCH   7  12
ENDBRANCH   1   7
BRANCH   4  19
ATOM     19  O   UNL     1       2.567   7.374  19.569  0.00  0.00    +0.000 OA
BRANCH  19  20
ATOM     20  C   UNL     1       3.298   7.052  18.379  0.00  0.00    +0.000 C 
BRANCH  20  21
ATOM     21  C   UNL     1       3.183   5.587  18.002  0.00  0.00    +0.000 A 
ATOM     22  C   UNL     1       2.204   4.781  18.612  0.00  0.00    +0.000 A 
ATOM     23  C   UNL     1       2.149   3.398  18.393  0.00  0.00    +0.000 A 
ATOM     24  C   UNL     1       3.056   2.822  17.498  0.00  0.00    +0.000 A 
ATOM     25  C   UNL     1       4.011   3.610  16.853  0.00  0.00    +0.000 A 
ATOM     26  C   UNL     1       4.100   4.994  17.101  0.00  0.00    +0.000 A 
BRANCH  23  27
ATOM     27  C   UNL     1       1.165   2.538  19.148  0.00  0.00    +0.000 C 
ATOM     28  F   UNL     1       0.079   2.176  18.410  0.00  0.00    +0.000 F 
ATOM     29  F   UNL     1       1.716   1.378  19.596  0.00  0.00    +0.000 F 
ATOM     30  F   UNL     1       0.670   3.170  20.247  0.00  0.00    +0.000 F 
ENDBRANCH  23  27
BRANCH  26  31
ATOM     31  C   UNL     1       5.218   5.750  16.404  0.00  0.00    +0.000 C 
ATOM     32  F   UNL     1       6.149   6.295  17.234  0.00  0.00    +0.000 F 
ATOM     33  F   UNL     1       5.917   4.953  15.549  0.00  0.00    +0.000 F 
ATOM     34  F   UNL     1       4.752   6.785  15.652  0.00  0.00    +0.000 F 
ENDBRANCH  26  31
ENDBRANCH  20  21
ENDBRANCH  19  20
ENDBRANCH   4  19
TORSDOF 9
ENDMDL
MODEL 4
REMARK VINA RESULT:      -9.0      0.839      3.581
REMARK  Name = 
REMARK  9 active torsions:
REMARK  status: ('A' for Active; 'I' for Inactive)
REMARK    1  A    between atoms: C_2  and  O_3
REMARK    2  A    between atoms: C_2  and  C_4
REMARK    3  A    between atoms: C_7  and  C_8
REMARK    4  A    between atoms: C_8  and  C_10
REMARK    5  A    between atoms: C_13  and  O_14
REMARK    6  A    between atoms: O_14  and  C_15
REMARK    7  A    between atoms: C_15  and  C_16
REMARK    8  A    between atoms: C_18  and  C_19
REMARK    9  A    between atoms: C_25  and  C_26
REMARK                            x       y       z     vdW  Elec       q    Type
REMARK                         _______ _______ _______ _____ _____    ______ ____
ROOT
ATOM      1  C   UNL     1       0.326  10.401  19.002  0.00  0.00    +0.000 A 
ATOM      2  C   UNL     1       0.277   9.952  20.325  0.00  0.00    +0.000 A 
ATOM      3  C   UNL     1       1.037   8.857  20.720  0.00  0.00    +0.000 A 
ATOM      4  C   UNL     1       1.828   8.182  19.788  0.00  0.00    +0.000 A 
ATOM      5  C   UNL     1       1.938   8.671  18.486  0.00  0.00    +0.000 A 
ATOM      6  C   UNL     1       1.193   9.786  18.090  0.00  0.00    +0.000 A 
ENDROOT
BRANCH   1   7
ATOM      7  C   UNL     1      -0.538  11.550  18.644  0.00  0.00    +0.000 C 
ATOM      8  O   UNL     1      -0.015  12.640  18.426  0.00  0.00    +0.000 OA
BRANCH   7  12
ATOM      9  C   UNL     1      -4.792  11.206  18.317  0.00  0.00    +0.000 A 
ATOM     10  C   UNL     1      -3.947  10.427  17.519  0.00  0.00    +0.000 A 
ATOM     11  C   UNL     1      -2.562  10.551  17.644  0.00  0.00    +0.000 A 
ATOM     12  C   UNL     1      -2.015  11.441  18.576  0.00  0.00    +0.000 A 
ATOM     13  C   UNL     1      -2.863  12.229  19.366  0.00  0.00    +0.000 A 
ATOM     14  C   UNL     1      -4.250  12.100  19.250  0.00  0.00    +0.000 A 
BRANCH   9  16
ATOM     15  O   UNL     1      -6.884  10.190  18.801  0.00  0.00    +0.000 OA
ATOM     16  C   UNL     1      -6.256  11.022  18.171  0.00  0.00    +0.000 C 
BRANCH  16  17
ATOM     17  O   UNL     1      -6.822  11.835  17.253  0.00  0.00    +0.000 OA
ATOM     18  H   UNL     1      -6.600  12.779  17.342  0.00  0.00    +0.000 HD
ENDBRANCH  16  17
ENDBRANCH   9  16
ENDBRANCH   7  12
ENDBRANCH   1   7
BRANCH   4  19
ATOM     19  O   UNL     1       2.519   7.032  20.067  0.00  0.00    +0.000 OA
BRANCH  19  20
ATOM     20  C   UNL     1       1.805   5.833  19.736  0.00  0.00    +0.000 C 
BRANCH  20  21
ATOM     21  C   UNL     1       2.566   4.950  18.764  0.00  0.00    +0.000 A 
ATOM     22  C   UNL     1       3.574   5.505  17.955  0.00  0.00    +0.000 A 
ATOM     23  C   UNL     1       4.208   4.758  16.954  0.00  0.00    +0.000 A 
ATOM     24  C   UNL     1       3.865   3.411  16.801  0.00  0.00    +0.000 A 
ATOM     25  C   UNL     1       2.893   2.831  17.619  0.00  0.00    +0.000 A 
ATOM     26  C   UNL     1       2.221   3.587  18.599  0.00  0.00    +0.000 A 
BRANCH  23  27
ATOM     27  C   UNL     1       5.203   5.406  16.023  0.00  0.00    +0.000 C 
ATOM     28  F   UNL     1       4.878   6.684  15.681  0.00  0.00    +0.000 F 
ATOM     29  F   UNL     1       6.455   5.466  16.550  0.00  0.00    +0.000 F 
ATOM     30  F   UNL     1       5.321   4.729  14.847  0.00  0.00    +0.000 F 
ENDBRANCH  23  27
BRANCH  26  31
ATOM     31  C   UNL     1       1.132   2.883  19.389  0.00  0.00    +0.000 C 
ATOM     32  F   UNL     1       0.349   3.700  20.146  0.00  0.00    +0.000 F 
ATOM     33  F   UNL     1       0.271   2.206  18.578  0.00  0.00    +0.000 F 
ATOM     34  F   UNL     1       1.634   1.958  20.252  0.00  0.00    +0.000 F 
ENDBRANCH  26  31
ENDBRANCH  20  21
ENDBRANCH  19  20
ENDBRANCH   4  19
TORSDOF 9
ENDMDL
MODEL 5
REMARK VINA RESULT:      -9.0      0.367      1.103
REMARK  Name = 
REMARK  9 active torsions:
REMARK  status: ('A' for Active; 'I' for Inactive)
REMARK    1  A    between atoms: C_2  and  O_3
REMARK    2  A    between atoms: C_2  and  C_4
REMARK    3  A    between atoms: C_7  and  C_8
REMARK    4  A    between atoms: C_8  and  C_10
REMARK    5  A    between atoms: C_13  and  O_14
REMARK    6  A    between atoms: O_14  and  C_15
REMARK    7  A    between atoms: C_15  and  C_16
REMARK    8  A    between atoms: C_18  and  C_19
REMARK    9  A    between atoms: C_25  and  C_26
REMARK                            x       y       z     vdW  Elec       q    Type
REMARK                         _______ _______ _______ _____ _____    ______ ____
ROOT
ATOM      1  C   UNL     1       0.012  10.895  19.107  0.00  0.00    +0.000 A 
ATOM      2  C   UNL     1       0.105  10.289  20.363  0.00  0.00    +0.000 A 
ATOM      3  C   UNL     1       0.909   9.168  20.541  0.00  0.00    +0.000 A 
ATOM      4  C   UNL     1       1.601   8.626  19.456  0.00  0.00    +0.000 A 
ATOM      5  C   UNL     1       1.571   9.270  18.219  0.00  0.00    +0.000 A 
ATOM      6  C   UNL     1       0.782  10.411  18.042  0.00  0.00    +0.000 A 
ENDROOT
BRANCH   1   7
ATOM      7  C   UNL     1      -0.891  12.062  18.983  0.00  0.00    +0.000 C 
ATOM      8  O   UNL     1      -0.417  13.191  19.075  0.00  0.00    +0.000 OA
BRANCH   7  12
ATOM      9  C   UNL     1      -5.095  11.642  18.294  0.00  0.00    +0.000 A 
ATOM     10  C   UNL     1      -4.165  11.103  17.399  0.00  0.00    +0.000 A 
ATOM     11  C   UNL     1      -2.799  11.247  17.644  0.00  0.00    +0.000 A 
ATOM     12  C   UNL     1      -2.355  11.916  18.791  0.00  0.00    +0.000 A 
ATOM     13  C   UNL     1      -3.287  12.466  19.680  0.00  0.00    +0.000 A 
ATOM     14  C   UNL     1      -4.657  12.315  19.443  0.00  0.00    +0.000 A 
BRANCH   9  16
ATOM     15  O   UNL     1      -7.198  10.564  18.535  0.00  0.00    +0.000 OA
ATOM     16  C   UNL     1      -6.536  11.442  18.009  0.00  0.00    +0.000 C 
BRANCH  16  17
ATOM     17  O   UNL     1      -7.039  12.296  17.092  0.00  0.00    +0.000 OA
ATOM     18  H   UNL     1      -7.721  11.921  16.506  0.00  0.00    +0.000 HD
ENDBRANCH  16  17
ENDBRANCH   9  16
ENDBRANCH   7  12
ENDBRANCH   1   7
BRANCH   4  19
ATOM     19  O   UNL     1       2.325   7.464  19.519  0.00  0.00    +0.000 OA
BRANCH  19  20
ATOM     20  C   UNL     1       3.059   7.174  18.322  0.00  0.00    +0.000 C 
BRANCH  20  21
ATOM     21  C   UNL     1       3.069   5.694  17.988  0.00  0.00    +0.000 A 
ATOM     22  C   UNL     1       2.135   4.833  18.591  0.00  0.00    +0.000 A 
ATOM     23  C   UNL     1       2.193   3.444  18.415  0.00  0.00    +0.000 A 
ATOM     24  C   UNL     1       3.172   2.914  17.569  0.00  0.00    +0.000 A 
ATOM     25  C   UNL     1       4.086   3.755  16.930  0.00  0.00    +0.000 A 
ATOM     26  C   UNL     1       4.060   5.148  17.137  0.00  0.00    +0.000 A 
BRANCH  23  27
ATOM     27  C   UNL     1       1.253   2.533  19.164  0.00  0.00    +0.000 C 
ATOM     28  F   UNL     1       1.801   1.328  19.486  0.00  0.00    +0.000 F 
ATOM     29  F   UNL     1       0.819   3.072  20.335  0.00  0.00    +0.000 F 
ATOM     30  F   UNL     1       0.133   2.247  18.443  0.00  0.00    +0.000 F 
ENDBRANCH  23  27
BRANCH  26  31
ATOM     31  C   UNL     1       5.141   5.968  16.453  0.00  0.00    +0.000 C 
ATOM     32  F   UNL     1       4.684   6.979  15.664  0.00  0.00    +0.000 F 
ATOM     33  F   UNL     1       5.977   6.559  17.351  0.00  0.00    +0.000 F 
ATOM     34  F   UNL     1       5.934   5.209  15.649  0.00  0.00    +0.000 F 
ENDBRANCH  26  31
ENDBRANCH  20  21
ENDBRANCH  19  20
ENDBRANCH   4  19
TORSDOF 9
ENDMDL
MODEL 6
REMARK VINA RESULT:      -9.0      0.801      3.703
REMARK  Name = 
REMARK  9 active torsions:
REMARK  status: ('A' for Active; 'I' for Inactive)
REMARK    1  A    between atoms: C_2  and  O_3
REMARK    2  A    between atoms: C_2  and  C_4
REMARK    3  A    between atoms: C_7  and  C_8
REMARK    4  A    between atoms: C_8  and  C_10
REMARK    5  A    between atoms: C_13  and  O_14
REMARK    6  A    between atoms: O_14  and  C_15
REMARK    7  A    between atoms: C_15  and  C_16
REMARK    8  A    between atoms: C_18  and  C_19
REMARK    9  A    between atoms: C_25  and  C_26
REMARK                            x       y       z     vdW  Elec       q    Type
REMARK                         _______ _______ _______ _____ _____    ______ ____
ROOT
ATOM      1  C   UNL     1      -0.036  10.464  19.129  0.00  0.00    +0.000 A 
ATOM      2  C   UNL     1       0.723   9.928  18.086  0.00  0.00    +0.000 A 
ATOM      3  C   UNL     1       1.569   8.849  18.319  0.00  0.00    +0.000 A 
ATOM      4  C   UNL     1       1.688   8.320  19.605  0.00  0.00    +0.000 A 
ATOM      5  C   UNL     1       0.877   8.803  20.633  0.00  0.00    +0.000 A 
ATOM      6  C   UNL     1       0.008   9.872  20.397  0.00  0.00    +0.000 A 
ENDROOT
BRANCH   1   7
ATOM      7  C   UNL     1      -0.887  11.635  18.816  0.00  0.00    +0.000 C 
ATOM      8  O   UNL     1      -0.370  12.749  18.769  0.00  0.00    +0.000 OA
BRANCH   7  12
ATOM      9  C   UNL     1      -5.126  11.317  18.309  0.00  0.00    +0.000 A 
ATOM     10  C   UNL     1      -4.582  12.161  19.283  0.00  0.00    +0.000 A 
ATOM     11  C   UNL     1      -3.197  12.254  19.430  0.00  0.00    +0.000 A 
ATOM     12  C   UNL     1      -2.349  11.517  18.595  0.00  0.00    +0.000 A 
ATOM     13  C   UNL     1      -2.895  10.664  17.627  0.00  0.00    +0.000 A 
ATOM     14  C   UNL     1      -4.282  10.576  17.471  0.00  0.00    +0.000 A 
BRANCH   9  16
ATOM     15  O   UNL     1      -7.244  12.161  17.642  0.00  0.00    +0.000 OA
ATOM     16  C   UNL     1      -6.601  11.271  18.169  0.00  0.00    +0.000 C 
BRANCH  16  17
ATOM     17  O   UNL     1      -7.169  10.171  18.709  0.00  0.00    +0.000 OA
ATOM     18  H   UNL     1      -8.121  10.065  18.530  0.00  0.00    +0.000 HD
ENDBRANCH  16  17
ENDBRANCH   9  16
ENDBRANCH   7  12
ENDBRANCH   1   7
BRANCH   4  19
ATOM     19  O   UNL     1       2.576   7.334  19.944  0.00  0.00    +0.000 OA
BRANCH  19  20
ATOM     20  C   UNL     1       2.062   6.006  19.771  0.00  0.00    +0.000 C 
BRANCH  20  21
ATOM     21  C   UNL     1       2.893   5.178  18.810  0.00  0.00    +0.000 A 
ATOM     22  C   UNL     1       3.756   5.816  17.901  0.00  0.00    +0.000 A 
ATOM     23  C   UNL     1       4.440   5.100  16.909  0.00  0.00    +0.000 A 
ATOM     24  C   UNL     1       4.300   3.709  16.866  0.00  0.00    +0.000 A 
ATOM     25  C   UNL     1       3.478   3.053  17.784  0.00  0.00    +0.000 A 
ATOM     26  C   UNL     1       2.755   3.770  18.757  0.00  0.00    +0.000 A 
BRANCH  23  27
ATOM     27  C   UNL     1       5.268   5.819  15.873  0.00  0.00    +0.000 C 
ATOM     28  F   UNL     1       4.789   7.054  15.552  0.00  0.00    +0.000 F 
ATOM     29  F   UNL     1       6.556   6.009  16.268  0.00  0.00    +0.000 F 
ATOM     30  F   UNL     1       5.332   5.132  14.699  0.00  0.00    +0.000 F 
ENDBRANCH  23  27
BRANCH  26  31
ATOM     31  C   UNL     1       1.833   2.971  19.661  0.00  0.00    +0.000 C 
ATOM     32  F   UNL     1       1.783   1.636  19.398  0.00  0.00    +0.000 F 
ATOM     33  F   UNL     1       2.194   3.068  20.971  0.00  0.00    +0.000 F 
ATOM     34  F   UNL     1       0.544   3.403  19.598  0.00  0.00    +0.000 F 
ENDBRANCH  26  31
ENDBRANCH  20  21
ENDBRANCH  19  20
ENDBRANCH   4  19
TORSDOF 9
ENDMDL
MODEL 7
REMARK VINA RESULT:      -8.9      0.263      1.089
REMARK  Name = 
REMARK  9 active torsions:
REMARK  status: ('A' for Active; 'I' for Inactive)
REMARK    1  A    between atoms: C_2  and  O_3
REMARK    2  A    between atoms: C_2  and  C_4
REMARK    3  A    between atoms: C_7  and  C_8
REMARK    4  A    between atoms: C_8  and  C_10
REMARK    5  A    between atoms: C_13  and  O_14
REMARK    6  A    between atoms: O_14  and  C_15
REMARK    7  A    between atoms: C_15  and  C_16
REMARK    8  A    between atoms: C_18  and  C_19
REMARK    9  A    between atoms: C_25  and  C_26
REMARK                            x       y       z     vdW  Elec       q    Type
REMARK                         _______ _______ _______ _____ _____    ______ ____
ROOT
ATOM      1  C   UNL     1      -0.350  10.949  19.503  0.00  0.00    +0.000 A 
ATOM      2  C   UNL     1       0.409  10.738  18.348  0.00  0.00    +0.000 A 
ATOM      3  C   UNL     1       1.286   9.661  18.275  0.00  0.00    +0.000 A 
ATOM      4  C   UNL     1       1.435   8.805  19.369  0.00  0.00    +0.000 A 
ATOM      5  C   UNL     1       0.626   8.968  20.494  0.00  0.00    +0.000 A 
ATOM      6  C   UNL     1      -0.274  10.036  20.562  0.00  0.00    +0.000 A 
ENDROOT
BRANCH   1   7
ATOM      7  C   UNL     1      -1.235  12.136  19.524  0.00  0.00    +0.000 C 
ATOM      8  O   UNL     1      -0.739  13.242  19.723  0.00  0.00    +0.000 OA
BRANCH   7  12
ATOM      9  C   UNL     1      -5.458  11.825  18.893  0.00  0.00    +0.000 A 
ATOM     10  C   UNL     1      -4.558  11.146  18.065  0.00  0.00    +0.000 A 
ATOM     11  C   UNL     1      -3.184  11.257  18.289  0.00  0.00    +0.000 A 
ATOM     12  C   UNL     1      -2.704  12.033  19.351  0.00  0.00    +0.000 A 
ATOM     13  C   UNL     1      -3.607  12.722  20.173  0.00  0.00    +0.000 A 
ATOM     14  C   UNL     1      -4.983  12.605  19.956  0.00  0.00    +0.000 A 
BRANCH   9  16
ATOM     15  O   UNL     1      -7.678  12.596  18.551  0.00  0.00    +0.000 OA
ATOM     16  C   UNL     1      -6.908  11.657  18.635  0.00  0.00    +0.000 C 
BRANCH  16  17
ATOM     17  O   UNL     1      -7.302  10.368  18.537  0.00  0.00    +0.000 OA
ATOM     18  H   UNL     1      -7.031   9.794  19.276  0.00  0.00    +0.000 HD
ENDBRANCH  16  17
ENDBRANCH   9  16
ENDBRANCH   7  12
ENDBRANCH   1   7
BRANCH   4  19
ATOM     19  O   UNL     1       2.354   7.790  19.422  0.00  0.00    +0.000 OA
BRANCH  19  20
ATOM     20  C   UNL     1       2.897   7.435  18.144  0.00  0.00    +0.000 C 
BRANCH  20  21
ATOM     21  C   UNL     1       2.985   5.933  17.943  0.00  0.00    +0.000 A 
ATOM     22  C   UNL     1       2.042   5.088  18.556  0.00  0.00    +0.000 A 
ATOM     23  C   UNL     1       2.163   3.693  18.508  0.00  0.00    +0.000 A 
ATOM     24  C   UNL     1       3.219   3.135  17.780  0.00  0.00    +0.000 A 
ATOM     25  C   UNL     1       4.144   3.955  17.133  0.00  0.00    +0.000 A 
ATOM     26  C   UNL     1       4.053   5.359  17.213  0.00  0.00    +0.000 A 
BRANCH  23  27
ATOM     27  C   UNL     1       1.206   2.811  19.270  0.00  0.00    +0.000 C 
ATOM     28  F   UNL     1       0.644   3.421  20.351  0.00  0.00    +0.000 F 
ATOM     29  F   UNL     1       0.169   2.375  18.505  0.00  0.00    +0.000 F 
ATOM     30  F   UNL     1       1.813   1.692  19.753  0.00  0.00    +0.000 F 
ENDBRANCH  23  27
BRANCH  26  31
ATOM     31  C   UNL     1       5.149   6.162  16.533  0.00  0.00    +0.000 C 
ATOM     32  F   UNL     1       4.716   7.053  15.600  0.00  0.00    +0.000 F 
ATOM     33  F   UNL     1       5.872   6.894  17.426  0.00  0.00    +0.000 F 
ATOM     34  F   UNL     1       6.047   5.368  15.889  0.00  0.00    +0.000 F 
ENDBRANCH  26  31
ENDBRANCH  20  21
ENDBRANCH  19  20
ENDBRANCH   4  19
TORSDOF 9
ENDMDL
MODEL 8
REMARK VINA RESULT:      -8.9      1.967      2.553
REMARK  Name = 
REMARK  9 active torsions:
REMARK  status: ('A' for Active; 'I' for Inactive)
REMARK    1  A    between atoms: C_2  and  O_3
REMARK    2  A    between atoms: C_2  and  C_4
REMARK    3  A    between atoms: C_7  and  C_8
REMARK    4  A    between atoms: C_8  and  C_10
REMARK    5  A    between atoms: C_13  and  O_14
REMARK    6  A    between atoms: O_14  and  C_15
REMARK    7  A    between atoms: C_15  and  C_16
REMARK    8  A    between atoms: C_18  and  C_19
REMARK    9  A    between atoms: C_25  and  C_26
REMARK                            x       y       z     vdW  Elec       q    Type
REMARK                         _______ _______ _______ _____ _____    ______ ____
ROOT
ATOM      1  C   UNL     1       0.821  11.278  20.245  0.00  0.00    +0.000 A 
ATOM      2  C   UNL     1       0.764   9.977  20.751  0.00  0.00    +0.000 A 
ATOM      3  C   UNL     1       1.157   8.901  19.962  0.00  0.00    +0.000 A 
ATOM      4  C   UNL     1       1.579   9.116  18.648  0.00  0.00    +0.000 A 
ATOM      5  C   UNL     1       1.708  10.418  18.164  0.00  0.00    +0.000 A 
ATOM      6  C   UNL     1       1.336  11.503  18.962  0.00  0.00    +0.000 A 
ENDROOT
BRANCH   1   7
ATOM      7  C   UNL     1       0.352  12.370  21.129  0.00  0.00    +0.000 C 
ATOM      8  O   UNL     1       1.176  13.159  21.584  0.00  0.00    +0.000 OA
BRANCH   7  12
ATOM      9  C   UNL     1      -3.740  12.712  22.336  0.00  0.00    +0.000 A 
ATOM     10  C   UNL     1      -2.752  12.339  23.253  0.00  0.00    +0.000 A 
ATOM     11  C   UNL     1      -1.422  12.237  22.840  0.00  0.00    +0.000 A 
ATOM     12  C   UNL     1      -1.071  12.522  21.515  0.00  0.00    +0.000 A 
ATOM     13  C   UNL     1      -2.064  12.885  20.596  0.00  0.00    +0.000 A 
ATOM     14  C   UNL     1      -3.395  12.997  21.008  0.00  0.00    +0.000 A 
BRANCH   9  16
ATOM     15  O   UNL     1      -5.433  13.470  23.820  0.00  0.00    +0.000 OA
ATOM     16  C   UNL     1      -5.135  12.835  22.824  0.00  0.00    +0.000 C 
BRANCH  16  17
ATOM     17  O   UNL     1      -6.037  12.152  22.086  0.00  0.00    +0.000 OA
ATOM     18  H   UNL     1      -6.799  12.674  21.776  0.00  0.00    +0.000 HD
ENDBRANCH  16  17
ENDBRANCH   9  16
ENDBRANCH   7  12
ENDBRANCH   1   7
BRANCH   4  19
ATOM     19  O   UNL     1       1.877   8.107  17.770  0.00  0.00    +0.000 OA
BRANCH  19  20
ATOM     20  C   UNL     1       3.164   7.513  17.986  0.00  0.00    +0.000 C 
BRANCH  20  21
ATOM     21  C   UNL     1       3.147   6.005  17.819  0.00  0.00    +0.000 A 
ATOM     22  C   UNL     1       2.174   5.238  18.484  0.00  0.00    +0.000 A 
ATOM     23  C   UNL     1       2.202   3.837  18.465  0.00  0.00    +0.000 A 
ATOM     24  C   UNL     1       3.192   3.194  17.715  0.00  0.00    +0.000 A 
ATOM     25  C   UNL     1       4.144   3.938  17.017  0.00  0.00    +0.000 A 
ATOM     26  C   UNL     1       4.148   5.346  17.066  0.00  0.00    +0.000 A 
BRANCH  23  27
ATOM     27  C   UNL     1       1.217   3.036  19.281  0.00  0.00    +0.000 C 
ATOM     28  F   UNL     1       0.316   2.347  18.526  0.00  0.00    +0.000 F 
ATOM     29  F   UNL     1       1.821   2.113  20.078  0.00  0.00    +0.000 F 
ATOM     30  F   UNL     1       0.478   3.824  20.110  0.00  0.00    +0.000 F 
ENDBRANCH  23  27
BRANCH  26  31
ATOM     31  C   UNL     1       5.268   6.061  16.330  0.00  0.00    +0.000 C 
ATOM     32  F   UNL     1       6.103   6.790  17.120  0.00  0.00    +0.000 F 
ATOM     33  F   UNL     1       6.072   5.191  15.658  0.00  0.00    +0.000 F 
ATOM     34  F   UNL     1       4.799   6.932  15.395  0.00  0.00    +0.000 F 
ENDBRANCH  26  31
ENDBRANCH  20  21
ENDBRANCH  19  20
ENDBRANCH   4  19
TORSDOF 9
ENDMDL
MODEL 9
REMARK VINA RESULT:      -8.9      7.554     10.130
REMARK  Name = 
REMARK  9 active torsions:
REMARK  status: ('A' for Active; 'I' for Inactive)
REMARK    1  A    between atoms: C_2  and  O_3
REMARK    2  A    between atoms: C_2  and  C_4
REMARK    3  A    between atoms: C_7  and  C_8
REMARK    4  A    between atoms: C_8  and  C_10
REMARK    5  A    between atoms: C_13  and  O_14
REMARK    6  A    between atoms: O_14  and  C_15
REMARK    7  A    between atoms: C_15  and  C_16
REMARK    8  A    between atoms: C_18  and  C_19
REMARK    9  A    between atoms: C_25  and  C_26
REMARK                            x       y       z     vdW  Elec       q    Type
REMARK                         _______ _______ _______ _____ _____    ______ ____
ROOT
ATOM      1  C   UNL     1       6.475   6.077  17.236  0.00  0.00    +0.000 A 
ATOM      2  C   UNL     1       6.583   7.394  16.781  0.00  0.00    +0.000 A 
ATOM      3  C   UNL     1       7.459   8.278  17.402  0.00  0.00    +0.000 A 
ATOM      4  C   UNL     1       8.208   7.861  18.504  0.00  0.00    +0.000 A 
ATOM      5  C   UNL     1       8.158   6.529  18.914  0.00  0.00    +0.000 A 
ATOM      6  C   UNL     1       7.297   5.630  18.277  0.00  0.00    +0.000 A 
ENDROOT
BRANCH   1   7
ATOM      7  C   UNL     1       5.496   5.202  16.550  0.00  0.00    +0.000 C 
ATOM      8  O   UNL     1       5.675   4.925  15.366  0.00  0.00    +0.000 OA
BRANCH   7  12
ATOM      9  C   UNL     1       2.005   3.586  18.427  0.00  0.00    +0.000 A 
ATOM     10  C   UNL     1       2.968   2.744  17.860  0.00  0.00    +0.000 A 
ATOM     11  C   UNL     1       4.102   3.291  17.256  0.00  0.00    +0.000 A 
ATOM     12  C   UNL     1       4.287   4.679  17.230  0.00  0.00    +0.000 A 
ATOM     13  C   UNL     1       3.315   5.520  17.787  0.00  0.00    +0.000 A 
ATOM     14  C   UNL     1       2.183   4.976  18.401  0.00  0.00    +0.000 A 
BRANCH   9  16
ATOM     15  O   UNL     1       0.179   2.072  18.564  0.00  0.00    +0.000 OA
ATOM     16  C   UNL     1       0.831   2.962  19.082  0.00  0.00    +0.000 C 
BRANCH  16  17
ATOM     17  O   UNL     1       0.529   3.491  20.288  0.00  0.00    +0.000 OA
ATOM     18  H   UNL     1      -0.247   4.079  20.300  0.00  0.00    +0.000 HD
ENDBRANCH  16  17
ENDBRANCH   9  16
ENDBRANCH   7  12
ENDBRANCH   1   7
BRANCH   4  19
ATOM     19  O   UNL     1       9.008   8.695  19.240  0.00  0.00    +0.000 OA
BRANCH  19  20
ATOM     20  C   UNL     1       9.165  10.000  18.668  0.00  0.00    +0.000 C 
BRANCH  20  21
ATOM     21  C   UNL     1       9.485  11.059  19.707  0.00  0.00    +0.000 A 
ATOM     22  C   UNL     1       8.814  11.052  20.943  0.00  0.00    +0.000 A 
ATOM     23  C   UNL     1       8.980  12.084  21.877  0.00  0.00    +0.000 A 
ATOM     24  C   UNL     1       9.882  13.113  21.587  0.00  0.00    +0.000 A 
ATOM     25  C   UNL     1      10.586  13.119  20.382  0.00  0.00    +0.000 A 
ATOM     26  C   UNL     1      10.392  12.107  19.421  0.00  0.00    +0.000 A 
BRANCH  23  27
ATOM     27  C   UNL     1       8.163  12.115  23.144  0.00  0.00    +0.000 C 
ATOM     28  F   UNL     1       8.517  13.116  23.998  0.00  0.00    +0.000 F 
ATOM     29  F   UNL     1       6.833  12.276  22.910  0.00  0.00    +0.000 F 
ATOM     30  F   UNL     1       8.283  10.962  23.859  0.00  0.00    +0.000 F 
ENDBRANCH  23  27
BRANCH  26  31
ATOM     31  C   UNL     1      11.152  12.242  18.112  0.00  0.00    +0.000 C 
ATOM     32  F   UNL     1      11.924  11.171  17.782  0.00  0.00    +0.000 F 
ATOM     33  F   UNL     1      10.315  12.426  17.054  0.00  0.00    +0.000 F 
ATOM     34  F   UNL     1      11.994  13.311  18.111  0.00  0.00    +0.000 F 
ENDBRANCH  26  31
ENDBRANCH  20  21
ENDBRANCH  19  20
ENDBRANCH   4  19
TORSDOF 9
ENDMDL
