MODEL 1
REMARK VINA RESULT:      -6.9      0.000      0.000
REMARK  Name = 
REMARK  5 active torsions:
REMARK  status: ('A' for Active; 'I' for Inactive)
REMARK    1  A    between atoms: C_2  and  C_4
REMARK    2  A    between atoms: N_7  and  C_8
REMARK    3  A    between atoms: C_10  and  C_11
REMARK    4  A    between atoms: N_21  and  C_22
REMARK    5  A    between atoms: C_22  and  C_23
REMARK                            x       y       z     vdW  Elec       q    Type
REMARK                         _______ _______ _______ _____ _____    ______ ____
ROOT
ATOM      1  C   UNL     1       0.898  13.470  20.975  0.00  0.00    +0.000 A 
ATOM      2  N   UNL     1       0.238  14.147  21.946  0.00  0.00    +0.000 NA
ATOM      3  C   UNL     1      -0.677  13.504  22.692  0.00  0.00    +0.000 A 
ATOM      4  N   UNL     1      -0.982  12.209  22.559  0.00  0.00    +0.000 NA
ATOM      5  C   UNL     1      -0.316  11.527  21.611  0.00  0.00    +0.000 A 
ATOM      6  C   UNL     1       0.647  12.104  20.790  0.00  0.00    +0.000 A 
ATOM      7  C   UNL     1       1.296  11.254  19.733  0.00  0.00    +0.000 C 
ATOM      8  N   UNL     1       1.119   9.786  19.832  0.00  0.00    +0.000 NA
ATOM      9  C   UNL     1      -0.282   9.479  20.149  0.00  0.00    +0.000 C 
ATOM     10  C   UNL     1      -0.648  10.066  21.510  0.00  0.00    +0.000 C 
ENDROOT
BRANCH   1  14
ATOM     11  C   UNL     1       3.877  14.945  18.355  0.00  0.00    +0.000 C 
ATOM     12  C   UNL     1       2.582  14.269  17.885  0.00  0.00    +0.000 C 
ATOM     13  C   UNL     1       1.393  14.526  18.819  0.00  0.00    +0.000 C 
ATOM     14  N   UNL     1       1.760  14.236  20.211  0.00  0.00    +0.000 N 
ATOM     15  C   UNL     1       2.935  14.942  20.705  0.00  0.00    +0.000 C 
ATOM     16  C   UNL     1       4.139  14.634  19.825  0.00  0.00    +0.000 C 
BRANCH  11  18
ATOM     17  N   UNL     1       3.070  16.878  17.102  0.00  0.00    +0.000 N 
ATOM     18  C   UNL     1       3.887  16.449  18.105  0.00  0.00    +0.000 C 
ATOM     19  O   UNL     1       4.581  17.251  18.718  0.00  0.00    +0.000 OA
ATOM     20  H   UNL     1       3.165  17.854  16.845  0.00  0.00    +0.000 HD
ATOM     21  H   UNL     1       2.724  16.242  16.398  0.00  0.00    +0.000 HD
ENDBRANCH  11  18
ENDBRANCH   1  14
BRANCH   3  22
ATOM     22  C   UNL     1      -1.422  14.261  23.707  0.00  0.00    +0.000 A 
ATOM     23  C   UNL     1      -0.828  15.296  24.452  0.00  0.00    +0.000 A 
ATOM     24  C   UNL     1      -1.553  15.994  25.416  0.00  0.00    +0.000 A 
ATOM     25  C   UNL     1      -2.874  15.641  25.620  0.00  0.00    +0.000 A 
ATOM     26  N   UNL     1      -3.498  14.659  24.937  0.00  0.00    +0.000 NA
ATOM     27  C   UNL     1      -2.757  13.999  24.005  0.00  0.00    +0.000 A 
ENDBRANCH   3  22
BRANCH   8  28
ATOM     28  C   UNL     1       1.521   9.216  18.525  0.00  0.00    +0.000 C 
BRANCH  28  29
ATOM     29  C   UNL     1       2.371   7.972  18.597  0.00  0.00    +0.000 A 
ATOM     30  C   UNL     1       2.231   7.083  19.675  0.00  0.00    +0.000 A 
ATOM     31  C   UNL     1       2.981   5.909  19.724  0.00  0.00    +0.000 A 
ATOM     32  C   UNL     1       3.875   5.611  18.698  0.00  0.00    +0.000 A 
ATOM     33  C   UNL     1       4.026   6.490  17.625  0.00  0.00    +0.000 A 
ATOM     34  C   UNL     1       3.279   7.667  17.572  0.00  0.00    +0.000 A 
ENDBRANCH  28  29
ENDBRANCH   8  28
TORSDOF 5
ENDMDL
MODEL 2
REMARK VINA RESULT:      -6.9      3.943      8.566
REMARK  Name = 
REMARK  5 active torsions:
REMARK  status: ('A' for Active; 'I' for Inactive)
REMARK    1  A    between atoms: C_2  and  C_4
REMARK    2  A    between atoms: N_7  and  C_8
REMARK    3  A    between atoms: C_10  and  C_11
REMARK    4  A    between atoms: N_21  and  C_22
REMARK    5  A    between atoms: C_22  and  C_23
REMARK                            x       y       z     vdW  Elec       q    Type
REMARK                         _______ _______ _______ _____ _____    ______ ____
ROOT
ATOM      1  C   UNL     1      -2.143  12.046  20.347  0.00  0.00    +0.000 A 
ATOM      2  N   UNL     1      -1.024  11.298  20.195  0.00  0.00    +0.000 NA
ATOM      3  C   UNL     1      -0.938  10.443  19.160  0.00  0.00    +0.000 A 
ATOM      4  N   UNL     1      -1.890  10.283  18.235  0.00  0.00    +0.000 NA
ATOM      5  C   UNL     1      -2.994  11.037  18.370  0.00  0.00    +0.000 A 
ATOM      6  C   UNL     1      -3.175  11.948  19.405  0.00  0.00    +0.000 A 
ATOM      7  C   UNL     1      -4.472  12.705  19.480  0.00  0.00    +0.000 C 
ATOM      8  N   UNL     1      -5.346  12.687  18.284  0.00  0.00    +0.000 NA
ATOM      9  C   UNL     1      -5.416  11.321  17.747  0.00  0.00    +0.000 C 
ATOM     10  C   UNL     1      -4.030  10.867  17.295  0.00  0.00    +0.000 C 
ENDROOT
BRANCH   1  14
ATOM     11  C   UNL     1      -3.184  14.453  23.669  0.00  0.00    +0.000 C 
ATOM     12  C   UNL     1      -3.446  12.943  23.590  0.00  0.00    +0.000 C 
ATOM     13  C   UNL     1      -2.385  12.187  22.782  0.00  0.00    +0.000 C 
ATOM     14  N   UNL     1      -2.169  12.836  21.483  0.00  0.00    +0.000 N 
ATOM     15  C   UNL     1      -1.824  14.250  21.544  0.00  0.00    +0.000 C 
ATOM     16  C   UNL     1      -2.911  15.022  22.281  0.00  0.00    +0.000 C 
BRANCH  11  18
ATOM     17  N   UNL     1      -2.465  15.242  25.865  0.00  0.00    +0.000 N 
ATOM     18  C   UNL     1      -2.060  14.811  24.637  0.00  0.00    +0.000 C 
ATOM     19  O   UNL     1      -0.867  14.754  24.368  0.00  0.00    +0.000 OA
ATOM     20  H   UNL     1      -1.733  15.601  26.467  0.00  0.00    +0.000 HD
ATOM     21  H   UNL     1      -3.404  15.579  26.020  0.00  0.00    +0.000 HD
ENDBRANCH  11  18
ENDBRANCH   1  14
BRANCH   3  22
ATOM     22  C   UNL     1       0.260   9.602  19.035  0.00  0.00    +0.000 A 
ATOM     23  C   UNL     1       0.941   9.449  17.814  0.00  0.00    +0.000 A 
ATOM     24  C   UNL     1       2.070   8.638  17.718  0.00  0.00    +0.000 A 
ATOM     25  C   UNL     1       2.503   7.986  18.859  0.00  0.00    +0.000 A 
ATOM     26  N   UNL     1       1.891   8.093  20.057  0.00  0.00    +0.000 NA
ATOM     27  C   UNL     1       0.791   8.894  20.111  0.00  0.00    +0.000 A 
ENDBRANCH   3  22
BRANCH   8  28
ATOM     28  C   UNL     1      -6.677  13.173  18.715  0.00  0.00    +0.000 C 
BRANCH  28  29
ATOM     29  C   UNL     1      -7.019  12.919  20.162  0.00  0.00    +0.000 A 
ATOM     30  C   UNL     1      -7.584  11.692  20.549  0.00  0.00    +0.000 A 
ATOM     31  C   UNL     1      -7.859  11.434  21.891  0.00  0.00    +0.000 A 
ATOM     32  C   UNL     1      -7.574  12.396  22.858  0.00  0.00    +0.000 A 
ATOM     33  C   UNL     1      -7.018  13.620  22.483  0.00  0.00    +0.000 A 
ATOM     34  C   UNL     1      -6.741  13.884  21.142  0.00  0.00    +0.000 A 
ENDBRANCH  28  29
ENDBRANCH   8  28
TORSDOF 5
ENDMDL
MODEL 3
REMARK VINA RESULT:      -6.8      0.611      1.051
REMARK  Name = 
REMARK  5 active torsions:
REMARK  status: ('A' for Active; 'I' for Inactive)
REMARK    1  A    between atoms: C_2  and  C_4
REMARK    2  A    between atoms: N_7  and  C_8
REMARK    3  A    between atoms: C_10  and  C_11
REMARK    4  A    between atoms: N_21  and  C_22
REMARK    5  A    between atoms: C_22  and  C_23
REMARK                            x       y       z     vdW  Elec       q    Type
REMARK                         _______ _______ _______ _____ _____    ______ ____
ROOT
ATOM      1  C   UNL     1       1.021  13.565  20.958  0.00  0.00    +0.000 A 
ATOM      2  N   UNL     1       0.357  14.257  21.914  0.00  0.00    +0.000 NA
ATOM      3  C   UNL     1      -0.615  13.647  22.615  0.00  0.00    +0.000 A 
ATOM      4  N   UNL     1      -0.974  12.369  22.450  0.00  0.00    +0.000 NA
ATOM      5  C   UNL     1      -0.304  11.672  21.516  0.00  0.00    +0.000 A 
ATOM      6  C   UNL     1       0.715  12.215  20.741  0.00  0.00    +0.000 A 
ATOM      7  C   UNL     1       1.364  11.352  19.695  0.00  0.00    +0.000 C 
ATOM      8  N   UNL     1       1.117   9.892  19.763  0.00  0.00    +0.000 NA
ATOM      9  C   UNL     1      -0.308   9.646  20.023  0.00  0.00    +0.000 C 
ATOM     10  C   UNL     1      -0.698  10.228  21.379  0.00  0.00    +0.000 C 
ENDROOT
BRANCH   1  14
ATOM     11  C   UNL     1       4.138  14.940  18.448  0.00  0.00    +0.000 C 
ATOM     12  C   UNL     1       2.811  14.371  17.930  0.00  0.00    +0.000 C 
ATOM     13  C   UNL     1       1.625  14.669  18.855  0.00  0.00    +0.000 C 
ATOM     14  N   UNL     1       1.946  14.301  20.239  0.00  0.00    +0.000 N 
ATOM     15  C   UNL     1       3.155  14.908  20.780  0.00  0.00    +0.000 C 
ATOM     16  C   UNL     1       4.352  14.556  19.908  0.00  0.00    +0.000 C 
BRANCH  11  18
ATOM     17  N   UNL     1       5.382  17.016  18.770  0.00  0.00    +0.000 N 
ATOM     18  C   UNL     1       4.253  16.449  18.258  0.00  0.00    +0.000 C 
ATOM     19  O   UNL     1       3.406  17.148  17.715  0.00  0.00    +0.000 OA
ATOM     20  H   UNL     1       5.407  18.030  18.761  0.00  0.00    +0.000 HD
ATOM     21  H   UNL     1       5.939  16.542  19.464  0.00  0.00    +0.000 HD
ENDBRANCH  11  18
ENDBRANCH   1  14
BRANCH   3  22
ATOM     22  C   UNL     1      -1.362  14.423  23.614  0.00  0.00    +0.000 A 
ATOM     23  C   UNL     1      -0.853  15.608  24.173  0.00  0.00    +0.000 A 
ATOM     24  C   UNL     1      -1.577  16.322  25.126  0.00  0.00    +0.000 A 
ATOM     25  C   UNL     1      -2.812  15.831  25.508  0.00  0.00    +0.000 A 
ATOM     26  N   UNL     1      -3.353  14.701  25.008  0.00  0.00    +0.000 NA
ATOM     27  C   UNL     1      -2.616  14.031  24.080  0.00  0.00    +0.000 A 
ENDBRANCH   3  22
BRANCH   8  28
ATOM     28  C   UNL     1       1.541   9.323  18.463  0.00  0.00    +0.000 C 
BRANCH  28  29
ATOM     29  C   UNL     1       2.327   8.038  18.545  0.00  0.00    +0.000 A 
ATOM     30  C   UNL     1       3.250   7.710  17.539  0.00  0.00    +0.000 A 
ATOM     31  C   UNL     1       4.013   6.547  17.634  0.00  0.00    +0.000 A 
ATOM     32  C   UNL     1       3.861   5.702  18.731  0.00  0.00    +0.000 A 
ATOM     33  C   UNL     1       2.942   6.016  19.733  0.00  0.00    +0.000 A 
ATOM     34  C   UNL     1       2.176   7.178  19.643  0.00  0.00    +0.000 A 
ENDBRANCH  28  29
ENDBRANCH   8  28
TORSDOF 5
ENDMDL
MODEL 4
REMARK VINA RESULT:      -6.8      0.992      1.476
REMARK  Name = 
REMARK  5 active torsions:
REMARK  status: ('A' for Active; 'I' for Inactive)
REMARK    1  A    between atoms: C_2  and  C_4
REMARK    2  A    between atoms: N_7  and  C_8
REMARK    3  A    between atoms: C_10  and  C_11
REMARK    4  A    between atoms: N_21  and  C_22
REMARK    5  A    between atoms: C_22  and  C_23
REMARK                            x       y       z     vdW  Elec       q    Type
REMARK                         _______ _______ _______ _____ _____    ______ ____
ROOT
ATOM      1  C   UNL     1       0.653  13.488  20.813  0.00  0.00    +0.000 A 
ATOM      2  N   UNL     1       0.032  14.166  21.807  0.00  0.00    +0.000 NA
ATOM      3  C   UNL     1      -0.742  13.495  22.679  0.00  0.00    +0.000 A 
ATOM      4  N   UNL     1      -0.936  12.172  22.652  0.00  0.00    +0.000 NA
ATOM      5  C   UNL     1      -0.306  11.492  21.678  0.00  0.00    +0.000 A 
ATOM      6  C   UNL     1       0.513  12.096  20.730  0.00  0.00    +0.000 A 
ATOM      7  C   UNL     1       1.131  11.240  19.661  0.00  0.00    +0.000 C 
ATOM      8  N   UNL     1       1.104   9.771  19.858  0.00  0.00    +0.000 NA
ATOM      9  C   UNL     1      -0.224   9.364  20.337  0.00  0.00    +0.000 C 
ATOM     10  C   UNL     1      -0.507  10.003  21.694  0.00  0.00    +0.000 C 
ENDROOT
BRANCH   1  14
ATOM     11  C   UNL     1       2.906  16.487  18.854  0.00  0.00    +0.000 C 
ATOM     12  C   UNL     1       3.490  15.518  19.890  0.00  0.00    +0.000 C 
ATOM     13  C   UNL     1       2.820  14.139  19.871  0.00  0.00    +0.000 C 
ATOM     14  N   UNL     1       1.360  14.275  19.921  0.00  0.00    +0.000 N 
ATOM     15  C   UNL     1       0.777  15.118  18.885  0.00  0.00    +0.000 C 
ATOM     16  C   UNL     1       1.384  16.514  18.944  0.00  0.00    +0.000 C 
BRANCH  11  18
ATOM     17  N   UNL     1       4.249  15.154  17.311  0.00  0.00    +0.000 N 
ATOM     18  C   UNL     1       3.364  16.183  17.431  0.00  0.00    +0.000 C 
ATOM     19  O   UNL     1       3.008  16.805  16.437  0.00  0.00    +0.000 OA
ATOM     20  H   UNL     1       4.654  15.027  16.390  0.00  0.00    +0.000 HD
ATOM     21  H   UNL     1       4.780  14.823  18.104  0.00  0.00    +0.000 HD
ENDBRANCH  11  18
ENDBRANCH   1  14
BRANCH   3  22
ATOM     22  C   UNL     1      -1.450  14.249  23.723  0.00  0.00    +0.000 A 
ATOM     23  C   UNL     1      -2.785  13.975  24.067  0.00  0.00    +0.000 A 
ATOM     24  C   UNL     1      -3.438  14.710  25.055  0.00  0.00    +0.000 A 
ATOM     25  C   UNL     1      -2.735  15.718  25.689  0.00  0.00    +0.000 A 
ATOM     26  N   UNL     1      -1.453  16.026  25.403  0.00  0.00    +0.000 NA
ATOM     27  C   UNL     1      -0.849  15.287  24.432  0.00  0.00    +0.000 A 
ENDBRANCH   3  22
BRANCH   8  28
ATOM     28  C   UNL     1       1.425   9.155  18.550  0.00  0.00    +0.000 C 
BRANCH  28  29
ATOM     29  C   UNL     1       2.322   7.944  18.610  0.00  0.00    +0.000 A 
ATOM     30  C   UNL     1       2.233   7.053  19.693  0.00  0.00    +0.000 A 
ATOM     31  C   UNL     1       3.027   5.908  19.731  0.00  0.00    +0.000 A 
ATOM     32  C   UNL     1       3.914   5.640  18.691  0.00  0.00    +0.000 A 
ATOM     33  C   UNL     1       4.014   6.521  17.614  0.00  0.00    +0.000 A 
ATOM     34  C   UNL     1       3.223   7.669  17.571  0.00  0.00    +0.000 A 
ENDBRANCH  28  29
ENDBRANCH   8  28
TORSDOF 5
ENDMDL
MODEL 5
REMARK VINA RESULT:      -6.8      0.697      1.126
REMARK  Name = 
REMARK  5 active torsions:
REMARK  status: ('A' for Active; 'I' for Inactive)
REMARK    1  A    between atoms: C_2  and  C_4
REMARK    2  A    between atoms: N_7  and  C_8
REMARK    3  A    between atoms: C_10  and  C_11
REMARK    4  A    between atoms: N_21  and  C_22
REMARK    5  A    between atoms: C_22  and  C_23
REMARK                            x       y       z     vdW  Elec       q    Type
REMARK                         _______ _______ _______ _____ _____    ______ ____
ROOT
ATOM      1  C   UNL     1       0.693  13.434  20.880  0.00  0.00    +0.000 A 
ATOM      2  N   UNL     1       0.053  14.096  21.873  0.00  0.00    +0.000 NA
ATOM      3  C   UNL     1      -0.757  13.416  22.704  0.00  0.00    +0.000 A 
ATOM      4  N   UNL     1      -0.971  12.098  22.635  0.00  0.00    +0.000 NA
ATOM      5  C   UNL     1      -0.323  11.433  21.664  0.00  0.00    +0.000 A 
ATOM      6  C   UNL     1       0.535  12.047  20.757  0.00  0.00    +0.000 A 
ATOM      7  C   UNL     1       1.171  11.209  19.685  0.00  0.00    +0.000 C 
ATOM      8  N   UNL     1       1.114   9.736  19.843  0.00  0.00    +0.000 NA
ATOM      9  C   UNL     1      -0.234   9.339  20.270  0.00  0.00    +0.000 C 
ATOM     10  C   UNL     1      -0.548   9.948  21.634  0.00  0.00    +0.000 C 
ENDROOT
BRANCH   1  14
ATOM     11  C   UNL     1       2.951  16.499  19.031  0.00  0.00    +0.000 C 
ATOM     12  C   UNL     1       3.482  15.609  20.162  0.00  0.00    +0.000 C 
ATOM     13  C   UNL     1       2.903  14.189  20.136  0.00  0.00    +0.000 C 
ATOM     14  N   UNL     1       1.440  14.232  20.031  0.00  0.00    +0.000 N 
ATOM     15  C   UNL     1       0.918  14.996  18.906  0.00  0.00    +0.000 C 
ATOM     16  C   UNL     1       1.429  16.429  18.965  0.00  0.00    +0.000 C 
BRANCH  11  18
ATOM     17  N   UNL     1       3.051  16.856  16.618  0.00  0.00    +0.000 N 
ATOM     18  C   UNL     1       3.571  16.173  17.676  0.00  0.00    +0.000 C 
ATOM     19  O   UNL     1       4.458  15.347  17.498  0.00  0.00    +0.000 OA
ATOM     20  H   UNL     1       3.367  16.556  15.703  0.00  0.00    +0.000 HD
ATOM     21  H   UNL     1       2.149  17.306  16.675  0.00  0.00    +0.000 HD
ENDBRANCH  11  18
ENDBRANCH   1  14
BRANCH   3  22
ATOM     22  C   UNL     1      -1.484  14.154  23.745  0.00  0.00    +0.000 A 
ATOM     23  C   UNL     1      -0.882  15.183  24.491  0.00  0.00    +0.000 A 
ATOM     24  C   UNL     1      -1.591  15.863  25.480  0.00  0.00    +0.000 A 
ATOM     25  C   UNL     1      -2.905  15.497  25.708  0.00  0.00    +0.000 A 
ATOM     26  N   UNL     1      -3.536  14.519  25.026  0.00  0.00    +0.000 NA
ATOM     27  C   UNL     1      -2.811  13.877  24.069  0.00  0.00    +0.000 A 
ENDBRANCH   3  22
BRANCH   8  28
ATOM     28  C   UNL     1       1.466   9.149  18.529  0.00  0.00    +0.000 C 
BRANCH  28  29
ATOM     29  C   UNL     1       2.364   7.938  18.583  0.00  0.00    +0.000 A 
ATOM     30  C   UNL     1       2.223   7.000  19.620  0.00  0.00    +0.000 A 
ATOM     31  C   UNL     1       3.019   5.856  19.649  0.00  0.00    +0.000 A 
ATOM     32  C   UNL     1       3.960   5.637  18.646  0.00  0.00    +0.000 A 
ATOM     33  C   UNL     1       4.113   6.565  17.616  0.00  0.00    +0.000 A 
ATOM     34  C   UNL     1       3.320   7.712  17.581  0.00  0.00    +0.000 A 
ENDBRANCH  28  29
ENDBRANCH   8  28
TORSDOF 5
ENDMDL
MODEL 6
REMARK VINA RESULT:      -6.8      4.761     11.139
REMARK  Name = 
REMARK  5 active torsions:
REMARK  status: ('A' for Active; 'I' for Inactive)
REMARK    1  A    between atoms: C_2  and  C_4
REMARK    2  A    between atoms: N_7  and  C_8
REMARK    3  A    between atoms: C_10  and  C_11
REMARK    4  A    between atoms: N_21  and  C_22
REMARK    5  A    between atoms: C_22  and  C_23
REMARK                            x       y       z     vdW  Elec       q    Type
REMARK                         _______ _______ _______ _____ _____    ______ ____
ROOT
ATOM      1  C   UNL     1       3.195   5.720  18.587  0.00  0.00    +0.000 A 
ATOM      2  N   UNL     1       4.096   5.270  17.681  0.00  0.00    +0.000 NA
ATOM      3  C   UNL     1       4.556   6.109  16.736  0.00  0.00    +0.000 A 
ATOM      4  N   UNL     1       4.197   7.393  16.629  0.00  0.00    +0.000 NA
ATOM      5  C   UNL     1       3.319   7.850  17.538  0.00  0.00    +0.000 A 
ATOM      6  C   UNL     1       2.787   7.060  18.551  0.00  0.00    +0.000 A 
ATOM      7  C   UNL     1       1.778   7.668  19.485  0.00  0.00    +0.000 C 
ATOM      8  N   UNL     1       1.647   9.144  19.484  0.00  0.00    +0.000 NA
ATOM      9  C   UNL     1       1.638   9.637  18.100  0.00  0.00    +0.000 C 
ATOM     10  C   UNL     1       2.964   9.305  17.421  0.00  0.00    +0.000 C 
ENDROOT
BRANCH   1  14
ATOM     11  C   UNL     1       1.285   2.460  20.493  0.00  0.00    +0.000 C 
ATOM     12  C   UNL     1       2.456   2.312  19.512  0.00  0.00    +0.000 C 
ATOM     13  C   UNL     1       3.440   3.486  19.565  0.00  0.00    +0.000 C 
ATOM     14  N   UNL     1       2.723   4.763  19.468  0.00  0.00    +0.000 N 
ATOM     15  C   UNL     1       1.669   4.962  20.454  0.00  0.00    +0.000 C 
ATOM     16  C   UNL     1       0.646   3.838  20.359  0.00  0.00    +0.000 C 
BRANCH  11  18
ATOM     17  N   UNL     1       0.646   2.079  22.818  0.00  0.00    +0.000 N 
ATOM     18  C   UNL     1       1.682   2.182  21.940  0.00  0.00    +0.000 C 
ATOM     19  O   UNL     1       2.837   2.074  22.336  0.00  0.00    +0.000 OA
ATOM     20  H   UNL     1       0.904   2.021  23.797  0.00  0.00    +0.000 HD
ATOM     21  H   UNL     1      -0.268   2.447  22.598  0.00  0.00    +0.000 HD
ENDBRANCH  11  18
ENDBRANCH   1  14
BRANCH   3  22
ATOM     22  C   UNL     1       5.494   5.595  15.728  0.00  0.00    +0.000 A 
ATOM     23  C   UNL     1       5.111   4.642  14.767  0.00  0.00    +0.000 A 
ATOM     24  C   UNL     1       6.021   4.163  13.828  0.00  0.00    +0.000 A 
ATOM     25  C   UNL     1       7.315   4.652  13.866  0.00  0.00    +0.000 A 
ATOM     26  N   UNL     1       7.741   5.565  14.763  0.00  0.00    +0.000 NA
ATOM     27  C   UNL     1       6.823   6.008  15.666  0.00  0.00    +0.000 A 
ENDBRANCH   3  22
BRANCH   8  28
ATOM     28  C   UNL     1       0.382   9.464  20.186  0.00  0.00    +0.000 C 
BRANCH  28  29
ATOM     29  C   UNL     1      -0.016  10.919  20.167  0.00  0.00    +0.000 A 
ATOM     30  C   UNL     1       0.807  11.884  20.772  0.00  0.00    +0.000 A 
ATOM     31  C   UNL     1       0.468  13.234  20.718  0.00  0.00    +0.000 A 
ATOM     32  C   UNL     1      -0.694  13.635  20.061  0.00  0.00    +0.000 A 
ATOM     33  C   UNL     1      -1.521  12.684  19.463  0.00  0.00    +0.000 A 
ATOM     34  C   UNL     1      -1.187  11.331  19.514  0.00  0.00    +0.000 A 
ENDBRANCH  28  29
ENDBRANCH   8  28
TORSDOF 5
ENDMDL
MODEL 7
REMARK VINA RESULT:      -6.8      5.279     11.123
REMARK  Name = 
REMARK  5 active torsions:
REMARK  status: ('A' for Active; 'I' for Inactive)
REMARK    1  A    between atoms: C_2  and  C_4
REMARK    2  A    between atoms: N_7  and  C_8
REMARK    3  A    between atoms: C_10  and  C_11
REMARK    4  A    between atoms: N_21  and  C_22
REMARK    5  A    between atoms: C_22  and  C_23
REMARK                            x       y       z     vdW  Elec       q    Type
REMARK                         _______ _______ _______ _____ _____    ______ ____
ROOT
ATOM      1  C   UNL     1       3.240   5.708  18.546  0.00  0.00    +0.000 A 
ATOM      2  N   UNL     1       4.131   5.246  17.637  0.00  0.00    +0.000 NA
ATOM      3  C   UNL     1       4.596   6.078  16.688  0.00  0.00    +0.000 A 
ATOM      4  N   UNL     1       4.252   7.365  16.579  0.00  0.00    +0.000 NA
ATOM      5  C   UNL     1       3.382   7.834  17.491  0.00  0.00    +0.000 A 
ATOM      6  C   UNL     1       2.846   7.053  18.509  0.00  0.00    +0.000 A 
ATOM      7  C   UNL     1       1.848   7.674  19.446  0.00  0.00    +0.000 C 
ATOM      8  N   UNL     1       1.733   9.152  19.442  0.00  0.00    +0.000 NA
ATOM      9  C   UNL     1       1.724   9.641  18.056  0.00  0.00    +0.000 C 
ATOM     10  C   UNL     1       3.043   9.293  17.372  0.00  0.00    +0.000 C 
ENDROOT
BRANCH   1  14
ATOM     11  C   UNL     1       1.291   2.482  20.471  0.00  0.00    +0.000 C 
ATOM     12  C   UNL     1       2.444   2.313  19.474  0.00  0.00    +0.000 C 
ATOM     13  C   UNL     1       3.453   3.467  19.515  0.00  0.00    +0.000 C 
ATOM     14  N   UNL     1       2.761   4.759  19.431  0.00  0.00    +0.000 N 
ATOM     15  C   UNL     1       1.725   4.976  20.432  0.00  0.00    +0.000 C 
ATOM     16  C   UNL     1       0.678   3.873  20.349  0.00  0.00    +0.000 C 
BRANCH  11  18
ATOM     17  N   UNL     1       0.674   2.071  22.797  0.00  0.00    +0.000 N 
ATOM     18  C   UNL     1       1.702   2.192  21.911  0.00  0.00    +0.000 C 
ATOM     19  O   UNL     1       2.861   2.091  22.297  0.00  0.00    +0.000 OA
ATOM     20  H   UNL     1       0.940   2.005  23.773  0.00  0.00    +0.000 HD
ATOM     21  H   UNL     1      -0.245   2.433  22.588  0.00  0.00    +0.000 HD
ENDBRANCH  11  18
ENDBRANCH   1  14
BRANCH   3  22
ATOM     22  C   UNL     1       5.524   5.551  15.678  0.00  0.00    +0.000 A 
ATOM     23  C   UNL     1       5.130   4.590  14.730  0.00  0.00    +0.000 A 
ATOM     24  C   UNL     1       6.031   4.099  13.787  0.00  0.00    +0.000 A 
ATOM     25  C   UNL     1       7.326   4.584  13.810  0.00  0.00    +0.000 A 
ATOM     26  N   UNL     1       7.763   5.505  14.694  0.00  0.00    +0.000 NA
ATOM     27  C   UNL     1       6.854   5.960  15.600  0.00  0.00    +0.000 A 
ENDBRANCH   3  22
BRANCH   8  28
ATOM     28  C   UNL     1       0.475   9.488  20.148  0.00  0.00    +0.000 C 
BRANCH  28  29
ATOM     29  C   UNL     1      -0.494  10.341  19.369  0.00  0.00    +0.000 A 
ATOM     30  C   UNL     1      -1.476   9.739  18.564  0.00  0.00    +0.000 A 
ATOM     31  C   UNL     1      -2.403  10.521  17.879  0.00  0.00    +0.000 A 
ATOM     32  C   UNL     1      -2.362  11.909  17.990  0.00  0.00    +0.000 A 
ATOM     33  C   UNL     1      -1.388  12.518  18.783  0.00  0.00    +0.000 A 
ATOM     34  C   UNL     1      -0.456  11.740  19.470  0.00  0.00    +0.000 A 
ENDBRANCH  28  29
ENDBRANCH   8  28
TORSDOF 5
ENDMDL
MODEL 8
REMARK VINA RESULT:      -6.8      4.453      7.154
REMARK  Name = 
REMARK  5 active torsions:
REMARK  status: ('A' for Active; 'I' for Inactive)
REMARK    1  A    between atoms: C_2  and  C_4
REMARK    2  A    between atoms: N_7  and  C_8
REMARK    3  A    between atoms: C_10  and  C_11
REMARK    4  A    between atoms: N_21  and  C_22
REMARK    5  A    between atoms: C_22  and  C_23
REMARK                            x       y       z     vdW  Elec       q    Type
REMARK                         _______ _______ _______ _____ _____    ______ ____
ROOT
ATOM      1  C   UNL     1      -2.570  13.870  22.959  0.00  0.00    +0.000 A 
ATOM      2  N   UNL     1      -2.186  14.847  23.815  0.00  0.00    +0.000 NA
ATOM      3  C   UNL     1      -0.915  15.285  23.789  0.00  0.00    +0.000 A 
ATOM      4  N   UNL     1       0.021  14.832  22.948  0.00  0.00    +0.000 NA
ATOM      5  C   UNL     1      -0.359  13.876  22.083  0.00  0.00    +0.000 A 
ATOM      6  C   UNL     1      -1.650  13.359  22.034  0.00  0.00    +0.000 A 
ATOM      7  C   UNL     1      -1.949  12.260  21.053  0.00  0.00    +0.000 C 
ATOM      8  N   UNL     1      -0.959  12.012  19.979  0.00  0.00    +0.000 NA
ATOM      9  C   UNL     1       0.397  12.033  20.545  0.00  0.00    +0.000 C 
ATOM     10  C   UNL     1       0.699  13.413  21.123  0.00  0.00    +0.000 C 
ENDROOT
BRANCH   1  14
ATOM     11  C   UNL     1      -6.598  13.250  24.097  0.00  0.00    +0.000 C 
ATOM     12  C   UNL     1      -6.121  14.436  23.249  0.00  0.00    +0.000 C 
ATOM     13  C   UNL     1      -4.932  14.093  22.345  0.00  0.00    +0.000 C 
ATOM     14  N   UNL     1      -3.873  13.432  23.117  0.00  0.00    +0.000 N 
ATOM     15  C   UNL     1      -4.287  12.246  23.854  0.00  0.00    +0.000 C 
ATOM     16  C   UNL     1      -5.421  12.594  24.810  0.00  0.00    +0.000 C 
BRANCH  11  18
ATOM     17  N   UNL     1      -7.835  12.654  22.078  0.00  0.00    +0.000 N 
ATOM     18  C   UNL     1      -7.389  12.224  23.292  0.00  0.00    +0.000 C 
ATOM     19  O   UNL     1      -7.651  11.090  23.676  0.00  0.00    +0.000 OA
ATOM     20  H   UNL     1      -8.466  12.026  21.593  0.00  0.00    +0.000 HD
ATOM     21  H   UNL     1      -7.899  13.638  21.861  0.00  0.00    +0.000 HD
ENDBRANCH  11  18
ENDBRANCH   1  14
BRANCH   3  22
ATOM     22  C   UNL     1      -0.499  16.310  24.756  0.00  0.00    +0.000 A 
ATOM     23  C   UNL     1      -1.097  16.428  26.024  0.00  0.00    +0.000 A 
ATOM     24  C   UNL     1      -0.690  17.414  26.921  0.00  0.00    +0.000 A 
ATOM     25  C   UNL     1       0.318  18.275  26.529  0.00  0.00    +0.000 A 
ATOM     26  N   UNL     1       0.929  18.212  25.328  0.00  0.00    +0.000 NA
ATOM     27  C   UNL     1       0.505  17.236  24.478  0.00  0.00    +0.000 A 
ENDBRANCH   3  22
BRANCH   8  28
ATOM     28  C   UNL     1      -1.284  10.693  19.389  0.00  0.00    +0.000 C 
BRANCH  28  29
ATOM     29  C   UNL     1      -2.149  10.733  18.155  0.00  0.00    +0.000 A 
ATOM     30  C   UNL     1      -1.818   9.952  17.035  0.00  0.00    +0.000 A 
ATOM     31  C   UNL     1      -2.638   9.950  15.908  0.00  0.00    +0.000 A 
ATOM     32  C   UNL     1      -3.796  10.724  15.888  0.00  0.00    +0.000 A 
ATOM     33  C   UNL     1      -4.131  11.508  16.993  0.00  0.00    +0.000 A 
ATOM     34  C   UNL     1      -3.313  11.515  18.122  0.00  0.00    +0.000 A 
ENDBRANCH  28  29
ENDBRANCH   8  28
TORSDOF 5
ENDMDL
MODEL 9
REMARK VINA RESULT:      -6.8      4.134      8.351
REMARK  Name = 
REMARK  5 active torsions:
REMARK  status: ('A' for Active; 'I' for Inactive)
REMARK    1  A    between atoms: C_2  and  C_4
REMARK    2  A    between atoms: N_7  and  C_8
REMARK    3  A    between atoms: C_10  and  C_11
REMARK    4  A    between atoms: N_21  and  C_22
REMARK    5  A    between atoms: C_22  and  C_23
REMARK                            x       y       z     vdW  Elec       q    Type
REMARK                         _______ _______ _______ _____ _____    ______ ____
ROOT
ATOM      1  C   UNL     1      -1.428  11.147  19.508  0.00  0.00    +0.000 A 
ATOM      2  N   UNL     1      -0.294  10.407  19.546  0.00  0.00    +0.000 NA
ATOM      3  C   UNL     1      -0.014   9.578  18.525  0.00  0.00    +0.000 A 
ATOM      4  N   UNL     1      -0.778   9.438  17.437  0.00  0.00    +0.000 NA
ATOM      5  C   UNL     1      -1.894  10.185  17.385  0.00  0.00    +0.000 A 
ATOM      6  C   UNL     1      -2.269  11.070  18.391  0.00  0.00    +0.000 A 
ATOM      7  C   UNL     1      -3.563  11.821  18.244  0.00  0.00    +0.000 C 
ATOM      8  N   UNL     1      -4.202  11.830  16.907  0.00  0.00    +0.000 NA
ATOM      9  C   UNL     1      -4.162  10.479  16.334  0.00  0.00    +0.000 C 
ATOM     10  C   UNL     1      -2.714  10.040  16.134  0.00  0.00    +0.000 C 
ENDROOT
BRANCH   1  14
ATOM     11  C   UNL     1      -2.602  12.662  23.282  0.00  0.00    +0.000 C 
ATOM     12  C   UNL     1      -1.480  11.635  23.083  0.00  0.00    +0.000 C 
ATOM     13  C   UNL     1      -0.726  11.813  21.760  0.00  0.00    +0.000 C 
ATOM     14  N   UNL     1      -1.668  11.908  20.639  0.00  0.00    +0.000 N 
ATOM     15  C   UNL     1      -2.686  12.942  20.767  0.00  0.00    +0.000 C 
ATOM     16  C   UNL     1      -3.490  12.730  22.043  0.00  0.00    +0.000 C 
BRANCH  11  18
ATOM     17  N   UNL     1      -2.963  15.069  23.468  0.00  0.00    +0.000 N 
ATOM     18  C   UNL     1      -2.083  14.046  23.658  0.00  0.00    +0.000 C 
ATOM     19  O   UNL     1      -0.956  14.275  24.081  0.00  0.00    +0.000 OA
ATOM     20  H   UNL     1      -2.586  16.002  23.595  0.00  0.00    +0.000 HD
ATOM     21  H   UNL     1      -3.764  14.968  22.862  0.00  0.00    +0.000 HD
ENDBRANCH  11  18
ENDBRANCH   1  14
BRANCH   3  22
ATOM     22  C   UNL     1       1.193   8.744  18.601  0.00  0.00    +0.000 A 
ATOM     23  C   UNL     1       2.130   8.686  17.554  0.00  0.00    +0.000 A 
ATOM     24  C   UNL     1       3.262   7.880  17.646  0.00  0.00    +0.000 A 
ATOM     25  C   UNL     1       3.441   7.136  18.799  0.00  0.00    +0.000 A 
ATOM     26  N   UNL     1       2.578   7.150  19.836  0.00  0.00    +0.000 NA
ATOM     27  C   UNL     1       1.483   7.949  19.708  0.00  0.00    +0.000 A 
ENDBRANCH   3  22
BRANCH   8  28
ATOM     28  C   UNL     1      -5.593  12.301  17.099  0.00  0.00    +0.000 C 
BRANCH  28  29
ATOM     29  C   UNL     1      -6.229  11.921  18.412  0.00  0.00    +0.000 A 
ATOM     30  C   UNL     1      -6.628  10.594  18.645  0.00  0.00    +0.000 A 
ATOM     31  C   UNL     1      -7.173  10.226  19.874  0.00  0.00    +0.000 A 
ATOM     32  C   UNL     1      -7.326  11.177  20.880  0.00  0.00    +0.000 A 
ATOM     33  C   UNL     1      -6.939  12.499  20.658  0.00  0.00    +0.000 A 
ATOM     34  C   UNL     1      -6.393  12.872  19.430  0.00  0.00    +0.000 A 
ENDBRANCH  28  29
ENDBRANCH   8  28
TORSDOF 5
ENDMDL
