MODEL 1
REMARK VINA RESULT:      -8.3      0.000      0.000
REMARK  Name = 
REMARK  12 active torsions:
REMARK  status: ('A' for Active; 'I' for Inactive)
REMARK    1  A    between atoms: C_1  and  C_2
REMARK    2  A    between atoms: C_2  and  C_3
REMARK    3  A    between atoms: C_2  and  C_4
REMARK    4  A    between atoms: C_4  and  N_5
REMARK    5  A    between atoms: C_6  and  C_8
REMARK    6  A    between atoms: C_8  and  C_9
REMARK    7  A    between atoms: C_8  and  C_10
REMARK    8  A    between atoms: C_13  and  O_14
REMARK    9  A    between atoms: O_14  and  C_15
REMARK   10  A    between atoms: C_22  and  O_23
REMARK   11  A    between atoms: O_23  and  C_24
REMARK   12  A    between atoms: C_24  and  C_25
REMARK                            x       y       z     vdW  Elec       q    Type
REMARK                         _______ _______ _______ _____ _____    ______ ____
ROOT
ATOM      1  C   UNL     1       1.476   7.144  20.249  0.00  0.00    +0.000 C 
ATOM      2  C   UNL     1       1.584   5.685  20.713  0.00  0.00    +0.000 C 
ATOM      3  C   UNL     1       2.964   5.197  20.262  0.00  0.00    +0.000 C 
ATOM      4  N   UNL     1       3.208   5.968  19.062  0.00  0.00    +0.000 N 
ATOM      5  C   UNL     1       4.217   5.684  18.179  0.00  0.00    +0.000 A 
ATOM      6  C   UNL     1       4.398   6.467  17.036  0.00  0.00    +0.000 A 
ATOM      7  C   UNL     1       5.419   6.201  16.126  0.00  0.00    +0.000 A 
ATOM      8  C   UNL     1       6.281   5.147  16.368  0.00  0.00    +0.000 A 
ATOM      9  C   UNL     1       6.018   4.373  17.489  0.00  0.00    +0.000 A 
ATOM     10  N   UNL     1       5.021   4.618  18.387  0.00  0.00    +0.000 NA
ATOM     11  C   UNL     1       2.449   7.213  19.055  0.00  0.00    +0.000 C 
ENDROOT
BRANCH   1  12
ATOM     12  O   UNL     1       1.796   8.038  21.330  0.00  0.00    +0.000 OA
BRANCH  12  16
ATOM     13  C   UNL     1      -0.700  11.319  22.162  0.00  0.00    +0.000 A 
ATOM     14  C   UNL     1      -0.486  10.306  23.104  0.00  0.00    +0.000 A 
ATOM     15  C   UNL     1       0.342   9.211  22.792  0.00  0.00    +0.000 A 
ATOM     16  C   UNL     1       0.927   9.099  21.530  0.00  0.00    +0.000 A 
ATOM     17  C   UNL     1       0.666  10.075  20.573  0.00  0.00    +0.000 A 
ATOM     18  C   UNL     1      -0.130  11.177  20.890  0.00  0.00    +0.000 A 
BRANCH  13  19
ATOM     19  C   UNL     1      -1.434  12.616  22.506  0.00  0.00    +0.000 C 
ATOM     20  C   UNL     1      -2.799  12.689  21.815  0.00  0.00    +0.000 C 
BRANCH  19  22
ATOM     21  N   UNL     1      -1.108  14.585  21.082  0.00  0.00    +0.000 N 
ATOM     22  C   UNL     1      -0.576  13.833  22.107  0.00  0.00    +0.000 C 
ATOM     23  O   UNL     1       0.477  14.133  22.672  0.00  0.00    +0.000 OA
ATOM     24  H   UNL     1      -1.956  14.268  20.629  0.00  0.00    +0.000 HD
BRANCH  21  25
ATOM     25  C   UNL     1      -0.501  15.816  20.629  0.00  0.00    +0.000 C 
BRANCH  25  27
ATOM     26  C   UNL     1      -0.169  14.270  18.663  0.00  0.00    +0.000 C 
ATOM     27  C   UNL     1       0.085  15.672  19.219  0.00  0.00    +0.000 C 
ATOM     28  C   UNL     1      -0.510  16.726  18.285  0.00  0.00    +0.000 C 
ENDBRANCH  25  27
ENDBRANCH  21  25
ENDBRANCH  19  22
ENDBRANCH  13  19
ENDBRANCH  12  16
ENDBRANCH   1  12
BRANCH   8  29
ATOM     29  O   UNL     1       7.357   4.820  15.594  0.00  0.00    +0.000 OA
BRANCH  29  30
ATOM     30  C   UNL     1       7.167   5.006  14.186  0.00  0.00    +0.000 C 
BRANCH  30  31
ATOM     31  C   UNL     1       6.568   3.764  13.620  0.00  0.00    +0.000 C 
ATOM     32  C   UNL     1       5.315   3.809  12.771  0.00  0.00    +0.000 C 
ATOM     33  C   UNL     1       6.635   3.523  12.160  0.00  0.00    +0.000 C 
ATOM     34  F   UNL     1       6.923   2.268  11.678  0.00  0.00    +0.000 F 
ATOM     35  F   UNL     1       7.216   4.434  11.311  0.00  0.00    +0.000 F 
ENDBRANCH  30  31
ENDBRANCH  29  30
ENDBRANCH   8  29
TORSDOF 9
ENDMDL
MODEL 2
REMARK VINA RESULT:      -8.2      1.873      2.717
REMARK  Name = 
REMARK  12 active torsions:
REMARK  status: ('A' for Active; 'I' for Inactive)
REMARK    1  A    between atoms: C_1  and  C_2
REMARK    2  A    between atoms: C_2  and  C_3
REMARK    3  A    between atoms: C_2  and  C_4
REMARK    4  A    between atoms: C_4  and  N_5
REMARK    5  A    between atoms: C_6  and  C_8
REMARK    6  A    between atoms: C_8  and  C_9
REMARK    7  A    between atoms: C_8  and  C_10
REMARK    8  A    between atoms: C_13  and  O_14
REMARK    9  A    between atoms: O_14  and  C_15
REMARK   10  A    between atoms: C_22  and  O_23
REMARK   11  A    between atoms: O_23  and  C_24
REMARK   12  A    between atoms: C_24  and  C_25
REMARK                            x       y       z     vdW  Elec       q    Type
REMARK                         _______ _______ _______ _____ _____    ______ ____
ROOT
ATOM      1  C   UNL     1       1.363   7.339  20.234  0.00  0.00    +0.000 C 
ATOM      2  C   UNL     1       1.504   5.913  20.783  0.00  0.00    +0.000 C 
ATOM      3  C   UNL     1       2.892   5.429  20.353  0.00  0.00    +0.000 C 
ATOM      4  N   UNL     1       3.113   6.131  19.107  0.00  0.00    +0.000 N 
ATOM      5  C   UNL     1       4.123   5.816  18.236  0.00  0.00    +0.000 A 
ATOM      6  C   UNL     1       4.282   6.534  17.047  0.00  0.00    +0.000 A 
ATOM      7  C   UNL     1       5.303   6.235  16.149  0.00  0.00    +0.000 A 
ATOM      8  C   UNL     1       6.189   5.216  16.447  0.00  0.00    +0.000 A 
ATOM      9  C   UNL     1       5.949   4.505  17.614  0.00  0.00    +0.000 A 
ATOM     10  N   UNL     1       4.952   4.782  18.503  0.00  0.00    +0.000 NA
ATOM     11  C   UNL     1       2.327   7.357  19.031  0.00  0.00    +0.000 C 
ENDROOT
BRANCH   1  12
ATOM     12  O   UNL     1       1.669   8.303  21.257  0.00  0.00    +0.000 OA
BRANCH  12  16
ATOM     13  C   UNL     1      -0.952  11.510  21.987  0.00  0.00    +0.000 A 
ATOM     14  C   UNL     1      -0.642  10.578  22.985  0.00  0.00    +0.000 A 
ATOM     15  C   UNL     1       0.226   9.504  22.707  0.00  0.00    +0.000 A 
ATOM     16  C   UNL     1       0.756   9.331  21.427  0.00  0.00    +0.000 A 
ATOM     17  C   UNL     1       0.401  10.224  20.421  0.00  0.00    +0.000 A 
ATOM     18  C   UNL     1      -0.436  11.305  20.701  0.00  0.00    +0.000 A 
BRANCH  13  19
ATOM     19  C   UNL     1      -1.736  12.791  22.278  0.00  0.00    +0.000 C 
ATOM     20  C   UNL     1      -1.110  13.582  23.432  0.00  0.00    +0.000 C 
BRANCH  19  22
ATOM     21  N   UNL     1      -4.100  12.829  21.631  0.00  0.00    +0.000 N 
ATOM     22  C   UNL     1      -3.203  12.452  22.606  0.00  0.00    +0.000 C 
ATOM     23  O   UNL     1      -3.549  11.865  23.633  0.00  0.00    +0.000 OA
ATOM     24  H   UNL     1      -3.763  13.344  20.826  0.00  0.00    +0.000 HD
BRANCH  21  25
ATOM     25  C   UNL     1      -5.508  12.516  21.709  0.00  0.00    +0.000 C 
BRANCH  25  27
ATOM     26  C   UNL     1      -6.648  13.636  23.661  0.00  0.00    +0.000 C 
ATOM     27  C   UNL     1      -6.333  13.725  22.167  0.00  0.00    +0.000 C 
ATOM     28  C   UNL     1      -5.587  15.024  21.861  0.00  0.00    +0.000 C 
ENDBRANCH  25  27
ENDBRANCH  21  25
ENDBRANCH  19  22
ENDBRANCH  13  19
ENDBRANCH  12  16
ENDBRANCH   1  12
BRANCH   8  29
ATOM     29  O   UNL     1       7.267   4.866  15.687  0.00  0.00    +0.000 OA
BRANCH  29  30
ATOM     30  C   UNL     1       7.109   5.079  14.279  0.00  0.00    +0.000 C 
BRANCH  30  31
ATOM     31  C   UNL     1       6.600   3.820  13.665  0.00  0.00    +0.000 C 
ATOM     32  C   UNL     1       5.360   3.813  12.794  0.00  0.00    +0.000 C 
ATOM     33  C   UNL     1       6.706   3.630  12.199  0.00  0.00    +0.000 C 
ATOM     34  F   UNL     1       7.081   2.411  11.685  0.00  0.00    +0.000 F 
ATOM     35  F   UNL     1       7.242   4.601  11.389  0.00  0.00    +0.000 F 
ENDBRANCH  30  31
ENDBRANCH  29  30
ENDBRANCH   8  29
TORSDOF 9
ENDMDL
MODEL 3
REMARK VINA RESULT:      -7.8      2.440      3.002
REMARK  Name = 
REMARK  12 active torsions:
REMARK  status: ('A' for Active; 'I' for Inactive)
REMARK    1  A    between atoms: C_1  and  C_2
REMARK    2  A    between atoms: C_2  and  C_3
REMARK    3  A    between atoms: C_2  and  C_4
REMARK    4  A    between atoms: C_4  and  N_5
REMARK    5  A    between atoms: C_6  and  C_8
REMARK    6  A    between atoms: C_8  and  C_9
REMARK    7  A    between atoms: C_8  and  C_10
REMARK    8  A    between atoms: C_13  and  O_14
REMARK    9  A    between atoms: O_14  and  C_15
REMARK   10  A    between atoms: C_22  and  O_23
REMARK   11  A    between atoms: O_23  and  C_24
REMARK   12  A    between atoms: C_24  and  C_25
REMARK                            x       y       z     vdW  Elec       q    Type
REMARK                         _______ _______ _______ _____ _____    ______ ____
ROOT
ATOM      1  C   UNL     1       1.477   5.973  20.382  0.00  0.00    +0.000 C 
ATOM      2  C   UNL     1       1.952   4.602  20.882  0.00  0.00    +0.000 C 
ATOM      3  C   UNL     1       3.383   4.433  20.362  0.00  0.00    +0.000 C 
ATOM      4  N   UNL     1       3.374   5.186  19.126  0.00  0.00    +0.000 N 
ATOM      5  C   UNL     1       4.373   5.108  18.192  0.00  0.00    +0.000 A 
ATOM      6  C   UNL     1       4.302   5.862  17.016  0.00  0.00    +0.000 A 
ATOM      7  C   UNL     1       5.308   5.803  16.054  0.00  0.00    +0.000 A 
ATOM      8  C   UNL     1       6.406   4.993  16.273  0.00  0.00    +0.000 A 
ATOM      9  C   UNL     1       6.394   4.229  17.431  0.00  0.00    +0.000 A 
ATOM     10  N   UNL     1       5.417   4.271  18.382  0.00  0.00    +0.000 NA
ATOM     11  C   UNL     1       2.341   6.216  19.129  0.00  0.00    +0.000 C 
ENDROOT
BRANCH   1  12
ATOM     12  O   UNL     1       1.633   6.963  21.414  0.00  0.00    +0.000 OA
BRANCH  12  16
ATOM     13  C   UNL     1      -0.028  10.680  20.357  0.00  0.00    +0.000 A 
ATOM     14  C   UNL     1       0.959  10.072  19.573  0.00  0.00    +0.000 A 
ATOM     15  C   UNL     1       1.510   8.835  19.960  0.00  0.00    +0.000 A 
ATOM     16  C   UNL     1       1.109   8.218  21.147  0.00  0.00    +0.000 A 
ATOM     17  C   UNL     1       0.171   8.852  21.956  0.00  0.00    +0.000 A 
ATOM     18  C   UNL     1      -0.398  10.063  21.560  0.00  0.00    +0.000 A 
BRANCH  13  19
ATOM     19  C   UNL     1      -0.790  11.923  19.895  0.00  0.00    +0.000 C 
ATOM     20  C   UNL     1      -1.214  12.795  21.082  0.00  0.00    +0.000 C 
BRANCH  19  22
ATOM     21  N   UNL     1      -1.760  10.612  18.066  0.00  0.00    +0.000 N 
ATOM     22  C   UNL     1      -2.027  11.513  19.074  0.00  0.00    +0.000 C 
ATOM     23  O   UNL     1      -3.164  11.923  19.311  0.00  0.00    +0.000 OA
ATOM     24  H   UNL     1      -0.801  10.340  17.891  0.00  0.00    +0.000 HD
BRANCH  21  25
ATOM     25  C   UNL     1      -2.802  10.034  17.247  0.00  0.00    +0.000 C 
BRANCH  25  27
ATOM     26  C   UNL     1      -3.035  10.182  14.739  0.00  0.00    +0.000 C 
ATOM     27  C   UNL     1      -3.157  10.941  16.062  0.00  0.00    +0.000 C 
ATOM     28  C   UNL     1      -4.572  11.497  16.222  0.00  0.00    +0.000 C 
ENDBRANCH  25  27
ENDBRANCH  21  25
ENDBRANCH  19  22
ENDBRANCH  13  19
ENDBRANCH  12  16
ENDBRANCH   1  12
BRANCH   8  29
ATOM     29  O   UNL     1       7.486   4.894  15.445  0.00  0.00    +0.000 OA
BRANCH  29  30
ATOM     30  C   UNL     1       7.200   5.086  14.054  0.00  0.00    +0.000 C 
BRANCH  30  31
ATOM     31  C   UNL     1       6.729   3.792  13.485  0.00  0.00    +0.000 C 
ATOM     32  C   UNL     1       5.451   3.705  12.676  0.00  0.00    +0.000 C 
ATOM     33  C   UNL     1       6.773   3.581  12.019  0.00  0.00    +0.000 C 
ATOM     34  F   UNL     1       7.186   2.375  11.505  0.00  0.00    +0.000 F 
ATOM     35  F   UNL     1       7.218   4.565  11.169  0.00  0.00    +0.000 F 
ENDBRANCH  30  31
ENDBRANCH  29  30
ENDBRANCH   8  29
TORSDOF 9
ENDMDL
MODEL 4
REMARK VINA RESULT:      -7.7      4.426      6.110
REMARK  Name = 
REMARK  12 active torsions:
REMARK  status: ('A' for Active; 'I' for Inactive)
REMARK    1  A    between atoms: C_1  and  C_2
REMARK    2  A    between atoms: C_2  and  C_3
REMARK    3  A    between atoms: C_2  and  C_4
REMARK    4  A    between atoms: C_4  and  N_5
REMARK    5  A    between atoms: C_6  and  C_8
REMARK    6  A    between atoms: C_8  and  C_9
REMARK    7  A    between atoms: C_8  and  C_10
REMARK    8  A    between atoms: C_13  and  O_14
REMARK    9  A    between atoms: O_14  and  C_15
REMARK   10  A    between atoms: C_22  and  O_23
REMARK   11  A    between atoms: O_23  and  C_24
REMARK   12  A    between atoms: C_24  and  C_25
REMARK                            x       y       z     vdW  Elec       q    Type
REMARK                         _______ _______ _______ _____ _____    ______ ____
ROOT
ATOM      1  C   UNL     1       3.187   2.620  18.015  0.00  0.00    +0.000 C 
ATOM      2  C   UNL     1       3.995   2.016  19.171  0.00  0.00    +0.000 C 
ATOM      3  C   UNL     1       4.864   3.151  19.720  0.00  0.00    +0.000 C 
ATOM      4  N   UNL     1       5.100   3.976  18.555  0.00  0.00    +0.000 N 
ATOM      5  C   UNL     1       6.038   4.975  18.519  0.00  0.00    +0.000 A 
ATOM      6  C   UNL     1       6.218   5.735  17.359  0.00  0.00    +0.000 A 
ATOM      7  C   UNL     1       7.161   6.758  17.300  0.00  0.00    +0.000 A 
ATOM      8  C   UNL     1       7.927   7.036  18.417  0.00  0.00    +0.000 A 
ATOM      9  C   UNL     1       7.741   6.213  19.519  0.00  0.00    +0.000 A 
ATOM     10  N   UNL     1       6.825   5.206  19.593  0.00  0.00    +0.000 NA
ATOM     11  C   UNL     1       4.056   3.805  17.551  0.00  0.00    +0.000 C 
ENDROOT
BRANCH   1  12
ATOM     12  O   UNL     1       1.870   2.986  18.463  0.00  0.00    +0.000 OA
BRANCH  12  16
ATOM     13  C   UNL     1       1.546   6.913  19.936  0.00  0.00    +0.000 A 
ATOM     14  C   UNL     1       1.325   5.802  20.759  0.00  0.00    +0.000 A 
ATOM     15  C   UNL     1       1.423   4.499  20.235  0.00  0.00    +0.000 A 
ATOM     16  C   UNL     1       1.704   4.296  18.882  0.00  0.00    +0.000 A 
ATOM     17  C   UNL     1       1.865   5.400  18.051  0.00  0.00    +0.000 A 
ATOM     18  C   UNL     1       1.797   6.692  18.575  0.00  0.00    +0.000 A 
BRANCH  13  19
ATOM     19  C   UNL     1       1.634   8.336  20.487  0.00  0.00    +0.000 C 
ATOM     20  C   UNL     1       0.872   8.475  21.809  0.00  0.00    +0.000 C 
BRANCH  19  22
ATOM     21  N   UNL     1      -0.153   9.855  19.773  0.00  0.00    +0.000 N 
ATOM     22  C   UNL     1       1.085   9.340  19.454  0.00  0.00    +0.000 C 
ATOM     23  O   UNL     1       1.704   9.681  18.446  0.00  0.00    +0.000 OA
ATOM     24  H   UNL     1      -0.634   9.507  20.594  0.00  0.00    +0.000 HD
BRANCH  21  25
ATOM     25  C   UNL     1      -0.794  10.879  18.980  0.00  0.00    +0.000 C 
BRANCH  25  27
ATOM     26  C   UNL     1      -3.162  11.475  18.346  0.00  0.00    +0.000 C 
ATOM     27  C   UNL     1      -2.099  10.375  18.352  0.00  0.00    +0.000 C 
ATOM     28  C   UNL     1      -1.847   9.875  16.929  0.00  0.00    +0.000 C 
ENDBRANCH  25  27
ENDBRANCH  21  25
ENDBRANCH  19  22
ENDBRANCH  13  19
ENDBRANCH  12  16
ENDBRANCH   1  12
BRANCH   8  29
ATOM     29  O   UNL     1       8.837   8.049  18.512  0.00  0.00    +0.000 OA
BRANCH  29  30
ATOM     30  C   UNL     1       8.330   9.350  18.190  0.00  0.00    +0.000 C 
BRANCH  30  31
ATOM     31  C   UNL     1       9.468  10.312  18.181  0.00  0.00    +0.000 C 
ATOM     32  C   UNL     1       9.247  11.795  18.395  0.00  0.00    +0.000 C 
ATOM     33  C   UNL     1       9.881  10.963  19.446  0.00  0.00    +0.000 C 
ATOM     34  F   UNL     1      11.215  11.113  19.744  0.00  0.00    +0.000 F 
ATOM     35  F   UNL     1       9.221  10.717  20.625  0.00  0.00    +0.000 F 
ENDBRANCH  30  31
ENDBRANCH  29  30
ENDBRANCH   8  29
TORSDOF 9
ENDMDL
MODEL 5
REMARK VINA RESULT:      -7.5      1.875      2.790
REMARK  Name = 
REMARK  12 active torsions:
REMARK  status: ('A' for Active; 'I' for Inactive)
REMARK    1  A    between atoms: C_1  and  C_2
REMARK    2  A    between atoms: C_2  and  C_3
REMARK    3  A    between atoms: C_2  and  C_4
REMARK    4  A    between atoms: C_4  and  N_5
REMARK    5  A    between atoms: C_6  and  C_8
REMARK    6  A    between atoms: C_8  and  C_9
REMARK    7  A    between atoms: C_8  and  C_10
REMARK    8  A    between atoms: C_13  and  O_14
REMARK    9  A    between atoms: O_14  and  C_15
REMARK   10  A    between atoms: C_22  and  O_23
REMARK   11  A    between atoms: O_23  and  C_24
REMARK   12  A    between atoms: C_24  and  C_25
REMARK                            x       y       z     vdW  Elec       q    Type
REMARK                         _______ _______ _______ _____ _____    ______ ____
ROOT
ATOM      1  C   UNL     1       1.387   7.299  20.209  0.00  0.00    +0.000 C 
ATOM      2  C   UNL     1       1.650   5.871  20.706  0.00  0.00    +0.000 C 
ATOM      3  C   UNL     1       3.050   5.499  20.208  0.00  0.00    +0.000 C 
ATOM      4  N   UNL     1       3.170   6.252  18.978  0.00  0.00    +0.000 N 
ATOM      5  C   UNL     1       4.164   6.036  18.058  0.00  0.00    +0.000 A 
ATOM      6  C   UNL     1       4.222   6.797  16.888  0.00  0.00    +0.000 A 
ATOM      7  C   UNL     1       5.225   6.599  15.941  0.00  0.00    +0.000 A 
ATOM      8  C   UNL     1       6.191   5.637  16.172  0.00  0.00    +0.000 A 
ATOM      9  C   UNL     1       6.049   4.877  17.324  0.00  0.00    +0.000 A 
ATOM     10  N   UNL     1       5.072   5.055  18.259  0.00  0.00    +0.000 NA
ATOM     11  C   UNL     1       2.298   7.421  18.971  0.00  0.00    +0.000 C 
ENDROOT
BRANCH   1  12
ATOM     12  O   UNL     1       1.667   8.251  21.250  0.00  0.00    +0.000 OA
BRANCH  12  16
ATOM     13  C   UNL     1      -1.129  11.256  22.169  0.00  0.00    +0.000 A 
ATOM     14  C   UNL     1      -0.707  10.331  23.131  0.00  0.00    +0.000 A 
ATOM     15  C   UNL     1       0.217   9.325  22.791  0.00  0.00    +0.000 A 
ATOM     16  C   UNL     1       0.695   9.211  21.484  0.00  0.00    +0.000 A 
ATOM     17  C   UNL     1       0.231  10.093  20.514  0.00  0.00    +0.000 A 
ATOM     18  C   UNL     1      -0.663  11.110  20.856  0.00  0.00    +0.000 A 
BRANCH  13  19
ATOM     19  C   UNL     1      -1.983  12.474  22.523  0.00  0.00    +0.000 C 
ATOM     20  C   UNL     1      -2.976  12.157  23.646  0.00  0.00    +0.000 C 
BRANCH  19  22
ATOM     21  N   UNL     1      -4.001  12.434  21.131  0.00  0.00    +0.000 N 
ATOM     22  C   UNL     1      -2.740  12.971  21.275  0.00  0.00    +0.000 C 
ATOM     23  O   UNL     1      -2.279  13.800  20.489  0.00  0.00    +0.000 OA
ATOM     24  H   UNL     1      -4.312  11.727  21.785  0.00  0.00    +0.000 HD
BRANCH  21  25
ATOM     25  C   UNL     1      -4.903  12.845  20.079  0.00  0.00    +0.000 C 
BRANCH  25  27
ATOM     26  C   UNL     1      -7.388  13.281  20.072  0.00  0.00    +0.000 C 
ATOM     27  C   UNL     1      -6.294  12.226  20.252  0.00  0.00    +0.000 C 
ATOM     28  C   UNL     1      -6.496  11.082  19.258  0.00  0.00    +0.000 C 
ENDBRANCH  25  27
ENDBRANCH  21  25
ENDBRANCH  19  22
ENDBRANCH  13  19
ENDBRANCH  12  16
ENDBRANCH   1  12
BRANCH   8  29
ATOM     29  O   UNL     1       7.259   5.387  15.360  0.00  0.00    +0.000 OA
BRANCH  29  30
ATOM     30  C   UNL     1       7.139   4.213  14.548  0.00  0.00    +0.000 C 
BRANCH  30  31
ATOM     31  C   UNL     1       6.501   4.594  13.256  0.00  0.00    +0.000 C 
ATOM     32  C   UNL     1       7.211   4.385  11.934  0.00  0.00    +0.000 C 
ATOM     33  C   UNL     1       6.060   3.534  12.320  0.00  0.00    +0.000 C 
ATOM     34  F   UNL     1       4.858   3.647  11.662  0.00  0.00    +0.000 F 
ATOM     35  F   UNL     1       6.250   2.204  12.606  0.00  0.00    +0.000 F 
ENDBRANCH  30  31
ENDBRANCH  29  30
ENDBRANCH   8  29
TORSDOF 9
ENDMDL
MODEL 6
REMARK VINA RESULT:      -7.5      1.809      2.391
REMARK  Name = 
REMARK  12 active torsions:
REMARK  status: ('A' for Active; 'I' for Inactive)
REMARK    1  A    between atoms: C_1  and  C_2
REMARK    2  A    between atoms: C_2  and  C_3
REMARK    3  A    between atoms: C_2  and  C_4
REMARK    4  A    between atoms: C_4  and  N_5
REMARK    5  A    between atoms: C_6  and  C_8
REMARK    6  A    between atoms: C_8  and  C_9
REMARK    7  A    between atoms: C_8  and  C_10
REMARK    8  A    between atoms: C_13  and  O_14
REMARK    9  A    between atoms: O_14  and  C_15
REMARK   10  A    between atoms: C_22  and  O_23
REMARK   11  A    between atoms: O_23  and  C_24
REMARK   12  A    between atoms: C_24  and  C_25
REMARK                            x       y       z     vdW  Elec       q    Type
REMARK                         _______ _______ _______ _____ _____    ______ ____
ROOT
ATOM      1  C   UNL     1       1.356   6.238  20.201  0.00  0.00    +0.000 C 
ATOM      2  C   UNL     1       1.665   4.778  20.558  0.00  0.00    +0.000 C 
ATOM      3  C   UNL     1       3.101   4.521  20.091  0.00  0.00    +0.000 C 
ATOM      4  N   UNL     1       3.239   5.405  18.953  0.00  0.00    +0.000 N 
ATOM      5  C   UNL     1       4.280   5.330  18.065  0.00  0.00    +0.000 A 
ATOM      6  C   UNL     1       4.353   6.214  16.985  0.00  0.00    +0.000 A 
ATOM      7  C   UNL     1       5.403   6.160  16.072  0.00  0.00    +0.000 A 
ATOM      8  C   UNL     1       6.403   5.222  16.246  0.00  0.00    +0.000 A 
ATOM      9  C   UNL     1       6.248   4.338  17.305  0.00  0.00    +0.000 A 
ATOM     10  N   UNL     1       5.224   4.374  18.205  0.00  0.00    +0.000 NA
ATOM     11  C   UNL     1       2.313   6.530  19.027  0.00  0.00    +0.000 C 
ENDROOT
BRANCH   1  12
ATOM     12  O   UNL     1       1.545   7.085  21.348  0.00  0.00    +0.000 OA
BRANCH  12  16
ATOM     13  C   UNL     1      -0.359  10.831  21.540  0.00  0.00    +0.000 A 
ATOM     14  C   UNL     1      -0.650   9.814  22.458  0.00  0.00    +0.000 A 
ATOM     15  C   UNL     1      -0.009   8.564  22.359  0.00  0.00    +0.000 A 
ATOM     16  C   UNL     1       0.893   8.307  21.325  0.00  0.00    +0.000 A 
ATOM     17  C   UNL     1       1.138   9.297  20.378  0.00  0.00    +0.000 A 
ATOM     18  C   UNL     1       0.526  10.547  20.491  0.00  0.00    +0.000 A 
BRANCH  13  19
ATOM     19  C   UNL     1      -0.881  12.258  21.706  0.00  0.00    +0.000 C 
ATOM     20  C   UNL     1      -1.620  12.435  23.036  0.00  0.00    +0.000 C 
BRANCH  19  22
ATOM     21  N   UNL     1      -1.638  11.839  19.412  0.00  0.00    +0.000 N 
ATOM     22  C   UNL     1      -1.812  12.622  20.532  0.00  0.00    +0.000 C 
ATOM     23  O   UNL     1      -2.662  13.512  20.594  0.00  0.00    +0.000 OA
ATOM     24  H   UNL     1      -0.897  11.149  19.404  0.00  0.00    +0.000 HD
BRANCH  21  25
ATOM     25  C   UNL     1      -2.479  11.962  18.243  0.00  0.00    +0.000 C 
BRANCH  25  27
ATOM     26  C   UNL     1      -4.872  11.491  17.598  0.00  0.00    +0.000 C 
ATOM     27  C   UNL     1      -3.608  10.924  18.246  0.00  0.00    +0.000 C 
ATOM     28  C   UNL     1      -3.166   9.653  17.519  0.00  0.00    +0.000 C 
ENDBRANCH  25  27
ENDBRANCH  21  25
ENDBRANCH  19  22
ENDBRANCH  13  19
ENDBRANCH  12  16
ENDBRANCH   1  12
BRANCH   8  29
ATOM     29  O   UNL     1       7.516   5.105  15.465  0.00  0.00    +0.000 OA
BRANCH  29  30
ATOM     30  C   UNL     1       7.277   5.203  14.055  0.00  0.00    +0.000 C 
BRANCH  30  31
ATOM     31  C   UNL     1       6.720   3.906  13.578  0.00  0.00    +0.000 C 
ATOM     32  C   UNL     1       5.408   3.841  12.823  0.00  0.00    +0.000 C 
ATOM     33  C   UNL     1       6.697   3.614  12.126  0.00  0.00    +0.000 C 
ATOM     34  F   UNL     1       7.029   2.361  11.667  0.00  0.00    +0.000 F 
ATOM     35  F   UNL     1       7.156   4.525  11.205  0.00  0.00    +0.000 F 
ENDBRANCH  30  31
ENDBRANCH  29  30
ENDBRANCH   8  29
TORSDOF 9
ENDMDL
MODEL 7
REMARK VINA RESULT:      -7.3      5.781     12.799
REMARK  Name = 
REMARK  12 active torsions:
REMARK  status: ('A' for Active; 'I' for Inactive)
REMARK    1  A    between atoms: C_1  and  C_2
REMARK    2  A    between atoms: C_2  and  C_3
REMARK    3  A    between atoms: C_2  and  C_4
REMARK    4  A    between atoms: C_4  and  N_5
REMARK    5  A    between atoms: C_6  and  C_8
REMARK    6  A    between atoms: C_8  and  C_9
REMARK    7  A    between atoms: C_8  and  C_10
REMARK    8  A    between atoms: C_13  and  O_14
REMARK    9  A    between atoms: O_14  and  C_15
REMARK   10  A    between atoms: C_22  and  O_23
REMARK   11  A    between atoms: O_23  and  C_24
REMARK   12  A    between atoms: C_24  and  C_25
REMARK                            x       y       z     vdW  Elec       q    Type
REMARK                         _______ _______ _______ _____ _____    ______ ____
ROOT
ATOM      1  C   UNL     1       0.493   9.822  20.249  0.00  0.00    +0.000 C 
ATOM      2  C   UNL     1       1.079  11.154  19.763  0.00  0.00    +0.000 C 
ATOM      3  C   UNL     1       0.813  12.168  20.879  0.00  0.00    +0.000 C 
ATOM      4  N   UNL     1      -0.413  11.684  21.476  0.00  0.00    +0.000 N 
ATOM      5  C   UNL     1      -1.163  12.420  22.355  0.00  0.00    +0.000 A 
ATOM      6  C   UNL     1      -2.340  11.894  22.895  0.00  0.00    +0.000 A 
ATOM      7  C   UNL     1      -3.116  12.621  23.795  0.00  0.00    +0.000 A 
ATOM      8  C   UNL     1      -2.705  13.886  24.172  0.00  0.00    +0.000 A 
ATOM      9  C   UNL     1      -1.559  14.376  23.562  0.00  0.00    +0.000 A 
ATOM     10  N   UNL     1      -0.790  13.679  22.678  0.00  0.00    +0.000 NA
ATOM     11  C   UNL     1      -0.597  10.254  21.250  0.00  0.00    +0.000 C 
ENDROOT
BRANCH   1  12
ATOM     12  O   UNL     1       1.527   8.997  20.814  0.00  0.00    +0.000 OA
BRANCH  12  16
ATOM     13  C   UNL     1       2.229   5.386  18.774  0.00  0.00    +0.000 A 
ATOM     14  C   UNL     1       1.862   5.403  20.126  0.00  0.00    +0.000 A 
ATOM     15  C   UNL     1       1.650   6.627  20.788  0.00  0.00    +0.000 A 
ATOM     16  C   UNL     1       1.839   7.839  20.120  0.00  0.00    +0.000 A 
ATOM     17  C   UNL     1       2.261   7.823  18.794  0.00  0.00    +0.000 A 
ATOM     18  C   UNL     1       2.444   6.610  18.128  0.00  0.00    +0.000 A 
BRANCH  13  19
ATOM     19  C   UNL     1       2.293   4.094  17.959  0.00  0.00    +0.000 C 
ATOM     20  C   UNL     1       1.476   2.975  18.615  0.00  0.00    +0.000 C 
BRANCH  19  22
ATOM     21  N   UNL     1       4.245   3.790  16.508  0.00  0.00    +0.000 N 
ATOM     22  C   UNL     1       3.758   3.646  17.789  0.00  0.00    +0.000 C 
ATOM     23  O   UNL     1       4.449   3.226  18.718  0.00  0.00    +0.000 OA
ATOM     24  H   UNL     1       3.619   4.102  15.776  0.00  0.00    +0.000 HD
BRANCH  21  25
ATOM     25  C   UNL     1       5.622   3.514  16.167  0.00  0.00    +0.000 C 
BRANCH  25  27
ATOM     26  C   UNL     1       7.535   4.589  17.412  0.00  0.00    +0.000 C 
ATOM     27  C   UNL     1       6.499   4.765  16.300  0.00  0.00    +0.000 C 
ATOM     28  C   UNL     1       7.196   5.071  14.974  0.00  0.00    +0.000 C 
ENDBRANCH  25  27
ENDBRANCH  21  25
ENDBRANCH  19  22
ENDBRANCH  13  19
ENDBRANCH  12  16
ENDBRANCH   1  12
BRANCH   8  29
ATOM     29  O   UNL     1      -3.336  14.675  25.090  0.00  0.00    +0.000 OA
BRANCH  29  30
ATOM     30  C   UNL     1      -2.947  16.054  25.070  0.00  0.00    +0.000 C 
BRANCH  30  31
ATOM     31  C   UNL     1      -4.179  16.893  25.063  0.00  0.00    +0.000 C 
ATOM     32  C   UNL     1      -4.319  18.079  24.132  0.00  0.00    +0.000 C 
ATOM     33  C   UNL     1      -5.092  16.836  23.898  0.00  0.00    +0.000 C 
ATOM     34  F   UNL     1      -6.454  16.816  24.086  0.00  0.00    +0.000 F 
ATOM     35  F   UNL     1      -4.815  16.044  22.810  0.00  0.00    +0.000 F 
ENDBRANCH  30  31
ENDBRANCH  29  30
ENDBRANCH   8  29
TORSDOF 9
ENDMDL
MODEL 8
REMARK VINA RESULT:      -7.3      5.522     12.062
REMARK  Name = 
REMARK  12 active torsions:
REMARK  status: ('A' for Active; 'I' for Inactive)
REMARK    1  A    between atoms: C_1  and  C_2
REMARK    2  A    between atoms: C_2  and  C_3
REMARK    3  A    between atoms: C_2  and  C_4
REMARK    4  A    between atoms: C_4  and  N_5
REMARK    5  A    between atoms: C_6  and  C_8
REMARK    6  A    between atoms: C_8  and  C_9
REMARK    7  A    between atoms: C_8  and  C_10
REMARK    8  A    between atoms: C_13  and  O_14
REMARK    9  A    between atoms: O_14  and  C_15
REMARK   10  A    between atoms: C_22  and  O_23
REMARK   11  A    between atoms: O_23  and  C_24
REMARK   12  A    between atoms: C_24  and  C_25
REMARK                            x       y       z     vdW  Elec       q    Type
REMARK                         _______ _______ _______ _____ _____    ______ ____
ROOT
ATOM      1  C   UNL     1       1.161   8.654  21.221  0.00  0.00    +0.000 C 
ATOM      2  C   UNL     1       1.241   9.189  22.657  0.00  0.00    +0.000 C 
ATOM      3  C   UNL     1      -0.084   9.911  22.916  0.00  0.00    +0.000 C 
ATOM      4  N   UNL     1      -0.455  10.397  21.604  0.00  0.00    +0.000 N 
ATOM      5  C   UNL     1      -1.449  11.317  21.396  0.00  0.00    +0.000 A 
ATOM      6  C   UNL     1      -1.756  11.746  20.102  0.00  0.00    +0.000 A 
ATOM      7  C   UNL     1      -2.766  12.676  19.866  0.00  0.00    +0.000 A 
ATOM      8  C   UNL     1      -3.489  13.175  20.934  0.00  0.00    +0.000 A 
ATOM      9  C   UNL     1      -3.102  12.753  22.198  0.00  0.00    +0.000 A 
ATOM     10  N   UNL     1      -2.114  11.846  22.447  0.00  0.00    +0.000 NA
ATOM     11  C   UNL     1       0.151   9.601  20.542  0.00  0.00    +0.000 C 
ENDROOT
BRANCH   1  12
ATOM     12  O   UNL     1       0.770   7.270  21.223  0.00  0.00    +0.000 OA
BRANCH  12  16
ATOM     13  C   UNL     1       2.588   4.621  18.509  0.00  0.00    +0.000 A 
ATOM     14  C   UNL     1       1.824   4.154  19.585  0.00  0.00    +0.000 A 
ATOM     15  C   UNL     1       1.241   5.064  20.488  0.00  0.00    +0.000 A 
ATOM     16  C   UNL     1       1.448   6.437  20.347  0.00  0.00    +0.000 A 
ATOM     17  C   UNL     1       2.256   6.897  19.312  0.00  0.00    +0.000 A 
ATOM     18  C   UNL     1       2.811   6.000  18.399  0.00  0.00    +0.000 A 
BRANCH  13  19
ATOM     19  C   UNL     1       3.089   3.696  17.398  0.00  0.00    +0.000 C 
ATOM     20  C   UNL     1       3.044   2.226  17.829  0.00  0.00    +0.000 C 
BRANCH  19  22
ATOM     21  N   UNL     1       5.368   4.310  18.059  0.00  0.00    +0.000 N 
ATOM     22  C   UNL     1       4.525   4.083  16.993  0.00  0.00    +0.000 C 
ATOM     23  O   UNL     1       4.902   4.153  15.823  0.00  0.00    +0.000 OA
ATOM     24  H   UNL     1       4.993   4.277  18.999  0.00  0.00    +0.000 HD
BRANCH  21  25
ATOM     25  C   UNL     1       6.776   4.591  17.887  0.00  0.00    +0.000 C 
BRANCH  25  27
ATOM     26  C   UNL     1       8.266   5.867  19.474  0.00  0.00    +0.000 C 
ATOM     27  C   UNL     1       7.147   5.974  18.436  0.00  0.00    +0.000 C 
ATOM     28  C   UNL     1       7.572   6.902  17.298  0.00  0.00    +0.000 C 
ENDBRANCH  25  27
ENDBRANCH  21  25
ENDBRANCH  19  22
ENDBRANCH  13  19
ENDBRANCH  12  16
ENDBRANCH   1  12
BRANCH   8  29
ATOM     29  O   UNL     1      -4.541  14.039  20.835  0.00  0.00    +0.000 OA
BRANCH  29  30
ATOM     30  C   UNL     1      -5.833  13.420  20.838  0.00  0.00    +0.000 C 
BRANCH  30  31
ATOM     31  C   UNL     1      -6.422  13.562  22.200  0.00  0.00    +0.000 C 
ATOM     32  C   UNL     1      -7.854  14.014  22.396  0.00  0.00    +0.000 C 
ATOM     33  C   UNL     1      -7.463  12.606  22.647  0.00  0.00    +0.000 C 
ATOM     34  F   UNL     1      -7.439  12.107  23.927  0.00  0.00    +0.000 F 
ATOM     35  F   UNL     1      -7.916  11.605  21.822  0.00  0.00    +0.000 F 
ENDBRANCH  30  31
ENDBRANCH  29  30
ENDBRANCH   8  29
TORSDOF 9
ENDMDL
MODEL 9
REMARK VINA RESULT:      -7.2      4.261      5.996
REMARK  Name = 
REMARK  12 active torsions:
REMARK  status: ('A' for Active; 'I' for Inactive)
REMARK    1  A    between atoms: C_1  and  C_2
REMARK    2  A    between atoms: C_2  and  C_3
REMARK    3  A    between atoms: C_2  and  C_4
REMARK    4  A    between atoms: C_4  and  N_5
REMARK    5  A    between atoms: C_6  and  C_8
REMARK    6  A    between atoms: C_8  and  C_9
REMARK    7  A    between atoms: C_8  and  C_10
REMARK    8  A    between atoms: C_13  and  O_14
REMARK    9  A    between atoms: O_14  and  C_15
REMARK   10  A    between atoms: C_22  and  O_23
REMARK   11  A    between atoms: O_23  and  C_24
REMARK   12  A    between atoms: C_24  and  C_25
REMARK                            x       y       z     vdW  Elec       q    Type
REMARK                         _______ _______ _______ _____ _____    ______ ____
ROOT
ATOM      1  C   UNL     1       3.123   2.667  17.860  0.00  0.00    +0.000 C 
ATOM      2  C   UNL     1       3.920   2.031  19.006  0.00  0.00    +0.000 C 
ATOM      3  C   UNL     1       4.800   3.145  19.580  0.00  0.00    +0.000 C 
ATOM      4  N   UNL     1       5.051   3.989  18.432  0.00  0.00    +0.000 N 
ATOM      5  C   UNL     1       6.001   4.976  18.417  0.00  0.00    +0.000 A 
ATOM      6  C   UNL     1       6.194   5.756  17.274  0.00  0.00    +0.000 A 
ATOM      7  C   UNL     1       7.151   6.768  17.237  0.00  0.00    +0.000 A 
ATOM      8  C   UNL     1       7.916   7.015  18.362  0.00  0.00    +0.000 A 
ATOM      9  C   UNL     1       7.717   6.174  19.447  0.00  0.00    +0.000 A 
ATOM     10  N   UNL     1       6.788   5.177  19.498  0.00  0.00    +0.000 NA
ATOM     11  C   UNL     1       4.008   3.850  17.421  0.00  0.00    +0.000 C 
ENDROOT
BRANCH   1  12
ATOM     12  O   UNL     1       1.809   3.041  18.310  0.00  0.00    +0.000 OA
BRANCH  12  16
ATOM     13  C   UNL     1       1.558   6.904  19.956  0.00  0.00    +0.000 A 
ATOM     14  C   UNL     1       1.328   5.762  20.732  0.00  0.00    +0.000 A 
ATOM     15  C   UNL     1       1.402   4.482  20.151  0.00  0.00    +0.000 A 
ATOM     16  C   UNL     1       1.666   4.334  18.788  0.00  0.00    +0.000 A 
ATOM     17  C   UNL     1       1.836   5.471  18.004  0.00  0.00    +0.000 A 
ATOM     18  C   UNL     1       1.792   6.740  18.584  0.00  0.00    +0.000 A 
BRANCH  13  19
ATOM     19  C   UNL     1       1.672   8.301  20.567  0.00  0.00    +0.000 C 
ATOM     20  C   UNL     1       1.042   8.356  21.963  0.00  0.00    +0.000 C 
BRANCH  19  22
ATOM     21  N   UNL     1      -0.263   9.712  20.042  0.00  0.00    +0.000 N 
ATOM     22  C   UNL     1       1.003   9.339  19.645  0.00  0.00    +0.000 C 
ATOM     23  O   UNL     1       1.557   9.823  18.657  0.00  0.00    +0.000 OA
ATOM     24  H   UNL     1      -0.684   9.251  20.840  0.00  0.00    +0.000 HD
BRANCH  21  25
ATOM     25  C   UNL     1      -1.016  10.742  19.364  0.00  0.00    +0.000 C 
BRANCH  25  27
ATOM     26  C   UNL     1      -0.440  12.723  20.815  0.00  0.00    +0.000 C 
ATOM     27  C   UNL     1      -1.556  11.788  20.346  0.00  0.00    +0.000 C 
ATOM     28  C   UNL     1      -2.683  12.594  19.701  0.00  0.00    +0.000 C 
ENDBRANCH  25  27
ENDBRANCH  21  25
ENDBRANCH  19  22
ENDBRANCH  13  19
ENDBRANCH  12  16
ENDBRANCH   1  12
BRANCH   8  29
ATOM     29  O   UNL     1       8.839   8.014  18.479  0.00  0.00    +0.000 OA
BRANCH  29  30
ATOM     30  C   UNL     1       8.332   9.335  18.249  0.00  0.00    +0.000 C 
BRANCH  30  31
ATOM     31  C   UNL     1       9.475  10.290  18.270  0.00  0.00    +0.000 C 
ATOM     32  C   UNL     1       9.251  11.787  18.340  0.00  0.00    +0.000 C 
ATOM     33  C   UNL     1       9.773  11.043  19.511  0.00  0.00    +0.000 C 
ATOM     34  F   UNL     1      11.074  11.213  19.922  0.00  0.00    +0.000 F 
ATOM     35  F   UNL     1       9.001  10.896  20.638  0.00  0.00    +0.000 F 
ENDBRANCH  30  31
ENDBRANCH  29  30
ENDBRANCH   8  29
TORSDOF 9
ENDMDL
