MODEL 1
REMARK VINA RESULT:      -8.5      0.000      0.000
REMARK  Name = 
REMARK  8 active torsions:
REMARK  status: ('A' for Active; 'I' for Inactive)
REMARK    1  A    between atoms: C_1  and  C_2
REMARK    2  A    between atoms: C_8  and  O_9
REMARK    3  A    between atoms: C_11  and  C_12
REMARK    4  A    between atoms: C_12  and  C_13
REMARK    5  A    between atoms: C_13  and  C_14
REMARK    6  A    between atoms: C_14  and  C_15
REMARK    7  A    between atoms: C_15  and  C_16
REMARK    8  A    between atoms: C_16  and  C_17
REMARK                            x       y       z     vdW  Elec       q    Type
REMARK                         _______ _______ _______ _____ _____    ______ ____
ROOT
ATOM      1  C   UNL     1       1.665  14.029  19.651  0.00  0.00    +0.000 C 
ATOM      2  C   UNL     1       0.391  13.427  19.052  0.00  0.00    +0.000 C 
ATOM      3  C   UNL     1      -0.801  13.516  20.004  0.00  0.00    +0.000 C 
ATOM      4  C   UNL     1      -0.586  12.670  21.257  0.00  0.00    +0.000 C 
ATOM      5  C   UNL     1       0.028  11.318  20.979  0.00  0.00    +0.000 A 
ATOM      6  C   UNL     1       0.554  10.965  19.788  0.00  0.00    +0.000 A 
ATOM      7  C   UNL     1       1.116   9.604  19.612  0.00  0.00    +0.000 A 
ATOM      8  C   UNL     1       1.662   9.056  18.436  0.00  0.00    +0.000 A 
ATOM      9  C   UNL     1       2.222   7.774  18.405  0.00  0.00    +0.000 A 
ATOM     10  C   UNL     1       2.227   6.968  19.544  0.00  0.00    +0.000 A 
ATOM     11  C   UNL     1       1.662   7.469  20.715  0.00  0.00    +0.000 A 
ATOM     12  C   UNL     1       1.129   8.764  20.731  0.00  0.00    +0.000 A 
ATOM     13  O   UNL     1       0.590   9.162  21.968  0.00  0.00    +0.000 OA
ATOM     14  C   UNL     1       0.024  10.407  22.151  0.00  0.00    +0.000 A 
ATOM     15  O   UNL     1      -0.446  10.742  23.233  0.00  0.00    +0.000 OA
ATOM     16  C   UNL     1       0.608  11.960  18.647  0.00  0.00    +0.000 C 
ENDROOT
BRANCH   8  17
ATOM     17  O   UNL     1       1.679   9.691  17.225  0.00  0.00    +0.000 OA
ATOM     18  H   UNL     1       0.780  10.012  17.057  0.00  0.00    +0.000 HD
ENDBRANCH   8  17
BRANCH  10  19
ATOM     19  C   UNL     1       2.773   5.566  19.480  0.00  0.00    +0.000 C 
BRANCH  19  20
ATOM     20  C   UNL     1       2.021   4.733  18.442  0.00  0.00    +0.000 C 
BRANCH  20  21
ATOM     21  C   UNL     1       2.522   3.290  18.414  0.00  0.00    +0.000 C 
BRANCH  21  22
ATOM     22  C   UNL     1       4.046   3.245  18.306  0.00  0.00    +0.000 C 
BRANCH  22  23
ATOM     23  C   UNL     1       4.534   3.957  17.043  0.00  0.00    +0.000 C 
BRANCH  23  24
ATOM     24  C   UNL     1       5.573   5.003  17.360  0.00  0.00    +0.000 A 
ATOM     25  C   UNL     1       6.738   4.653  18.061  0.00  0.00    +0.000 A 
ATOM     26  C   UNL     1       7.702   5.618  18.352  0.00  0.00    +0.000 A 
ATOM     27  C   UNL     1       7.498   6.932  17.951  0.00  0.00    +0.000 A 
ATOM     28  F   UNL     1       8.427   7.857  18.224  0.00  0.00    +0.000 F 
ATOM     29  C   UNL     1       6.344   7.303  17.271  0.00  0.00    +0.000 A 
ATOM     30  C   UNL     1       5.378   6.338  16.978  0.00  0.00    +0.000 A 
ENDBRANCH  23  24
ENDBRANCH  22  23
ENDBRANCH  21  22
ENDBRANCH  20  21
ENDBRANCH  19  20
ENDBRANCH  10  19
TORSDOF 7
ENDMDL
MODEL 2
REMARK VINA RESULT:      -8.5      1.333      1.889
REMARK  Name = 
REMARK  8 active torsions:
REMARK  status: ('A' for Active; 'I' for Inactive)
REMARK    1  A    between atoms: C_1  and  C_2
REMARK    2  A    between atoms: C_8  and  O_9
REMARK    3  A    between atoms: C_11  and  C_12
REMARK    4  A    between atoms: C_12  and  C_13
REMARK    5  A    between atoms: C_13  and  C_14
REMARK    6  A    between atoms: C_14  and  C_15
REMARK    7  A    between atoms: C_15  and  C_16
REMARK    8  A    between atoms: C_16  and  C_17
REMARK                            x       y       z     vdW  Elec       q    Type
REMARK                         _______ _______ _______ _____ _____    ______ ____
ROOT
ATOM      1  C   UNL     1      -1.187  14.233  20.938  0.00  0.00    +0.000 C 
ATOM      2  C   UNL     1      -2.255  13.164  20.688  0.00  0.00    +0.000 C 
ATOM      3  C   UNL     1      -2.808  12.575  21.984  0.00  0.00    +0.000 C 
ATOM      4  C   UNL     1      -1.737  11.806  22.756  0.00  0.00    +0.000 C 
ATOM      5  C   UNL     1      -0.856  10.946  21.880  0.00  0.00    +0.000 A 
ATOM      6  C   UNL     1      -0.846  11.013  20.532  0.00  0.00    +0.000 A 
ATOM      7  C   UNL     1       0.043  10.111  19.763  0.00  0.00    +0.000 A 
ATOM      8  C   UNL     1       0.150  10.015  18.362  0.00  0.00    +0.000 A 
ATOM      9  C   UNL     1       1.075   9.166  17.745  0.00  0.00    +0.000 A 
ATOM     10  C   UNL     1       1.909   8.344  18.504  0.00  0.00    +0.000 A 
ATOM     11  C   UNL     1       1.802   8.390  19.892  0.00  0.00    +0.000 A 
ATOM     12  C   UNL     1       0.888   9.265  20.491  0.00  0.00    +0.000 A 
ATOM     13  O   UNL     1       0.872   9.226  21.897  0.00  0.00    +0.000 OA
ATOM     14  C   UNL     1       0.026  10.026  22.639  0.00  0.00    +0.000 A 
ATOM     15  O   UNL     1       0.018   9.981  23.865  0.00  0.00    +0.000 OA
ATOM     16  C   UNL     1      -1.706  12.028  19.808  0.00  0.00    +0.000 C 
ENDROOT
BRANCH   8  17
ATOM     17  O   UNL     1      -0.635  10.705  17.480  0.00  0.00    +0.000 OA
ATOM     18  H   UNL     1      -0.618  11.636  17.749  0.00  0.00    +0.000 HD
ENDBRANCH   8  17
BRANCH  10  19
ATOM     19  C   UNL     1       2.852   7.386  17.826  0.00  0.00    +0.000 C 
BRANCH  19  20
ATOM     20  C   UNL     1       2.421   5.938  18.058  0.00  0.00    +0.000 C 
BRANCH  20  21
ATOM     21  C   UNL     1       3.578   5.086  18.579  0.00  0.00    +0.000 C 
BRANCH  21  22
ATOM     22  C   UNL     1       3.863   3.919  17.633  0.00  0.00    +0.000 C 
BRANCH  22  23
ATOM     23  C   UNL     1       4.967   4.270  16.635  0.00  0.00    +0.000 C 
BRANCH  23  24
ATOM     24  C   UNL     1       5.988   5.202  17.239  0.00  0.00    +0.000 A 
ATOM     25  C   UNL     1       6.104   6.521  16.772  0.00  0.00    +0.000 A 
ATOM     26  C   UNL     1       7.045   7.385  17.331  0.00  0.00    +0.000 A 
ATOM     27  C   UNL     1       7.873   6.931  18.349  0.00  0.00    +0.000 A 
ATOM     28  F   UNL     1       8.771   7.764  18.891  0.00  0.00    +0.000 F 
ATOM     29  C   UNL     1       7.785   5.624  18.815  0.00  0.00    +0.000 A 
ATOM     30  C   UNL     1       6.844   4.757  18.257  0.00  0.00    +0.000 A 
ENDBRANCH  23  24
ENDBRANCH  22  23
ENDBRANCH  21  22
ENDBRANCH  20  21
ENDBRANCH  19  20
ENDBRANCH  10  19
TORSDOF 7
ENDMDL
MODEL 3
REMARK VINA RESULT:      -8.5      1.872      2.503
REMARK  Name = 
REMARK  8 active torsions:
REMARK  status: ('A' for Active; 'I' for Inactive)
REMARK    1  A    between atoms: C_1  and  C_2
REMARK    2  A    between atoms: C_8  and  O_9
REMARK    3  A    between atoms: C_11  and  C_12
REMARK    4  A    between atoms: C_12  and  C_13
REMARK    5  A    between atoms: C_13  and  C_14
REMARK    6  A    between atoms: C_14  and  C_15
REMARK    7  A    between atoms: C_15  and  C_16
REMARK    8  A    between atoms: C_16  and  C_17
REMARK                            x       y       z     vdW  Elec       q    Type
REMARK                         _______ _______ _______ _____ _____    ______ ____
ROOT
ATOM      1  C   UNL     1      -0.795  14.136  21.622  0.00  0.00    +0.000 C 
ATOM      2  C   UNL     1      -1.917  13.179  21.208  0.00  0.00    +0.000 C 
ATOM      3  C   UNL     1      -2.557  12.475  22.403  0.00  0.00    +0.000 C 
ATOM      4  C   UNL     1      -1.567  11.548  23.106  0.00  0.00    +0.000 C 
ATOM      5  C   UNL     1      -0.708  10.744  22.158  0.00  0.00    +0.000 A 
ATOM      6  C   UNL     1      -0.641  10.974  20.830  0.00  0.00    +0.000 A 
ATOM      7  C   UNL     1       0.220  10.115  19.982  0.00  0.00    +0.000 A 
ATOM      8  C   UNL     1       0.376  10.185  18.585  0.00  0.00    +0.000 A 
ATOM      9  C   UNL     1       1.268   9.357  17.896  0.00  0.00    +0.000 A 
ATOM     10  C   UNL     1       2.020   8.394  18.572  0.00  0.00    +0.000 A 
ATOM     11  C   UNL     1       1.861   8.278  19.951  0.00  0.00    +0.000 A 
ATOM     12  C   UNL     1       0.981   9.133  20.626  0.00  0.00    +0.000 A 
ATOM     13  O   UNL     1       0.907   8.924  22.015  0.00  0.00    +0.000 OA
ATOM     14  C   UNL     1       0.084   9.681  22.824  0.00  0.00    +0.000 A 
ATOM     15  O   UNL     1       0.026   9.488  24.034  0.00  0.00    +0.000 OA
ATOM     16  C   UNL     1      -1.407  12.126  20.211  0.00  0.00    +0.000 C 
ENDROOT
BRANCH   8  17
ATOM     17  O   UNL     1      -0.329  11.028  17.771  0.00  0.00    +0.000 OA
ATOM     18  H   UNL     1      -0.645  10.503  17.019  0.00  0.00    +0.000 HD
ENDBRANCH   8  17
BRANCH  10  19
ATOM     19  C   UNL     1       2.927   7.466  17.810  0.00  0.00    +0.000 C 
BRANCH  19  20
ATOM     20  C   UNL     1       3.245   6.216  18.632  0.00  0.00    +0.000 C 
BRANCH  20  21
ATOM     21  C   UNL     1       2.267   5.082  18.327  0.00  0.00    +0.000 C 
BRANCH  21  22
ATOM     22  C   UNL     1       2.935   4.005  17.471  0.00  0.00    +0.000 C 
BRANCH  22  23
ATOM     23  C   UNL     1       4.411   3.842  17.836  0.00  0.00    +0.000 C 
BRANCH  23  24
ATOM     24  C   UNL     1       5.311   4.166  16.670  0.00  0.00    +0.000 A 
ATOM     25  C   UNL     1       4.856   3.987  15.354  0.00  0.00    +0.000 A 
ATOM     26  C   UNL     1       5.685   4.290  14.275  0.00  0.00    +0.000 A 
ATOM     27  C   UNL     1       6.970   4.761  14.509  0.00  0.00    +0.000 A 
ATOM     28  F   UNL     1       7.764   5.059  13.472  0.00  0.00    +0.000 F 
ATOM     29  C   UNL     1       7.447   4.929  15.805  0.00  0.00    +0.000 A 
ATOM     30  C   UNL     1       6.618   4.628  16.887  0.00  0.00    +0.000 A 
ENDBRANCH  23  24
ENDBRANCH  22  23
ENDBRANCH  21  22
ENDBRANCH  20  21
ENDBRANCH  19  20
ENDBRANCH  10  19
TORSDOF 7
ENDMDL
MODEL 4
REMARK VINA RESULT:      -8.2      2.356      3.615
REMARK  Name = 
REMARK  8 active torsions:
REMARK  status: ('A' for Active; 'I' for Inactive)
REMARK    1  A    between atoms: C_1  and  C_2
REMARK    2  A    between atoms: C_8  and  O_9
REMARK    3  A    between atoms: C_11  and  C_12
REMARK    4  A    between atoms: C_12  and  C_13
REMARK    5  A    between atoms: C_13  and  C_14
REMARK    6  A    between atoms: C_14  and  C_15
REMARK    7  A    between atoms: C_15  and  C_16
REMARK    8  A    between atoms: C_16  and  C_17
REMARK                            x       y       z     vdW  Elec       q    Type
REMARK                         _______ _______ _______ _____ _____    ______ ____
ROOT
ATOM      1  C   UNL     1      -0.251  13.884  19.519  0.00  0.00    +0.000 C 
ATOM      2  C   UNL     1      -1.329  12.883  19.092  0.00  0.00    +0.000 C 
ATOM      3  C   UNL     1      -2.379  12.655  20.177  0.00  0.00    +0.000 C 
ATOM      4  C   UNL     1      -1.777  11.992  21.414  0.00  0.00    +0.000 C 
ATOM      5  C   UNL     1      -0.803  10.881  21.095  0.00  0.00    +0.000 A 
ATOM      6  C   UNL     1      -0.323  10.639  19.856  0.00  0.00    +0.000 A 
ATOM      7  C   UNL     1       0.615   9.511  19.645  0.00  0.00    +0.000 A 
ATOM      8  C   UNL     1       1.176   9.091  18.424  0.00  0.00    +0.000 A 
ATOM      9  C   UNL     1       2.103   8.046  18.354  0.00  0.00    +0.000 A 
ATOM     10  C   UNL     1       2.483   7.348  19.501  0.00  0.00    +0.000 A 
ATOM     11  C   UNL     1       1.918   7.718  20.720  0.00  0.00    +0.000 A 
ATOM     12  C   UNL     1       1.011   8.783  20.772  0.00  0.00    +0.000 A 
ATOM     13  O   UNL     1       0.510   9.066  22.056  0.00  0.00    +0.000 OA
ATOM     14  C   UNL     1      -0.396  10.084  22.278  0.00  0.00    +0.000 A 
ATOM     15  O   UNL     1      -0.828  10.321  23.401  0.00  0.00    +0.000 OA
ATOM     16  C   UNL     1      -0.707  11.534  18.696  0.00  0.00    +0.000 C 
ENDROOT
BRANCH   8  17
ATOM     17  O   UNL     1       0.862   9.628  17.205  0.00  0.00    +0.000 OA
ATOM     18  H   UNL     1       1.626  10.152  16.918  0.00  0.00    +0.000 HD
ENDBRANCH   8  17
BRANCH  10  19
ATOM     19  C   UNL     1       3.430   6.182  19.403  0.00  0.00    +0.000 C 
BRANCH  19  20
ATOM     20  C   UNL     1       4.245   6.247  18.111  0.00  0.00    +0.000 C 
BRANCH  20  21
ATOM     21  C   UNL     1       3.871   5.113  17.158  0.00  0.00    +0.000 C 
BRANCH  21  22
ATOM     22  C   UNL     1       4.773   3.898  17.378  0.00  0.00    +0.000 C 
BRANCH  22  23
ATOM     23  C   UNL     1       3.954   2.613  17.498  0.00  0.00    +0.000 C 
BRANCH  23  24
ATOM     24  C   UNL     1       3.115   2.601  18.752  0.00  0.00    +0.000 A 
ATOM     25  C   UNL     1       1.721   2.738  18.669  0.00  0.00    +0.000 A 
ATOM     26  C   UNL     1       0.942   2.724  19.826  0.00  0.00    +0.000 A 
ATOM     27  C   UNL     1       1.557   2.583  21.063  0.00  0.00    +0.000 A 
ATOM     28  F   UNL     1       0.808   2.562  22.174  0.00  0.00    +0.000 F 
ATOM     29  C   UNL     1       2.938   2.463  21.168  0.00  0.00    +0.000 A 
ATOM     30  C   UNL     1       3.719   2.476  20.011  0.00  0.00    +0.000 A 
ENDBRANCH  23  24
ENDBRANCH  22  23
ENDBRANCH  21  22
ENDBRANCH  20  21
ENDBRANCH  19  20
ENDBRANCH  10  19
TORSDOF 7
ENDMDL
MODEL 5
REMARK VINA RESULT:      -8.1      2.323      3.485
REMARK  Name = 
REMARK  8 active torsions:
REMARK  status: ('A' for Active; 'I' for Inactive)
REMARK    1  A    between atoms: C_1  and  C_2
REMARK    2  A    between atoms: C_8  and  O_9
REMARK    3  A    between atoms: C_11  and  C_12
REMARK    4  A    between atoms: C_12  and  C_13
REMARK    5  A    between atoms: C_13  and  C_14
REMARK    6  A    between atoms: C_14  and  C_15
REMARK    7  A    between atoms: C_15  and  C_16
REMARK    8  A    between atoms: C_16  and  C_17
REMARK                            x       y       z     vdW  Elec       q    Type
REMARK                         _______ _______ _______ _____ _____    ______ ____
ROOT
ATOM      1  C   UNL     1       0.625  13.786  20.414  0.00  0.00    +0.000 C 
ATOM      2  C   UNL     1      -0.456  13.048  19.620  0.00  0.00    +0.000 C 
ATOM      3  C   UNL     1      -1.669  12.690  20.477  0.00  0.00    +0.000 C 
ATOM      4  C   UNL     1      -1.312  11.686  21.571  0.00  0.00    +0.000 C 
ATOM      5  C   UNL     1      -0.395  10.579  21.104  0.00  0.00    +0.000 A 
ATOM      6  C   UNL     1       0.240  10.585  19.913  0.00  0.00    +0.000 A 
ATOM      7  C   UNL     1       1.103   9.439  19.540  0.00  0.00    +0.000 A 
ATOM      8  C   UNL     1       1.802   9.260  18.331  0.00  0.00    +0.000 A 
ATOM      9  C   UNL     1       2.641   8.162  18.114  0.00  0.00    +0.000 A 
ATOM     10  C   UNL     1       2.789   7.172  19.087  0.00  0.00    +0.000 A 
ATOM     11  C   UNL     1       2.083   7.303  20.280  0.00  0.00    +0.000 A 
ATOM     12  C   UNL     1       1.269   8.423  20.488  0.00  0.00    +0.000 A 
ATOM     13  O   UNL     1       0.609   8.448  21.730  0.00  0.00    +0.000 OA
ATOM     14  C   UNL     1      -0.233   9.482  22.088  0.00  0.00    +0.000 A 
ATOM     15  O   UNL     1      -0.805   9.492  23.173  0.00  0.00    +0.000 OA
ATOM     16  C   UNL     1       0.105  11.769  18.977  0.00  0.00    +0.000 C 
ENDROOT
BRANCH   8  17
ATOM     17  O   UNL     1       1.716  10.104  17.258  0.00  0.00    +0.000 OA
ATOM     18  H   UNL     1       2.282   9.740  16.560  0.00  0.00    +0.000 HD
ENDBRANCH   8  17
BRANCH  10  19
ATOM     19  C   UNL     1       3.643   5.962  18.815  0.00  0.00    +0.000 C 
BRANCH  19  20
ATOM     20  C   UNL     1       4.092   5.926  17.354  0.00  0.00    +0.000 C 
BRANCH  20  21
ATOM     21  C   UNL     1       4.339   4.495  16.879  0.00  0.00    +0.000 C 
BRANCH  21  22
ATOM     22  C   UNL     1       3.025   3.819  16.488  0.00  0.00    +0.000 C 
BRANCH  22  23
ATOM     23  C   UNL     1       2.865   2.469  17.188  0.00  0.00    +0.000 C 
BRANCH  23  24
ATOM     24  C   UNL     1       2.470   2.636  18.634  0.00  0.00    +0.000 A 
ATOM     25  C   UNL     1       3.375   2.308  19.656  0.00  0.00    +0.000 A 
ATOM     26  C   UNL     1       3.013   2.464  20.994  0.00  0.00    +0.000 A 
ATOM     27  C   UNL     1       1.747   2.939  21.310  0.00  0.00    +0.000 A 
ATOM     28  F   UNL     1       1.403   3.096  22.595  0.00  0.00    +0.000 F 
ATOM     29  C   UNL     1       0.830   3.253  20.314  0.00  0.00    +0.000 A 
ATOM     30  C   UNL     1       1.190   3.098  18.974  0.00  0.00    +0.000 A 
ENDBRANCH  23  24
ENDBRANCH  22  23
ENDBRANCH  21  22
ENDBRANCH  20  21
ENDBRANCH  19  20
ENDBRANCH  10  19
TORSDOF 7
ENDMDL
MODEL 6
REMARK VINA RESULT:      -8.1      0.901      1.300
REMARK  Name = 
REMARK  8 active torsions:
REMARK  status: ('A' for Active; 'I' for Inactive)
REMARK    1  A    between atoms: C_1  and  C_2
REMARK    2  A    between atoms: C_8  and  O_9
REMARK    3  A    between atoms: C_11  and  C_12
REMARK    4  A    between atoms: C_12  and  C_13
REMARK    5  A    between atoms: C_13  and  C_14
REMARK    6  A    between atoms: C_14  and  C_15
REMARK    7  A    between atoms: C_15  and  C_16
REMARK    8  A    between atoms: C_16  and  C_17
REMARK                            x       y       z     vdW  Elec       q    Type
REMARK                         _______ _______ _______ _____ _____    ______ ____
ROOT
ATOM      1  C   UNL     1       2.529  13.538  19.536  0.00  0.00    +0.000 C 
ATOM      2  C   UNL     1       1.261  13.052  18.828  0.00  0.00    +0.000 C 
ATOM      3  C   UNL     1      -0.009  13.380  19.611  0.00  0.00    +0.000 C 
ATOM      4  C   UNL     1      -0.060  12.632  20.942  0.00  0.00    +0.000 C 
ATOM      5  C   UNL     1       0.389  11.192  20.848  0.00  0.00    +0.000 A 
ATOM      6  C   UNL     1       0.996  10.666  19.762  0.00  0.00    +0.000 A 
ATOM      7  C   UNL     1       1.380   9.235  19.763  0.00  0.00    +0.000 A 
ATOM      8  C   UNL     1       1.978   8.516  18.710  0.00  0.00    +0.000 A 
ATOM      9  C   UNL     1       2.355   7.176  18.848  0.00  0.00    +0.000 A 
ATOM     10  C   UNL     1       2.117   6.483  20.036  0.00  0.00    +0.000 A 
ATOM     11  C   UNL     1       1.495   7.158  21.084  0.00  0.00    +0.000 A 
ATOM     12  C   UNL     1       1.148   8.506  20.935  0.00  0.00    +0.000 A 
ATOM     13  O   UNL     1       0.530   9.082  22.060  0.00  0.00    +0.000 OA
ATOM     14  C   UNL     1       0.124  10.401  22.074  0.00  0.00    +0.000 A 
ATOM     15  O   UNL     1      -0.417  10.892  23.060  0.00  0.00    +0.000 OA
ATOM     16  C   UNL     1       1.319  11.538  18.566  0.00  0.00    +0.000 C 
ENDROOT
BRANCH   8  17
ATOM     17  O   UNL     1       2.222   9.029  17.466  0.00  0.00    +0.000 OA
ATOM     18  H   UNL     1       2.770   9.820  17.585  0.00  0.00    +0.000 HD
ENDBRANCH   8  17
BRANCH  10  19
ATOM     19  C   UNL     1       2.467   5.023  20.147  0.00  0.00    +0.000 C 
BRANCH  19  20
ATOM     20  C   UNL     1       1.548   4.171  19.272  0.00  0.00    +0.000 C 
BRANCH  20  21
ATOM     21  C   UNL     1       1.793   4.429  17.786  0.00  0.00    +0.000 C 
BRANCH  21  22
ATOM     22  C   UNL     1       2.483   3.232  17.133  0.00  0.00    +0.000 C 
BRANCH  22  23
ATOM     23  C   UNL     1       3.819   2.923  17.810  0.00  0.00    +0.000 C 
BRANCH  23  24
ATOM     24  C   UNL     1       4.830   4.016  17.571  0.00  0.00    +0.000 A 
ATOM     25  C   UNL     1       5.060   4.494  16.271  0.00  0.00    +0.000 A 
ATOM     26  C   UNL     1       5.992   5.507  16.047  0.00  0.00    +0.000 A 
ATOM     27  C   UNL     1       6.700   6.035  17.118  0.00  0.00    +0.000 A 
ATOM     28  F   UNL     1       7.589   7.013  16.904  0.00  0.00    +0.000 F 
ATOM     29  C   UNL     1       6.500   5.565  18.411  0.00  0.00    +0.000 A 
ATOM     30  C   UNL     1       5.566   4.551  18.638  0.00  0.00    +0.000 A 
ENDBRANCH  23  24
ENDBRANCH  22  23
ENDBRANCH  21  22
ENDBRANCH  20  21
ENDBRANCH  19  20
ENDBRANCH  10  19
TORSDOF 7
ENDMDL
MODEL 7
REMARK VINA RESULT:      -7.9      3.923      5.791
REMARK  Name = 
REMARK  8 active torsions:
REMARK  status: ('A' for Active; 'I' for Inactive)
REMARK    1  A    between atoms: C_1  and  C_2
REMARK    2  A    between atoms: C_8  and  O_9
REMARK    3  A    between atoms: C_11  and  C_12
REMARK    4  A    between atoms: C_12  and  C_13
REMARK    5  A    between atoms: C_13  and  C_14
REMARK    6  A    between atoms: C_14  and  C_15
REMARK    7  A    between atoms: C_15  and  C_16
REMARK    8  A    between atoms: C_16  and  C_17
REMARK                            x       y       z     vdW  Elec       q    Type
REMARK                         _______ _______ _______ _____ _____    ______ ____
ROOT
ATOM      1  C   UNL     1      -6.752  11.142  19.500  0.00  0.00    +0.000 C 
ATOM      2  C   UNL     1      -6.057  12.466  19.169  0.00  0.00    +0.000 C 
ATOM      3  C   UNL     1      -6.294  12.906  17.725  0.00  0.00    +0.000 C 
ATOM      4  C   UNL     1      -5.661  11.936  16.729  0.00  0.00    +0.000 C 
ATOM      5  C   UNL     1      -4.284  11.463  17.132  0.00  0.00    +0.000 A 
ATOM      6  C   UNL     1      -3.745  11.678  18.351  0.00  0.00    +0.000 A 
ATOM      7  C   UNL     1      -2.376  11.188  18.640  0.00  0.00    +0.000 A 
ATOM      8  C   UNL     1      -1.648  11.359  19.833  0.00  0.00    +0.000 A 
ATOM      9  C   UNL     1      -0.380  10.796  20.015  0.00  0.00    +0.000 A 
ATOM     10  C   UNL     1       0.232  10.067  18.995  0.00  0.00    +0.000 A 
ATOM     11  C   UNL     1      -0.449   9.910  17.790  0.00  0.00    +0.000 A 
ATOM     12  C   UNL     1      -1.727  10.460  17.636  0.00  0.00    +0.000 A 
ATOM     13  O   UNL     1      -2.318  10.235  16.379  0.00  0.00    +0.000 OA
ATOM     14  C   UNL     1      -3.574  10.713  16.067  0.00  0.00    +0.000 A 
ATOM     15  O   UNL     1      -4.078  10.513  14.967  0.00  0.00    +0.000 OA
ATOM     16  C   UNL     1      -4.545  12.378  19.431  0.00  0.00    +0.000 C 
ENDROOT
BRANCH   8  17
ATOM     17  O   UNL     1      -2.080  12.095  20.902  0.00  0.00    +0.000 OA
ATOM     18  H   UNL     1      -1.405  12.769  21.076  0.00  0.00    +0.000 HD
ENDBRANCH   8  17
BRANCH  10  19
ATOM     19  C   UNL     1       1.624   9.523  19.180  0.00  0.00    +0.000 C 
BRANCH  19  20
ATOM     20  C   UNL     1       2.125   8.855  17.899  0.00  0.00    +0.000 C 
BRANCH  20  21
ATOM     21  C   UNL     1       2.091   7.331  18.013  0.00  0.00    +0.000 C 
BRANCH  21  22
ATOM     22  C   UNL     1       3.498   6.746  17.889  0.00  0.00    +0.000 C 
BRANCH  22  23
ATOM     23  C   UNL     1       3.453   5.233  17.676  0.00  0.00    +0.000 C 
BRANCH  23  24
ATOM     24  C   UNL     1       2.740   4.532  18.807  0.00  0.00    +0.000 A 
ATOM     25  C   UNL     1       1.624   3.724  18.544  0.00  0.00    +0.000 A 
ATOM     26  C   UNL     1       0.966   3.072  19.588  0.00  0.00    +0.000 A 
ATOM     27  C   UNL     1       1.418   3.235  20.890  0.00  0.00    +0.000 A 
ATOM     28  F   UNL     1       0.790   2.603  21.891  0.00  0.00    +0.000 F 
ATOM     29  C   UNL     1       2.512   4.045  21.173  0.00  0.00    +0.000 A 
ATOM     30  C   UNL     1       3.172   4.698  20.131  0.00  0.00    +0.000 A 
ENDBRANCH  23  24
ENDBRANCH  22  23
ENDBRANCH  21  22
ENDBRANCH  20  21
ENDBRANCH  19  20
ENDBRANCH  10  19
TORSDOF 7
ENDMDL
MODEL 8
REMARK VINA RESULT:      -7.8      5.128      8.491
REMARK  Name = 
REMARK  8 active torsions:
REMARK  status: ('A' for Active; 'I' for Inactive)
REMARK    1  A    between atoms: C_1  and  C_2
REMARK    2  A    between atoms: C_8  and  O_9
REMARK    3  A    between atoms: C_11  and  C_12
REMARK    4  A    between atoms: C_12  and  C_13
REMARK    5  A    between atoms: C_13  and  C_14
REMARK    6  A    between atoms: C_14  and  C_15
REMARK    7  A    between atoms: C_15  and  C_16
REMARK    8  A    between atoms: C_16  and  C_17
REMARK                            x       y       z     vdW  Elec       q    Type
REMARK                         _______ _______ _______ _____ _____    ______ ____
ROOT
ATOM      1  C   UNL     1       0.683   4.506  20.462  0.00  0.00    +0.000 C 
ATOM      2  C   UNL     1       0.855   3.973  19.036  0.00  0.00    +0.000 C 
ATOM      3  C   UNL     1       1.169   2.478  19.004  0.00  0.00    +0.000 C 
ATOM      4  C   UNL     1       2.524   2.173  19.642  0.00  0.00    +0.000 C 
ATOM      5  C   UNL     1       3.607   3.157  19.266  0.00  0.00    +0.000 A 
ATOM      6  C   UNL     1       3.373   4.321  18.624  0.00  0.00    +0.000 A 
ATOM      7  C   UNL     1       4.510   5.208  18.283  0.00  0.00    +0.000 A 
ATOM      8  C   UNL     1       4.455   6.428  17.583  0.00  0.00    +0.000 A 
ATOM      9  C   UNL     1       5.593   7.215  17.373  0.00  0.00    +0.000 A 
ATOM     10  C   UNL     1       6.846   6.796  17.822  0.00  0.00    +0.000 A 
ATOM     11  C   UNL     1       6.938   5.576  18.487  0.00  0.00    +0.000 A 
ATOM     12  C   UNL     1       5.784   4.815  18.710  0.00  0.00    +0.000 A 
ATOM     13  O   UNL     1       6.000   3.605  19.393  0.00  0.00    +0.000 OA
ATOM     14  C   UNL     1       4.967   2.739  19.689  0.00  0.00    +0.000 A 
ATOM     15  O   UNL     1       5.167   1.685  20.283  0.00  0.00    +0.000 OA
ATOM     16  C   UNL     1       1.957   4.740  18.287  0.00  0.00    +0.000 C 
ENDROOT
BRANCH   8  17
ATOM     17  O   UNL     1       3.319   6.948  17.027  0.00  0.00    +0.000 OA
ATOM     18  H   UNL     1       3.104   6.404  16.254  0.00  0.00    +0.000 HD
ENDBRANCH   8  17
BRANCH  10  19
ATOM     19  C   UNL     1       8.072   7.620  17.530  0.00  0.00    +0.000 C 
BRANCH  19  20
ATOM     20  C   UNL     1       7.829   9.095  17.851  0.00  0.00    +0.000 C 
BRANCH  20  21
ATOM     21  C   UNL     1       8.922   9.658  18.757  0.00  0.00    +0.000 C 
BRANCH  21  22
ATOM     22  C   UNL     1       9.406  11.015  18.245  0.00  0.00    +0.000 C 
BRANCH  22  23
ATOM     23  C   UNL     1      10.735  11.410  18.891  0.00  0.00    +0.000 C 
BRANCH  23  24
ATOM     24  C   UNL     1      11.078  12.854  18.622  0.00  0.00    +0.000 A 
ATOM     25  C   UNL     1      11.245  13.307  17.304  0.00  0.00    +0.000 A 
ATOM     26  C   UNL     1      11.558  14.642  17.053  0.00  0.00    +0.000 A 
ATOM     27  C   UNL     1      11.713  15.521  18.116  0.00  0.00    +0.000 A 
ATOM     28  F   UNL     1      12.007  16.805  17.874  0.00  0.00    +0.000 F 
ATOM     29  C   UNL     1      11.569  15.089  19.430  0.00  0.00    +0.000 A 
ATOM     30  C   UNL     1      11.254  13.753  19.684  0.00  0.00    +0.000 A 
ENDBRANCH  23  24
ENDBRANCH  22  23
ENDBRANCH  21  22
ENDBRANCH  20  21
ENDBRANCH  19  20
ENDBRANCH  10  19
TORSDOF 7
ENDMDL
MODEL 9
REMARK VINA RESULT:      -7.7      1.517      2.903
REMARK  Name = 
REMARK  8 active torsions:
REMARK  status: ('A' for Active; 'I' for Inactive)
REMARK    1  A    between atoms: C_1  and  C_2
REMARK    2  A    between atoms: C_8  and  O_9
REMARK    3  A    between atoms: C_11  and  C_12
REMARK    4  A    between atoms: C_12  and  C_13
REMARK    5  A    between atoms: C_13  and  C_14
REMARK    6  A    between atoms: C_14  and  C_15
REMARK    7  A    between atoms: C_15  and  C_16
REMARK    8  A    between atoms: C_16  and  C_17
REMARK                            x       y       z     vdW  Elec       q    Type
REMARK                         _______ _______ _______ _____ _____    ______ ____
ROOT
ATOM      1  C   UNL     1      -2.993  12.194  22.695  0.00  0.00    +0.000 C 
ATOM      2  C   UNL     1      -1.581  12.610  23.119  0.00  0.00    +0.000 C 
ATOM      3  C   UNL     1      -1.195  13.991  22.591  0.00  0.00    +0.000 C 
ATOM      4  C   UNL     1      -1.105  14.006  21.067  0.00  0.00    +0.000 C 
ATOM      5  C   UNL     1      -0.430  12.786  20.485  0.00  0.00    +0.000 A 
ATOM      6  C   UNL     1      -0.138  11.679  21.200  0.00  0.00    +0.000 A 
ATOM      7  C   UNL     1       0.544  10.541  20.539  0.00  0.00    +0.000 A 
ATOM      8  C   UNL     1       0.958   9.336  21.137  0.00  0.00    +0.000 A 
ATOM      9  C   UNL     1       1.540   8.302  20.396  0.00  0.00    +0.000 A 
ATOM     10  C   UNL     1       1.767   8.443  19.026  0.00  0.00    +0.000 A 
ATOM     11  C   UNL     1       1.400   9.638  18.412  0.00  0.00    +0.000 A 
ATOM     12  C   UNL     1       0.796  10.651  19.167  0.00  0.00    +0.000 A 
ATOM     13  O   UNL     1       0.466  11.809  18.439  0.00  0.00    +0.000 OA
ATOM     14  C   UNL     1      -0.132  12.900  19.036  0.00  0.00    +0.000 A 
ATOM     15  O   UNL     1      -0.413  13.906  18.393  0.00  0.00    +0.000 OA
ATOM     16  C   UNL     1      -0.538  11.580  22.658  0.00  0.00    +0.000 C 
ENDROOT
BRANCH   8  17
ATOM     17  O   UNL     1       0.863   9.065  22.474  0.00  0.00    +0.000 OA
ATOM     18  H   UNL     1       1.180   8.159  22.607  0.00  0.00    +0.000 HD
ENDBRANCH   8  17
BRANCH  10  19
ATOM     19  C   UNL     1       2.455   7.349  18.253  0.00  0.00    +0.000 C 
BRANCH  19  20
ATOM     20  C   UNL     1       2.276   5.996  18.943  0.00  0.00    +0.000 C 
BRANCH  20  21
ATOM     21  C   UNL     1       2.042   4.878  17.929  0.00  0.00    +0.000 C 
BRANCH  21  22
ATOM     22  C   UNL     1       2.670   3.569  18.409  0.00  0.00    +0.000 C 
BRANCH  22  23
ATOM     23  C   UNL     1       3.832   3.148  17.508  0.00  0.00    +0.000 C 
BRANCH  23  24
ATOM     24  C   UNL     1       4.894   4.217  17.433  0.00  0.00    +0.000 A 
ATOM     25  C   UNL     1       5.676   4.515  18.560  0.00  0.00    +0.000 A 
ATOM     26  C   UNL     1       6.662   5.499  18.492  0.00  0.00    +0.000 A 
ATOM     27  C   UNL     1       6.859   6.191  17.304  0.00  0.00    +0.000 A 
ATOM     28  F   UNL     1       7.810   7.131  17.237  0.00  0.00    +0.000 F 
ATOM     29  C   UNL     1       6.083   5.922  16.182  0.00  0.00    +0.000 A 
ATOM     30  C   UNL     1       5.097   4.936  16.247  0.00  0.00    +0.000 A 
ENDBRANCH  23  24
ENDBRANCH  22  23
ENDBRANCH  21  22
ENDBRANCH  20  21
ENDBRANCH  19  20
ENDBRANCH  10  19
TORSDOF 7
ENDMDL
