MODEL 1
REMARK VINA RESULT:      -7.2      0.000      0.000
REMARK  Name = 
REMARK  9 active torsions:
REMARK  status: ('A' for Active; 'I' for Inactive)
REMARK    1  A    between atoms: C_1  and  C_2
REMARK    2  A    between atoms: C_2  and  O_3
REMARK    3  A    between atoms: O_3  and  C_4
REMARK    4  A    between atoms: C_4  and  C_6
REMARK    5  A    between atoms: C_8  and  C_9
REMARK    6  A    between atoms: C_11  and  O_12
REMARK    7  A    between atoms: O_12  and  C_13
REMARK    8  A    between atoms: C_17  and  C_18
REMARK    9  A    between atoms: C_24  and  C_25
REMARK                            x       y       z     vdW  Elec       q    Type
REMARK                         _______ _______ _______ _____ _____    ______ ____
ROOT
ATOM      1  C   UNL     1       3.457   5.314  17.965  0.00  0.00    +0.000 A 
ATOM      2  C   UNL     1       4.592   4.619  17.525  0.00  0.00    +0.000 A 
ATOM      3  C   UNL     1       5.719   5.329  17.108  0.00  0.00    +0.000 A 
ATOM      4  C   UNL     1       5.637   6.713  17.093  0.00  0.00    +0.000 A 
ATOM      5  N   UNL     1       4.588   7.400  17.607  0.00  0.00    +0.000 NA
ATOM      6  C   UNL     1       3.509   6.710  18.073  0.00  0.00    +0.000 A 
ENDROOT
BRANCH   6   7
ATOM      7  C   UNL     1       2.491   7.563  18.734  0.00  0.00    +0.000 A 
ATOM      8  C   UNL     1       1.889   8.634  18.046  0.00  0.00    +0.000 A 
ATOM      9  C   UNL     1       0.923   9.442  18.655  0.00  0.00    +0.000 A 
ATOM     10  C   UNL     1       0.531   9.195  19.967  0.00  0.00    +0.000 A 
ATOM     11  C   UNL     1       1.130   8.165  20.682  0.00  0.00    +0.000 A 
ATOM     12  C   UNL     1       2.117   7.380  20.080  0.00  0.00    +0.000 A 
ENDBRANCH   6   7
BRANCH   1  13
ATOM     13  C   UNL     1       2.195   4.581  18.190  0.00  0.00    +0.000 C 
ATOM     14  O   UNL     1       1.233   4.658  17.448  0.00  0.00    +0.000 OA
BRANCH  13  15
ATOM     15  O   UNL     1       2.275   3.849  19.328  0.00  0.00    +0.000 OA
BRANCH  15  17
ATOM     16  C   UNL     1       1.205   2.929  21.329  0.00  0.00    +0.000 C 
ATOM     17  C   UNL     1       1.024   3.673  20.017  0.00  0.00    +0.000 C 
ENDBRANCH  15  17
ENDBRANCH  13  15
ENDBRANCH   1  13
BRANCH   3  18
ATOM     18  C   UNL     1       6.899   4.633  16.705  0.00  0.00    +0.000 C 
ATOM     19  N   UNL     1       7.869   4.111  16.334  0.00  0.00    +0.000 NA
ENDBRANCH   3  18
BRANCH   4  20
ATOM     20  O   UNL     1       6.691   7.439  16.559  0.00  0.00    +0.000 OA
BRANCH  20  21
ATOM     21  C   UNL     1       7.448   8.215  17.413  0.00  0.00    +0.000 A 
ATOM     22  C   UNL     1       8.097   7.535  18.444  0.00  0.00    +0.000 A 
ATOM     23  C   UNL     1       8.936   8.221  19.323  0.00  0.00    +0.000 A 
ATOM     24  C   UNL     1       9.147   9.591  19.164  0.00  0.00    +0.000 A 
ATOM     25  C   UNL     1       8.524  10.288  18.118  0.00  0.00    +0.000 A 
ATOM     26  C   UNL     1       7.672   9.587  17.243  0.00  0.00    +0.000 A 
BRANCH  25  27
ATOM     27  C   UNL     1       8.762  11.766  17.920  0.00  0.00    +0.000 C 
ATOM     28  F   UNL     1       7.871  12.354  17.074  0.00  0.00    +0.000 F 
ATOM     29  F   UNL     1       8.678  12.465  19.088  0.00  0.00    +0.000 F 
ATOM     30  F   UNL     1       9.994  12.035  17.411  0.00  0.00    +0.000 F 
ENDBRANCH  25  27
ENDBRANCH  20  21
ENDBRANCH   4  20
TORSDOF 8
ENDMDL
MODEL 2
REMARK VINA RESULT:      -7.2      0.194      1.135
REMARK  Name = 
REMARK  9 active torsions:
REMARK  status: ('A' for Active; 'I' for Inactive)
REMARK    1  A    between atoms: C_1  and  C_2
REMARK    2  A    between atoms: C_2  and  O_3
REMARK    3  A    between atoms: O_3  and  C_4
REMARK    4  A    between atoms: C_4  and  C_6
REMARK    5  A    between atoms: C_8  and  C_9
REMARK    6  A    between atoms: C_11  and  O_12
REMARK    7  A    between atoms: O_12  and  C_13
REMARK    8  A    between atoms: C_17  and  C_18
REMARK    9  A    between atoms: C_24  and  C_25
REMARK                            x       y       z     vdW  Elec       q    Type
REMARK                         _______ _______ _______ _____ _____    ______ ____
ROOT
ATOM      1  C   UNL     1       3.516   5.427  18.014  0.00  0.00    +0.000 A 
ATOM      2  C   UNL     1       4.662   4.709  17.647  0.00  0.00    +0.000 A 
ATOM      3  C   UNL     1       5.805   5.396  17.234  0.00  0.00    +0.000 A 
ATOM      4  C   UNL     1       5.729   6.778  17.149  0.00  0.00    +0.000 A 
ATOM      5  N   UNL     1       4.665   7.491  17.594  0.00  0.00    +0.000 NA
ATOM      6  C   UNL     1       3.569   6.826  18.057  0.00  0.00    +0.000 A 
ENDROOT
BRANCH   6   7
ATOM      7  C   UNL     1       2.532   7.713  18.641  0.00  0.00    +0.000 A 
ATOM      8  C   UNL     1       2.132   7.571  19.983  0.00  0.00    +0.000 A 
ATOM      9  C   UNL     1       1.161   8.404  20.548  0.00  0.00    +0.000 A 
ATOM     10  C   UNL     1       0.569   9.406  19.783  0.00  0.00    +0.000 A 
ATOM     11  C   UNL     1       0.920   9.549  18.447  0.00  0.00    +0.000 A 
ATOM     12  C   UNL     1       1.868   8.694  17.878  0.00  0.00    +0.000 A 
ENDBRANCH   6   7
BRANCH   1  13
ATOM     13  C   UNL     1       2.244   4.709  18.232  0.00  0.00    +0.000 C 
ATOM     14  O   UNL     1       1.262   4.854  17.528  0.00  0.00    +0.000 OA
BRANCH  13  15
ATOM     15  O   UNL     1       2.342   3.902  19.318  0.00  0.00    +0.000 OA
BRANCH  15  17
ATOM     16  C   UNL     1       1.331   2.981  21.349  0.00  0.00    +0.000 C 
ATOM     17  C   UNL     1       1.109   3.709  20.034  0.00  0.00    +0.000 C 
ENDBRANCH  15  17
ENDBRANCH  13  15
ENDBRANCH   1  13
BRANCH   3  18
ATOM     18  C   UNL     1       6.995   4.679  16.905  0.00  0.00    +0.000 C 
ATOM     19  N   UNL     1       7.992   4.125  16.682  0.00  0.00    +0.000 NA
ENDBRANCH   3  18
BRANCH   4  20
ATOM     20  O   UNL     1       6.802   7.474  16.616  0.00  0.00    +0.000 OA
BRANCH  20  21
ATOM     21  C   UNL     1       7.517   8.311  17.450  0.00  0.00    +0.000 A 
ATOM     22  C   UNL     1       8.167   7.696  18.520  0.00  0.00    +0.000 A 
ATOM     23  C   UNL     1       8.967   8.445  19.384  0.00  0.00    +0.000 A 
ATOM     24  C   UNL     1       9.136   9.814  19.172  0.00  0.00    +0.000 A 
ATOM     25  C   UNL     1       8.510  10.446  18.087  0.00  0.00    +0.000 A 
ATOM     26  C   UNL     1       7.699   9.681  17.227  0.00  0.00    +0.000 A 
BRANCH  25  27
ATOM     27  C   UNL     1       8.703  11.921  17.832  0.00  0.00    +0.000 C 
ATOM     28  F   UNL     1       8.673  12.680  18.963  0.00  0.00    +0.000 F 
ATOM     29  F   UNL     1       9.900  12.192  17.238  0.00  0.00    +0.000 F 
ATOM     30  F   UNL     1       7.752  12.440  17.009  0.00  0.00    +0.000 F 
ENDBRANCH  25  27
ENDBRANCH  20  21
ENDBRANCH   4  20
TORSDOF 8
ENDMDL
MODEL 3
REMARK VINA RESULT:      -6.8      4.889      7.621
REMARK  Name = 
REMARK  9 active torsions:
REMARK  status: ('A' for Active; 'I' for Inactive)
REMARK    1  A    between atoms: C_1  and  C_2
REMARK    2  A    between atoms: C_2  and  O_3
REMARK    3  A    between atoms: O_3  and  C_4
REMARK    4  A    between atoms: C_4  and  C_6
REMARK    5  A    between atoms: C_8  and  C_9
REMARK    6  A    between atoms: C_11  and  O_12
REMARK    7  A    between atoms: O_12  and  C_13
REMARK    8  A    between atoms: C_17  and  C_18
REMARK    9  A    between atoms: C_24  and  C_25
REMARK                            x       y       z     vdW  Elec       q    Type
REMARK                         _______ _______ _______ _____ _____    ______ ____
ROOT
ATOM      1  C   UNL     1       1.983   6.128  20.301  0.00  0.00    +0.000 A 
ATOM      2  C   UNL     1       1.121   6.856  21.132  0.00  0.00    +0.000 A 
ATOM      3  C   UNL     1       0.897   8.210  20.878  0.00  0.00    +0.000 A 
ATOM      4  C   UNL     1       1.600   8.794  19.835  0.00  0.00    +0.000 A 
ATOM      5  N   UNL     1       2.359   8.084  18.964  0.00  0.00    +0.000 NA
ATOM      6  C   UNL     1       2.530   6.748  19.171  0.00  0.00    +0.000 A 
ENDROOT
BRANCH   6   7
ATOM      7  C   UNL     1       3.263   6.061  18.078  0.00  0.00    +0.000 A 
ATOM      8  C   UNL     1       4.306   6.708  17.390  0.00  0.00    +0.000 A 
ATOM      9  C   UNL     1       5.009   6.070  16.362  0.00  0.00    +0.000 A 
ATOM     10  C   UNL     1       4.688   4.764  16.003  0.00  0.00    +0.000 A 
ATOM     11  C   UNL     1       3.642   4.112  16.642  0.00  0.00    +0.000 A 
ATOM     12  C   UNL     1       2.922   4.764  17.646  0.00  0.00    +0.000 A 
ENDBRANCH   6   7
BRANCH   1  13
ATOM     13  C   UNL     1       2.396   4.766  20.695  0.00  0.00    +0.000 C 
ATOM     14  O   UNL     1       3.557   4.405  20.747  0.00  0.00    +0.000 OA
BRANCH  13  15
ATOM     15  O   UNL     1       1.306   4.005  20.961  0.00  0.00    +0.000 OA
BRANCH  15  17
ATOM     16  C   UNL     1       0.713   2.506  19.118  0.00  0.00    +0.000 C 
ATOM     17  C   UNL     1       1.383   2.654  20.473  0.00  0.00    +0.000 C 
ENDBRANCH  15  17
ENDBRANCH  13  15
ENDBRANCH   1  13
BRANCH   3  18
ATOM     18  C   UNL     1      -0.017   8.952  21.687  0.00  0.00    +0.000 C 
ATOM     19  N   UNL     1      -0.784   9.501  22.365  0.00  0.00    +0.000 NA
ENDBRANCH   3  18
BRANCH   4  20
ATOM     20  O   UNL     1       1.500  10.163  19.645  0.00  0.00    +0.000 OA
BRANCH  20  21
ATOM     21  C   UNL     1       0.292  10.676  19.217  0.00  0.00    +0.000 A 
ATOM     22  C   UNL     1      -0.030  11.951  19.682  0.00  0.00    +0.000 A 
ATOM     23  C   UNL     1      -1.199  12.583  19.256  0.00  0.00    +0.000 A 
ATOM     24  C   UNL     1      -2.047  11.949  18.347  0.00  0.00    +0.000 A 
ATOM     25  C   UNL     1      -1.728  10.677  17.848  0.00  0.00    +0.000 A 
ATOM     26  C   UNL     1      -0.549  10.046  18.292  0.00  0.00    +0.000 A 
BRANCH  25  27
ATOM     27  C   UNL     1      -2.623   9.990  16.846  0.00  0.00    +0.000 C 
ATOM     28  F   UNL     1      -1.948   9.226  15.943  0.00  0.00    +0.000 F 
ATOM     29  F   UNL     1      -3.519   9.152  17.441  0.00  0.00    +0.000 F 
ATOM     30  F   UNL     1      -3.362  10.867  16.114  0.00  0.00    +0.000 F 
ENDBRANCH  25  27
ENDBRANCH  20  21
ENDBRANCH   4  20
TORSDOF 8
ENDMDL
MODEL 4
REMARK VINA RESULT:      -6.7      4.857      7.634
REMARK  Name = 
REMARK  9 active torsions:
REMARK  status: ('A' for Active; 'I' for Inactive)
REMARK    1  A    between atoms: C_1  and  C_2
REMARK    2  A    between atoms: C_2  and  O_3
REMARK    3  A    between atoms: O_3  and  C_4
REMARK    4  A    between atoms: C_4  and  C_6
REMARK    5  A    between atoms: C_8  and  C_9
REMARK    6  A    between atoms: C_11  and  O_12
REMARK    7  A    between atoms: O_12  and  C_13
REMARK    8  A    between atoms: C_17  and  C_18
REMARK    9  A    between atoms: C_24  and  C_25
REMARK                            x       y       z     vdW  Elec       q    Type
REMARK                         _______ _______ _______ _____ _____    ______ ____
ROOT
ATOM      1  C   UNL     1       2.056   6.089  20.233  0.00  0.00    +0.000 A 
ATOM      2  C   UNL     1       1.180   6.781  21.081  0.00  0.00    +0.000 A 
ATOM      3  C   UNL     1       0.931   8.136  20.859  0.00  0.00    +0.000 A 
ATOM      4  C   UNL     1       1.622   8.757  19.830  0.00  0.00    +0.000 A 
ATOM      5  N   UNL     1       2.393   8.083  18.942  0.00  0.00    +0.000 NA
ATOM      6  C   UNL     1       2.590   6.745  19.117  0.00  0.00    +0.000 A 
ENDROOT
BRANCH   6   7
ATOM      7  C   UNL     1       3.334   6.099  18.009  0.00  0.00    +0.000 A 
ATOM      8  C   UNL     1       3.064   4.768  17.636  0.00  0.00    +0.000 A 
ATOM      9  C   UNL     1       3.754   4.149  16.588  0.00  0.00    +0.000 A 
ATOM     10  C   UNL     1       4.729   4.849  15.883  0.00  0.00    +0.000 A 
ATOM     11  C   UNL     1       5.040   6.153  16.249  0.00  0.00    +0.000 A 
ATOM     12  C   UNL     1       4.371   6.757  17.316  0.00  0.00    +0.000 A 
ENDBRANCH   6   7
BRANCH   1  13
ATOM     13  C   UNL     1       2.494   4.726  20.594  0.00  0.00    +0.000 C 
ATOM     14  O   UNL     1       3.663   4.391  20.658  0.00  0.00    +0.000 OA
BRANCH  13  15
ATOM     15  O   UNL     1       1.419   3.931  20.816  0.00  0.00    +0.000 OA
BRANCH  15  17
ATOM     16  C   UNL     1       0.751   2.471  18.968  0.00  0.00    +0.000 C 
ATOM     17  C   UNL     1       1.527   2.606  20.266  0.00  0.00    +0.000 C 
ENDBRANCH  15  17
ENDBRANCH  13  15
ENDBRANCH   1  13
BRANCH   3  18
ATOM     18  C   UNL     1       0.003   8.841  21.685  0.00  0.00    +0.000 C 
ATOM     19  N   UNL     1      -0.749   9.367  22.398  0.00  0.00    +0.000 NA
ENDBRANCH   3  18
BRANCH   4  20
ATOM     20  O   UNL     1       1.495  10.128  19.673  0.00  0.00    +0.000 OA
BRANCH  20  21
ATOM     21  C   UNL     1       0.274  10.629  19.269  0.00  0.00    +0.000 A 
ATOM     22  C   UNL     1      -0.081  11.872  19.795  0.00  0.00    +0.000 A 
ATOM     23  C   UNL     1      -1.267  12.492  19.400  0.00  0.00    +0.000 A 
ATOM     24  C   UNL     1      -2.098  11.881  18.461  0.00  0.00    +0.000 A 
ATOM     25  C   UNL     1      -1.746  10.643  17.902  0.00  0.00    +0.000 A 
ATOM     26  C   UNL     1      -0.552  10.022  18.314  0.00  0.00    +0.000 A 
BRANCH  25  27
ATOM     27  C   UNL     1      -2.625   9.981  16.867  0.00  0.00    +0.000 C 
ATOM     28  F   UNL     1      -3.558   9.143  17.398  0.00  0.00    +0.000 F 
ATOM     29  F   UNL     1      -3.322  10.887  16.124  0.00  0.00    +0.000 F 
ATOM     30  F   UNL     1      -1.916   9.235  15.978  0.00  0.00    +0.000 F 
ENDBRANCH  25  27
ENDBRANCH  20  21
ENDBRANCH   4  20
TORSDOF 8
ENDMDL
MODEL 5
REMARK VINA RESULT:      -6.6      0.905      1.228
REMARK  Name = 
REMARK  9 active torsions:
REMARK  status: ('A' for Active; 'I' for Inactive)
REMARK    1  A    between atoms: C_1  and  C_2
REMARK    2  A    between atoms: C_2  and  O_3
REMARK    3  A    between atoms: O_3  and  C_4
REMARK    4  A    between atoms: C_4  and  C_6
REMARK    5  A    between atoms: C_8  and  C_9
REMARK    6  A    between atoms: C_11  and  O_12
REMARK    7  A    between atoms: O_12  and  C_13
REMARK    8  A    between atoms: C_17  and  C_18
REMARK    9  A    between atoms: C_24  and  C_25
REMARK                            x       y       z     vdW  Elec       q    Type
REMARK                         _______ _______ _______ _____ _____    ______ ____
ROOT
ATOM      1  C   UNL     1       3.537   5.516  18.301  0.00  0.00    +0.000 A 
ATOM      2  C   UNL     1       4.714   4.797  18.052  0.00  0.00    +0.000 A 
ATOM      3  C   UNL     1       5.847   5.466  17.586  0.00  0.00    +0.000 A 
ATOM      4  C   UNL     1       5.731   6.823  17.328  0.00  0.00    +0.000 A 
ATOM      5  N   UNL     1       4.634   7.549  17.656  0.00  0.00    +0.000 NA
ATOM      6  C   UNL     1       3.546   6.910  18.171  0.00  0.00    +0.000 A 
ENDROOT
BRANCH   6   7
ATOM      7  C   UNL     1       2.467   7.826  18.615  0.00  0.00    +0.000 A 
ATOM      8  C   UNL     1       1.845   8.704  17.708  0.00  0.00    +0.000 A 
ATOM      9  C   UNL     1       0.822   9.569  18.113  0.00  0.00    +0.000 A 
ATOM     10  C   UNL     1       0.392   9.571  19.437  0.00  0.00    +0.000 A 
ATOM     11  C   UNL     1       1.009   8.738  20.362  0.00  0.00    +0.000 A 
ATOM     12  C   UNL     1       2.051   7.900  19.960  0.00  0.00    +0.000 A 
ENDBRANCH   6   7
BRANCH   1  13
ATOM     13  C   UNL     1       2.282   4.787  18.575  0.00  0.00    +0.000 C 
ATOM     14  O   UNL     1       1.610   4.959  19.575  0.00  0.00    +0.000 OA
BRANCH  13  15
ATOM     15  O   UNL     1       2.021   3.911  17.573  0.00  0.00    +0.000 OA
BRANCH  15  17
ATOM     16  C   UNL     1       2.909   1.818  18.481  0.00  0.00    +0.000 C 
ATOM     17  C   UNL     1       1.684   2.582  18.010  0.00  0.00    +0.000 C 
ENDBRANCH  15  17
ENDBRANCH  13  15
ENDBRANCH   1  13
BRANCH   3  18
ATOM     18  C   UNL     1       7.067   4.754  17.376  0.00  0.00    +0.000 C 
ATOM     19  N   UNL     1       8.087   4.228  17.191  0.00  0.00    +0.000 NA
ENDBRANCH   3  18
BRANCH   4  20
ATOM     20  O   UNL     1       6.797   7.485  16.739  0.00  0.00    +0.000 OA
BRANCH  20  21
ATOM     21  C   UNL     1       7.525   8.368  17.512  0.00  0.00    +0.000 A 
ATOM     22  C   UNL     1       8.253   7.806  18.561  0.00  0.00    +0.000 A 
ATOM     23  C   UNL     1       9.070   8.606  19.360  0.00  0.00    +0.000 A 
ATOM     24  C   UNL     1       9.178   9.973  19.104  0.00  0.00    +0.000 A 
ATOM     25  C   UNL     1       8.473  10.553  18.037  0.00  0.00    +0.000 A 
ATOM     26  C   UNL     1       7.645   9.737  17.243  0.00  0.00    +0.000 A 
BRANCH  25  27
ATOM     27  C   UNL     1       8.599  12.026  17.734  0.00  0.00    +0.000 C 
ATOM     28  F   UNL     1       8.493  12.822  18.834  0.00  0.00    +0.000 F 
ATOM     29  F   UNL     1       9.800  12.338  17.168  0.00  0.00    +0.000 F 
ATOM     30  F   UNL     1       7.651  12.465  16.863  0.00  0.00    +0.000 F 
ENDBRANCH  25  27
ENDBRANCH  20  21
ENDBRANCH   4  20
TORSDOF 8
ENDMDL
MODEL 6
REMARK VINA RESULT:      -6.5      7.327     10.443
REMARK  Name = 
REMARK  9 active torsions:
REMARK  status: ('A' for Active; 'I' for Inactive)
REMARK    1  A    between atoms: C_1  and  C_2
REMARK    2  A    between atoms: C_2  and  O_3
REMARK    3  A    between atoms: O_3  and  C_4
REMARK    4  A    between atoms: C_4  and  C_6
REMARK    5  A    between atoms: C_8  and  C_9
REMARK    6  A    between atoms: C_11  and  O_12
REMARK    7  A    between atoms: O_12  and  C_13
REMARK    8  A    between atoms: C_17  and  C_18
REMARK    9  A    between atoms: C_24  and  C_25
REMARK                            x       y       z     vdW  Elec       q    Type
REMARK                         _______ _______ _______ _____ _____    ______ ____
ROOT
ATOM      1  C   UNL     1      -5.541  12.268  19.130  0.00  0.00    +0.000 A 
ATOM      2  C   UNL     1      -5.733  13.082  20.255  0.00  0.00    +0.000 A 
ATOM      3  C   UNL     1      -4.662  13.341  21.112  0.00  0.00    +0.000 A 
ATOM      4  C   UNL     1      -3.454  12.718  20.837  0.00  0.00    +0.000 A 
ATOM      5  N   UNL     1      -3.226  12.011  19.703  0.00  0.00    +0.000 NA
ATOM      6  C   UNL     1      -4.253  11.808  18.831  0.00  0.00    +0.000 A 
ENDROOT
BRANCH   6   7
ATOM      7  C   UNL     1      -3.845  11.142  17.569  0.00  0.00    +0.000 A 
ATOM      8  C   UNL     1      -4.308  11.608  16.323  0.00  0.00    +0.000 A 
ATOM      9  C   UNL     1      -3.925  10.993  15.126  0.00  0.00    +0.000 A 
ATOM     10  C   UNL     1      -3.065   9.899  15.146  0.00  0.00    +0.000 A 
ATOM     11  C   UNL     1      -2.619   9.397  16.362  0.00  0.00    +0.000 A 
ATOM     12  C   UNL     1      -3.028   9.994  17.556  0.00  0.00    +0.000 A 
ENDBRANCH   6   7
BRANCH   1  13
ATOM     13  C   UNL     1      -6.711  11.812  18.353  0.00  0.00    +0.000 C 
ATOM     14  O   UNL     1      -7.399  12.554  17.677  0.00  0.00    +0.000 OA
BRANCH  13  15
ATOM     15  O   UNL     1      -6.896  10.480  18.525  0.00  0.00    +0.000 OA
BRANCH  15  17
ATOM     16  C   UNL     1      -7.236   8.587  20.041  0.00  0.00    +0.000 C 
ATOM     17  C   UNL     1      -7.283  10.094  19.856  0.00  0.00    +0.000 C 
ENDBRANCH  15  17
ENDBRANCH  13  15
ENDBRANCH   1  13
BRANCH   3  18
ATOM     18  C   UNL     1      -4.832  14.208  22.234  0.00  0.00    +0.000 C 
ATOM     19  N   UNL     1      -5.032  14.915  23.134  0.00  0.00    +0.000 NA
ENDBRANCH   3  18
BRANCH   4  20
ATOM     20  O   UNL     1      -2.414  12.849  21.743  0.00  0.00    +0.000 OA
BRANCH  20  21
ATOM     21  C   UNL     1      -1.469  11.844  21.802  0.00  0.00    +0.000 A 
ATOM     22  C   UNL     1      -1.340  11.198  23.032  0.00  0.00    +0.000 A 
ATOM     23  C   UNL     1      -0.458  10.127  23.177  0.00  0.00    +0.000 A 
ATOM     24  C   UNL     1       0.289   9.683  22.085  0.00  0.00    +0.000 A 
ATOM     25  C   UNL     1       0.155  10.303  20.834  0.00  0.00    +0.000 A 
ATOM     26  C   UNL     1      -0.732  11.388  20.702  0.00  0.00    +0.000 A 
BRANCH  25  27
ATOM     27  C   UNL     1       0.939   9.817  19.639  0.00  0.00    +0.000 C 
ATOM     28  F   UNL     1       0.160   9.484  18.573  0.00  0.00    +0.000 F 
ATOM     29  F   UNL     1       1.815  10.754  19.178  0.00  0.00    +0.000 F 
ATOM     30  F   UNL     1       1.685   8.713  19.915  0.00  0.00    +0.000 F 
ENDBRANCH  25  27
ENDBRANCH  20  21
ENDBRANCH   4  20
TORSDOF 8
ENDMDL
MODEL 7
REMARK VINA RESULT:      -6.5      2.797      4.800
REMARK  Name = 
REMARK  9 active torsions:
REMARK  status: ('A' for Active; 'I' for Inactive)
REMARK    1  A    between atoms: C_1  and  C_2
REMARK    2  A    between atoms: C_2  and  O_3
REMARK    3  A    between atoms: O_3  and  C_4
REMARK    4  A    between atoms: C_4  and  C_6
REMARK    5  A    between atoms: C_8  and  C_9
REMARK    6  A    between atoms: C_11  and  O_12
REMARK    7  A    between atoms: O_12  and  C_13
REMARK    8  A    between atoms: C_17  and  C_18
REMARK    9  A    between atoms: C_24  and  C_25
REMARK                            x       y       z     vdW  Elec       q    Type
REMARK                         _______ _______ _______ _____ _____    ______ ____
ROOT
ATOM      1  C   UNL     1       1.228   8.023  20.412  0.00  0.00    +0.000 A 
ATOM      2  C   UNL     1       1.840   6.782  20.636  0.00  0.00    +0.000 A 
ATOM      3  C   UNL     1       2.511   6.144  19.591  0.00  0.00    +0.000 A 
ATOM      4  C   UNL     1       2.485   6.751  18.345  0.00  0.00    +0.000 A 
ATOM      5  N   UNL     1       1.984   7.992  18.135  0.00  0.00    +0.000 NA
ATOM      6  C   UNL     1       1.383   8.648  19.168  0.00  0.00    +0.000 A 
ENDROOT
BRANCH   6   7
ATOM      7  C   UNL     1       1.002  10.046  18.850  0.00  0.00    +0.000 A 
ATOM      8  C   UNL     1       1.965  11.074  18.843  0.00  0.00    +0.000 A 
ATOM      9  C   UNL     1       1.620  12.395  18.538  0.00  0.00    +0.000 A 
ATOM     10  C   UNL     1       0.302  12.720  18.228  0.00  0.00    +0.000 A 
ATOM     11  C   UNL     1      -0.675  11.733  18.259  0.00  0.00    +0.000 A 
ATOM     12  C   UNL     1      -0.332  10.421  18.594  0.00  0.00    +0.000 A 
ENDBRANCH   6   7
BRANCH   1  13
ATOM     13  C   UNL     1       0.333   8.590  21.440  0.00  0.00    +0.000 C 
ATOM     14  O   UNL     1      -0.680   8.039  21.827  0.00  0.00    +0.000 OA
BRANCH  13  15
ATOM     15  O   UNL     1       0.801   9.793  21.855  0.00  0.00    +0.000 OA
BRANCH  15  17
ATOM     16  C   UNL     1      -0.178  12.038  21.886  0.00  0.00    +0.000 C 
ATOM     17  C   UNL     1      -0.184  10.638  22.477  0.00  0.00    +0.000 C 
ENDBRANCH  15  17
ENDBRANCH  13  15
ENDBRANCH   1  13
BRANCH   3  18
ATOM     18  C   UNL     1       3.181   4.904  19.819  0.00  0.00    +0.000 C 
ATOM     19  N   UNL     1       3.735   3.912  20.064  0.00  0.00    +0.000 NA
ENDBRANCH   3  18
BRANCH   4  20
ATOM     20  O   UNL     1       3.026   6.075  17.262  0.00  0.00    +0.000 OA
BRANCH  20  21
ATOM     21  C   UNL     1       4.397   5.927  17.205  0.00  0.00    +0.000 A 
ATOM     22  C   UNL     1       4.860   4.712  16.698  0.00  0.00    +0.000 A 
ATOM     23  C   UNL     1       6.228   4.488  16.541  0.00  0.00    +0.000 A 
ATOM     24  C   UNL     1       7.144   5.487  16.873  0.00  0.00    +0.000 A 
ATOM     25  C   UNL     1       6.697   6.725  17.360  0.00  0.00    +0.000 A 
ATOM     26  C   UNL     1       5.314   6.936  17.522  0.00  0.00    +0.000 A 
BRANCH  25  27
ATOM     27  C   UNL     1       7.675   7.823  17.700  0.00  0.00    +0.000 C 
ATOM     28  F   UNL     1       8.385   7.590  18.839  0.00  0.00    +0.000 F 
ATOM     29  F   UNL     1       8.604   8.013  16.720  0.00  0.00    +0.000 F 
ATOM     30  F   UNL     1       7.069   9.028  17.879  0.00  0.00    +0.000 F 
ENDBRANCH  25  27
ENDBRANCH  20  21
ENDBRANCH   4  20
TORSDOF 8
ENDMDL
MODEL 8
REMARK VINA RESULT:      -6.4      7.225     10.696
REMARK  Name = 
REMARK  9 active torsions:
REMARK  status: ('A' for Active; 'I' for Inactive)
REMARK    1  A    between atoms: C_1  and  C_2
REMARK    2  A    between atoms: C_2  and  O_3
REMARK    3  A    between atoms: O_3  and  C_4
REMARK    4  A    between atoms: C_4  and  C_6
REMARK    5  A    between atoms: C_8  and  C_9
REMARK    6  A    between atoms: C_11  and  O_12
REMARK    7  A    between atoms: O_12  and  C_13
REMARK    8  A    between atoms: C_17  and  C_18
REMARK    9  A    between atoms: C_24  and  C_25
REMARK                            x       y       z     vdW  Elec       q    Type
REMARK                         _______ _______ _______ _____ _____    ______ ____
ROOT
ATOM      1  C   UNL     1       1.898  13.490  19.137  0.00  0.00    +0.000 A 
ATOM      2  C   UNL     1       2.236  12.206  18.689  0.00  0.00    +0.000 A 
ATOM      3  C   UNL     1       1.239  11.239  18.546  0.00  0.00    +0.000 A 
ATOM      4  C   UNL     1      -0.050  11.586  18.919  0.00  0.00    +0.000 A 
ATOM      5  N   UNL     1      -0.410  12.848  19.258  0.00  0.00    +0.000 NA
ATOM      6  C   UNL     1       0.550  13.812  19.339  0.00  0.00    +0.000 A 
ENDROOT
BRANCH   6   7
ATOM      7  C   UNL     1       0.014  15.173  19.583  0.00  0.00    +0.000 A 
ATOM      8  C   UNL     1      -0.311  16.025  18.509  0.00  0.00    +0.000 A 
ATOM      9  C   UNL     1      -0.824  17.308  18.725  0.00  0.00    +0.000 A 
ATOM     10  C   UNL     1      -1.029  17.770  20.022  0.00  0.00    +0.000 A 
ATOM     11  C   UNL     1      -0.688  16.965  21.101  0.00  0.00    +0.000 A 
ATOM     12  C   UNL     1      -0.147  15.696  20.881  0.00  0.00    +0.000 A 
ENDBRANCH   6   7
BRANCH   1  13
ATOM     13  C   UNL     1       2.968  14.439  19.504  0.00  0.00    +0.000 C 
ATOM     14  O   UNL     1       3.288  14.680  20.653  0.00  0.00    +0.000 OA
BRANCH  13  15
ATOM     15  O   UNL     1       3.505  14.993  18.389  0.00  0.00    +0.000 OA
BRANCH  15  17
ATOM     16  C   UNL     1       2.927  16.974  17.072  0.00  0.00    +0.000 C 
ATOM     17  C   UNL     1       3.498  16.431  18.370  0.00  0.00    +0.000 C 
ENDBRANCH  15  17
ENDBRANCH  13  15
ENDBRANCH   1  13
BRANCH   3  18
ATOM     18  C   UNL     1       1.563   9.942  18.044  0.00  0.00    +0.000 C 
ATOM     19  N   UNL     1       1.835   8.912  17.579  0.00  0.00    +0.000 NA
ENDBRANCH   3  18
BRANCH   4  20
ATOM     20  O   UNL     1      -1.033  10.607  18.914  0.00  0.00    +0.000 OA
BRANCH  20  21
ATOM     21  C   UNL     1      -2.071  10.730  18.013  0.00  0.00    +0.000 A 
ATOM     22  C   UNL     1      -1.932  10.019  16.820  0.00  0.00    +0.000 A 
ATOM     23  C   UNL     1      -2.955  10.027  15.871  0.00  0.00    +0.000 A 
ATOM     24  C   UNL     1      -4.133  10.732  16.117  0.00  0.00    +0.000 A 
ATOM     25  C   UNL     1      -4.303  11.432  17.321  0.00  0.00    +0.000 A 
ATOM     26  C   UNL     1      -3.260  11.424  18.268  0.00  0.00    +0.000 A 
BRANCH  25  27
ATOM     27  C   UNL     1      -5.582  12.180  17.611  0.00  0.00    +0.000 C 
ATOM     28  F   UNL     1      -6.674  11.374  17.718  0.00  0.00    +0.000 F 
ATOM     29  F   UNL     1      -5.521  12.877  18.781  0.00  0.00    +0.000 F 
ATOM     30  F   UNL     1      -5.885  13.092  16.648  0.00  0.00    +0.000 F 
ENDBRANCH  25  27
ENDBRANCH  20  21
ENDBRANCH   4  20
TORSDOF 8
ENDMDL
MODEL 9
REMARK VINA RESULT:      -6.4      7.975     11.139
REMARK  Name = 
REMARK  9 active torsions:
REMARK  status: ('A' for Active; 'I' for Inactive)
REMARK    1  A    between atoms: C_1  and  C_2
REMARK    2  A    between atoms: C_2  and  O_3
REMARK    3  A    between atoms: O_3  and  C_4
REMARK    4  A    between atoms: C_4  and  C_6
REMARK    5  A    between atoms: C_8  and  C_9
REMARK    6  A    between atoms: C_11  and  O_12
REMARK    7  A    between atoms: O_12  and  C_13
REMARK    8  A    between atoms: C_17  and  C_18
REMARK    9  A    between atoms: C_24  and  C_25
REMARK                            x       y       z     vdW  Elec       q    Type
REMARK                         _______ _______ _______ _____ _____    ______ ____
ROOT
ATOM      1  C   UNL     1      -3.916  13.215  22.755  0.00  0.00    +0.000 A 
ATOM      2  C   UNL     1      -3.064  12.191  23.191  0.00  0.00    +0.000 A 
ATOM      3  C   UNL     1      -1.834  11.999  22.560  0.00  0.00    +0.000 A 
ATOM      4  C   UNL     1      -1.537  12.806  21.473  0.00  0.00    +0.000 A 
ATOM      5  N   UNL     1      -2.302  13.861  21.102  0.00  0.00    +0.000 NA
ATOM      6  C   UNL     1      -3.475  14.092  21.756  0.00  0.00    +0.000 A 
ENDROOT
BRANCH   6   7
ATOM      7  C   UNL     1      -4.150  15.350  21.352  0.00  0.00    +0.000 A 
ATOM      8  C   UNL     1      -5.121  15.355  20.333  0.00  0.00    +0.000 A 
ATOM      9  C   UNL     1      -5.769  16.533  19.947  0.00  0.00    +0.000 A 
ATOM     10  C   UNL     1      -5.465  17.736  20.577  0.00  0.00    +0.000 A 
ATOM     11  C   UNL     1      -4.488  17.768  21.564  0.00  0.00    +0.000 A 
ATOM     12  C   UNL     1      -3.821  16.596  21.924  0.00  0.00    +0.000 A 
ENDBRANCH   6   7
BRANCH   1  13
ATOM     13  C   UNL     1      -5.300  13.278  23.264  0.00  0.00    +0.000 C 
ATOM     14  O   UNL     1      -5.724  14.193  23.945  0.00  0.00    +0.000 OA
BRANCH  13  15
ATOM     15  O   UNL     1      -5.992  12.178  22.877  0.00  0.00    +0.000 OA
BRANCH  15  17
ATOM     16  C   UNL     1      -7.192  12.318  20.747  0.00  0.00    +0.000 C 
ATOM     17  C   UNL     1      -7.262  12.454  22.258  0.00  0.00    +0.000 C 
ENDBRANCH  15  17
ENDBRANCH  13  15
ENDBRANCH   1  13
BRANCH   3  18
ATOM     18  C   UNL     1      -0.936  10.991  23.027  0.00  0.00    +0.000 C 
ATOM     19  N   UNL     1      -0.245  10.160  23.454  0.00  0.00    +0.000 NA
ENDBRANCH   3  18
BRANCH   4  20
ATOM     20  O   UNL     1      -0.385  12.549  20.746  0.00  0.00    +0.000 OA
BRANCH  20  21
ATOM     21  C   UNL     1      -0.459  11.646  19.704  0.00  0.00    +0.000 A 
ATOM     22  C   UNL     1       0.720  10.963  19.403  0.00  0.00    +0.000 A 
ATOM     23  C   UNL     1       0.733   9.983  18.409  0.00  0.00    +0.000 A 
ATOM     24  C   UNL     1      -0.439   9.668  17.721  0.00  0.00    +0.000 A 
ATOM     25  C   UNL     1      -1.640  10.326  18.027  0.00  0.00    +0.000 A 
ATOM     26  C   UNL     1      -1.639  11.318  19.026  0.00  0.00    +0.000 A 
BRANCH  25  27
ATOM     27  C   UNL     1      -2.920   9.977  17.307  0.00  0.00    +0.000 C 
ATOM     28  F   UNL     1      -2.725   9.470  16.059  0.00  0.00    +0.000 F 
ATOM     29  F   UNL     1      -3.653   9.042  17.976  0.00  0.00    +0.000 F 
ATOM     30  F   UNL     1      -3.741  11.051  17.149  0.00  0.00    +0.000 F 
ENDBRANCH  25  27
ENDBRANCH  20  21
ENDBRANCH   4  20
TORSDOF 8
ENDMDL
