MODEL 1
REMARK VINA RESULT:      -6.7      0.000      0.000
REMARK  Name = 
REMARK  12 active torsions:
REMARK  status: ('A' for Active; 'I' for Inactive)
REMARK    1  A    between atoms: C_1  and  N_2
REMARK    2  A    between atoms: C_5  and  S_6
REMARK    3  A    between atoms: S_6  and  C_7
REMARK    4  A    between atoms: C_7  and  N_9
REMARK    5  A    between atoms: N_9  and  C_10
REMARK    6  A    between atoms: C_10  and  C_11
REMARK    7  A    between atoms: C_11  and  C_12
REMARK    8  A    between atoms: C_12  and  C_13
REMARK    9  A    between atoms: C_13  and  N_14
REMARK   10  A    between atoms: C_15  and  O_17
REMARK   11  A    between atoms: O_17  and  C_18
REMARK   12  A    between atoms: C_18  and  C_19
REMARK                            x       y       z     vdW  Elec       q    Type
REMARK                         _______ _______ _______ _____ _____    ______ ____
ROOT
ATOM      1  C   UNL     1       8.150   7.905  18.345  0.00  0.00    +0.000 C 
ENDROOT
BRANCH   1   2
ATOM      2  C   UNL     1       8.226   9.367  17.870  0.00  0.00    +0.000 C 
BRANCH   2   3
ATOM      3  C   UNL     1       9.158  10.196  18.757  0.00  0.00    +0.000 C 
BRANCH   3   4
ATOM      4  N   UNL     1       9.994  11.154  18.051  0.00  0.00    +0.000 N 
ATOM      5  H   UNL     1       9.926  11.228  17.043  0.00  0.00    +0.000 HD
BRANCH   4   6
ATOM      6  C   UNL     1      10.764  12.118  18.670  0.00  0.00    +0.000 C 
ATOM      7  S   UNL     1      11.712  13.261  17.903  0.00  0.00    +0.000 S 
BRANCH   6   8
ATOM      8  S   UNL     1      10.660  11.921  20.412  0.00  0.00    +0.000 S 
BRANCH   8  13
ATOM      9  C   UNL     1       6.485  15.894  22.253  0.00  0.00    +0.000 C 
ATOM     10  N   UNL     1       7.265  14.735  21.810  0.00  0.00    +0.000 NA
ATOM     11  C   UNL     1       7.776  14.941  20.448  0.00  0.00    +0.000 C 
ATOM     12  C   UNL     1       8.594  13.741  19.957  0.00  0.00    +0.000 C 
ATOM     13  C   UNL     1       9.736  13.426  20.925  0.00  0.00    +0.000 C 
ATOM     14  C   UNL     1       9.149  13.223  22.329  0.00  0.00    +0.000 C 
ATOM     15  C   UNL     1       8.353  14.461  22.757  0.00  0.00    +0.000 C 
ENDBRANCH   8  13
ENDBRANCH   6   8
ENDBRANCH   4   6
ENDBRANCH   3   4
ENDBRANCH   2   3
ENDBRANCH   1   2
BRANCH   1  16
ATOM     16  C   UNL     1       7.293   7.019  17.433  0.00  0.00    +0.000 C 
BRANCH  16  17
ATOM     17  N   UNL     1       6.817   5.830  18.102  0.00  0.00    +0.000 N 
ATOM     18  C   UNL     1       5.529   5.409  17.978  0.00  0.00    +0.000 C 
ATOM     19  O   UNL     1       4.697   5.956  17.264  0.00  0.00    +0.000 OA
ATOM     20  H   UNL     1       7.409   5.319  18.743  0.00  0.00    +0.000 HD
BRANCH  18  21
ATOM     21  O   UNL     1       5.306   4.325  18.752  0.00  0.00    +0.000 OA
BRANCH  21  22
ATOM     22  C   UNL     1       4.319   3.413  18.250  0.00  0.00    +0.000 C 
BRANCH  22  23
ATOM     23  C   UNL     1       3.218   3.269  19.269  0.00  0.00    +0.000 A 
ATOM     24  C   UNL     1       3.516   2.665  20.505  0.00  0.00    +0.000 A 
ATOM     25  C   UNL     1       2.541   2.544  21.496  0.00  0.00    +0.000 A 
ATOM     26  C   UNL     1       1.257   3.031  21.271  0.00  0.00    +0.000 A 
ATOM     27  C   UNL     1       0.944   3.626  20.050  0.00  0.00    +0.000 A 
ATOM     28  C   UNL     1       1.917   3.746  19.052  0.00  0.00    +0.000 A 
ATOM     29 CL   UNL     1       1.447   4.484  17.564  0.00  0.00    +0.000 Cl
ENDBRANCH  22  23
ENDBRANCH  21  22
ENDBRANCH  18  21
ENDBRANCH  16  17
ENDBRANCH   1  16
TORSDOF 11
ENDMDL
MODEL 2
REMARK VINA RESULT:      -6.6      5.344      6.052
REMARK  Name = 
REMARK  12 active torsions:
REMARK  status: ('A' for Active; 'I' for Inactive)
REMARK    1  A    between atoms: C_1  and  N_2
REMARK    2  A    between atoms: C_5  and  S_6
REMARK    3  A    between atoms: S_6  and  C_7
REMARK    4  A    between atoms: C_7  and  N_9
REMARK    5  A    between atoms: N_9  and  C_10
REMARK    6  A    between atoms: C_10  and  C_11
REMARK    7  A    between atoms: C_11  and  C_12
REMARK    8  A    between atoms: C_12  and  C_13
REMARK    9  A    between atoms: C_13  and  N_14
REMARK   10  A    between atoms: C_15  and  O_17
REMARK   11  A    between atoms: O_17  and  C_18
REMARK   12  A    between atoms: C_18  and  C_19
REMARK                            x       y       z     vdW  Elec       q    Type
REMARK                         _______ _______ _______ _____ _____    ______ ____
ROOT
ATOM      1  C   UNL     1       3.418   7.504  17.791  0.00  0.00    +0.000 C 
ENDROOT
BRANCH   1   2
ATOM      2  C   UNL     1       2.810   7.135  19.156  0.00  0.00    +0.000 C 
BRANCH   2   3
ATOM      3  C   UNL     1       1.650   8.065  19.522  0.00  0.00    +0.000 C 
BRANCH   3   4
ATOM      4  N   UNL     1       1.577   8.441  20.924  0.00  0.00    +0.000 N 
ATOM      5  H   UNL     1       2.313   8.152  21.558  0.00  0.00    +0.000 HD
BRANCH   4   6
ATOM      6  C   UNL     1       0.659   9.330  21.443  0.00  0.00    +0.000 C 
ATOM      7  S   UNL     1       0.149   9.402  23.033  0.00  0.00    +0.000 S 
BRANCH   6   8
ATOM      8  S   UNL     1       0.034  10.346  20.154  0.00  0.00    +0.000 S 
BRANCH   8  13
ATOM      9  C   UNL     1       2.370  15.925  20.010  0.00  0.00    +0.000 C 
ATOM     10  N   UNL     1       1.561  14.707  19.923  0.00  0.00    +0.000 NA
ATOM     11  C   UNL     1       2.169  13.743  18.995  0.00  0.00    +0.000 C 
ATOM     12  C   UNL     1       1.340  12.459  18.881  0.00  0.00    +0.000 C 
ATOM     13  C   UNL     1       1.121  11.827  20.256  0.00  0.00    +0.000 C 
ATOM     14  C   UNL     1       0.488  12.874  21.184  0.00  0.00    +0.000 C 
ATOM     15  C   UNL     1       1.371  14.123  21.256  0.00  0.00    +0.000 C 
ENDBRANCH   8  13
ENDBRANCH   6   8
ENDBRANCH   4   6
ENDBRANCH   3   4
ENDBRANCH   2   3
ENDBRANCH   1   2
BRANCH   1  16
ATOM     16  C   UNL     1       4.773   6.833  17.534  0.00  0.00    +0.000 C 
BRANCH  16  17
ATOM     17  N   UNL     1       4.764   5.424  17.852  0.00  0.00    +0.000 N 
ATOM     18  C   UNL     1       5.523   4.915  18.861  0.00  0.00    +0.000 C 
ATOM     19  O   UNL     1       6.218   5.597  19.604  0.00  0.00    +0.000 OA
ATOM     20  H   UNL     1       4.252   4.763  17.283  0.00  0.00    +0.000 HD
BRANCH  18  21
ATOM     21  O   UNL     1       5.403   3.571  18.914  0.00  0.00    +0.000 OA
BRANCH  21  22
ATOM     22  C   UNL     1       4.200   3.045  18.337  0.00  0.00    +0.000 C 
BRANCH  22  23
ATOM     23  C   UNL     1       3.112   3.048  19.380  0.00  0.00    +0.000 A 
ATOM     24  C   UNL     1       3.396   2.519  20.653  0.00  0.00    +0.000 A 
ATOM     25  C   UNL     1       2.434   2.533  21.665  0.00  0.00    +0.000 A 
ATOM     26  C   UNL     1       1.179   3.083  21.423  0.00  0.00    +0.000 A 
ATOM     27  C   UNL     1       0.880   3.605  20.166  0.00  0.00    +0.000 A 
ATOM     28  C   UNL     1       1.839   3.589  19.147  0.00  0.00    +0.000 A 
ATOM     29 CL   UNL     1       1.387   4.243  17.615  0.00  0.00    +0.000 Cl
ENDBRANCH  22  23
ENDBRANCH  21  22
ENDBRANCH  18  21
ENDBRANCH  16  17
ENDBRANCH   1  16
TORSDOF 11
ENDMDL
MODEL 3
REMARK VINA RESULT:      -6.5      2.503      3.056
REMARK  Name = 
REMARK  12 active torsions:
REMARK  status: ('A' for Active; 'I' for Inactive)
REMARK    1  A    between atoms: C_1  and  N_2
REMARK    2  A    between atoms: C_5  and  S_6
REMARK    3  A    between atoms: S_6  and  C_7
REMARK    4  A    between atoms: C_7  and  N_9
REMARK    5  A    between atoms: N_9  and  C_10
REMARK    6  A    between atoms: C_10  and  C_11
REMARK    7  A    between atoms: C_11  and  C_12
REMARK    8  A    between atoms: C_12  and  C_13
REMARK    9  A    between atoms: C_13  and  N_14
REMARK   10  A    between atoms: C_15  and  O_17
REMARK   11  A    between atoms: O_17  and  C_18
REMARK   12  A    between atoms: C_18  and  C_19
REMARK                            x       y       z     vdW  Elec       q    Type
REMARK                         _______ _______ _______ _____ _____    ______ ____
ROOT
ATOM      1  C   UNL     1       7.929   8.639  17.937  0.00  0.00    +0.000 C 
ENDROOT
BRANCH   1   2
ATOM      2  C   UNL     1       8.856   9.601  18.702  0.00  0.00    +0.000 C 
BRANCH   2   3
ATOM      3  C   UNL     1       8.805  11.013  18.114  0.00  0.00    +0.000 C 
BRANCH   3   4
ATOM      4  N   UNL     1      10.052  11.758  18.185  0.00  0.00    +0.000 N 
ATOM      5  H   UNL     1      10.504  12.058  17.329  0.00  0.00    +0.000 HD
BRANCH   4   6
ATOM      6  C   UNL     1      10.593  12.258  19.352  0.00  0.00    +0.000 C 
ATOM      7  S   UNL     1       9.789  12.456  20.803  0.00  0.00    +0.000 S 
BRANCH   6   8
ATOM      8  S   UNL     1      12.260  12.734  19.066  0.00  0.00    +0.000 S 
BRANCH   8  13
ATOM      9  C   UNL     1      10.213  18.203  17.483  0.00  0.00    +0.000 C 
ATOM     10  N   UNL     1      10.416  16.802  17.862  0.00  0.00    +0.000 NA
ATOM     11  C   UNL     1      11.173  16.087  16.826  0.00  0.00    +0.000 C 
ATOM     12  C   UNL     1      11.396  14.616  17.195  0.00  0.00    +0.000 C 
ATOM     13  C   UNL     1      12.085  14.493  18.555  0.00  0.00    +0.000 C 
ATOM     14  C   UNL     1      11.256  15.257  19.597  0.00  0.00    +0.000 C 
ATOM     15  C   UNL     1      11.079  16.718  19.168  0.00  0.00    +0.000 C 
ENDBRANCH   8  13
ENDBRANCH   6   8
ENDBRANCH   4   6
ENDBRANCH   3   4
ENDBRANCH   2   3
ENDBRANCH   1   2
BRANCH   1  16
ATOM     16  C   UNL     1       8.169   7.166  18.286  0.00  0.00    +0.000 C 
BRANCH  16  17
ATOM     17  N   UNL     1       6.986   6.354  18.115  0.00  0.00    +0.000 N 
ATOM     18  C   UNL     1       6.684   5.776  16.920  0.00  0.00    +0.000 C 
ATOM     19  O   UNL     1       7.398   5.846  15.927  0.00  0.00    +0.000 OA
ATOM     20  H   UNL     1       6.308   6.255  18.859  0.00  0.00    +0.000 HD
BRANCH  18  21
ATOM     21  O   UNL     1       5.498   5.134  16.989  0.00  0.00    +0.000 OA
BRANCH  21  22
ATOM     22  C   UNL     1       5.295   4.359  18.180  0.00  0.00    +0.000 C 
BRANCH  22  23
ATOM     23  C   UNL     1       3.856   3.916  18.239  0.00  0.00    +0.000 A 
ATOM     24  C   UNL     1       3.539   2.599  17.856  0.00  0.00    +0.000 A 
ATOM     25  C   UNL     1       2.227   2.127  17.929  0.00  0.00    +0.000 A 
ATOM     26  C   UNL     1       1.214   2.961  18.393  0.00  0.00    +0.000 A 
ATOM     27  C   UNL     1       1.511   4.270  18.771  0.00  0.00    +0.000 A 
ATOM     28  C   UNL     1       2.824   4.748  18.694  0.00  0.00    +0.000 A 
ATOM     29 CL   UNL     1       3.106   6.384  19.168  0.00  0.00    +0.000 Cl
ENDBRANCH  22  23
ENDBRANCH  21  22
ENDBRANCH  18  21
ENDBRANCH  16  17
ENDBRANCH   1  16
TORSDOF 11
ENDMDL
MODEL 4
REMARK VINA RESULT:      -6.4      2.175      2.650
REMARK  Name = 
REMARK  12 active torsions:
REMARK  status: ('A' for Active; 'I' for Inactive)
REMARK    1  A    between atoms: C_1  and  N_2
REMARK    2  A    between atoms: C_5  and  S_6
REMARK    3  A    between atoms: S_6  and  C_7
REMARK    4  A    between atoms: C_7  and  N_9
REMARK    5  A    between atoms: N_9  and  C_10
REMARK    6  A    between atoms: C_10  and  C_11
REMARK    7  A    between atoms: C_11  and  C_12
REMARK    8  A    between atoms: C_12  and  C_13
REMARK    9  A    between atoms: C_13  and  N_14
REMARK   10  A    between atoms: C_15  and  O_17
REMARK   11  A    between atoms: O_17  and  C_18
REMARK   12  A    between atoms: C_18  and  C_19
REMARK                            x       y       z     vdW  Elec       q    Type
REMARK                         _______ _______ _______ _____ _____    ______ ____
ROOT
ATOM      1  C   UNL     1       8.007   7.117  18.384  0.00  0.00    +0.000 C 
ENDROOT
BRANCH   1   2
ATOM      2  C   UNL     1       8.012   8.570  17.874  0.00  0.00    +0.000 C 
BRANCH   2   3
ATOM      3  C   UNL     1       8.954   9.449  18.701  0.00  0.00    +0.000 C 
BRANCH   3   4
ATOM      4  N   UNL     1       8.620  10.864  18.721  0.00  0.00    +0.000 N 
ATOM      5  H   UNL     1       7.860  11.189  19.306  0.00  0.00    +0.000 HD
BRANCH   4   6
ATOM      6  C   UNL     1       9.384  11.851  18.132  0.00  0.00    +0.000 C 
ATOM      7  S   UNL     1      11.041  11.815  17.916  0.00  0.00    +0.000 S 
BRANCH   6   8
ATOM      8  S   UNL     1       8.356  13.209  17.703  0.00  0.00    +0.000 S 
BRANCH   8  13
ATOM      9  C   UNL     1       9.916  18.585  19.998  0.00  0.00    +0.000 C 
ATOM     10  N   UNL     1       9.378  17.449  19.245  0.00  0.00    +0.000 NA
ATOM     11  C   UNL     1      10.457  16.712  18.573  0.00  0.00    +0.000 C 
ATOM     12  C   UNL     1       9.921  15.519  17.773  0.00  0.00    +0.000 C 
ATOM     13  C   UNL     1       9.101  14.587  18.667  0.00  0.00    +0.000 C 
ATOM     14  C   UNL     1       7.993  15.406  19.346  0.00  0.00    +0.000 C 
ATOM     15  C   UNL     1       8.599  16.574  20.130  0.00  0.00    +0.000 C 
ENDBRANCH   8  13
ENDBRANCH   6   8
ENDBRANCH   4   6
ENDBRANCH   3   4
ENDBRANCH   2   3
ENDBRANCH   1   2
BRANCH   1  16
ATOM     16  C   UNL     1       7.338   6.140  17.410  0.00  0.00    +0.000 C 
BRANCH  16  17
ATOM     17  N   UNL     1       5.920   5.999  17.650  0.00  0.00    +0.000 N 
ATOM     18  C   UNL     1       4.999   6.359  16.715  0.00  0.00    +0.000 C 
ATOM     19  O   UNL     1       5.284   6.771  15.598  0.00  0.00    +0.000 OA
ATOM     20  H   UNL     1       5.570   5.700  18.551  0.00  0.00    +0.000 HD
BRANCH  18  21
ATOM     21  O   UNL     1       3.747   6.206  17.199  0.00  0.00    +0.000 OA
BRANCH  21  22
ATOM     22  C   UNL     1       3.672   5.813  18.577  0.00  0.00    +0.000 C 
BRANCH  22  23
ATOM     23  C   UNL     1       2.773   4.608  18.696  0.00  0.00    +0.000 A 
ATOM     24  C   UNL     1       2.942   3.548  17.785  0.00  0.00    +0.000 A 
ATOM     25  C   UNL     1       2.161   2.394  17.877  0.00  0.00    +0.000 A 
ATOM     26  C   UNL     1       1.208   2.278  18.885  0.00  0.00    +0.000 A 
ATOM     27  C   UNL     1       1.025   3.322  19.791  0.00  0.00    +0.000 A 
ATOM     28  C   UNL     1       1.802   4.482  19.699  0.00  0.00    +0.000 A 
ATOM     29 CL   UNL     1       1.506   5.734  20.851  0.00  0.00    +0.000 Cl
ENDBRANCH  22  23
ENDBRANCH  21  22
ENDBRANCH  18  21
ENDBRANCH  16  17
ENDBRANCH   1  16
TORSDOF 11
ENDMDL
MODEL 5
REMARK VINA RESULT:      -6.4      1.629      2.135
REMARK  Name = 
REMARK  12 active torsions:
REMARK  status: ('A' for Active; 'I' for Inactive)
REMARK    1  A    between atoms: C_1  and  N_2
REMARK    2  A    between atoms: C_5  and  S_6
REMARK    3  A    between atoms: S_6  and  C_7
REMARK    4  A    between atoms: C_7  and  N_9
REMARK    5  A    between atoms: N_9  and  C_10
REMARK    6  A    between atoms: C_10  and  C_11
REMARK    7  A    between atoms: C_11  and  C_12
REMARK    8  A    between atoms: C_12  and  C_13
REMARK    9  A    between atoms: C_13  and  N_14
REMARK   10  A    between atoms: C_15  and  O_17
REMARK   11  A    between atoms: O_17  and  C_18
REMARK   12  A    between atoms: C_18  and  C_19
REMARK                            x       y       z     vdW  Elec       q    Type
REMARK                         _______ _______ _______ _____ _____    ______ ____
ROOT
ATOM      1  C   UNL     1       7.508   8.346  17.567  0.00  0.00    +0.000 C 
ENDROOT
BRANCH   1   2
ATOM      2  C   UNL     1       8.237   9.656  17.922  0.00  0.00    +0.000 C 
BRANCH   2   3
ATOM      3  C   UNL     1       9.124   9.484  19.157  0.00  0.00    +0.000 C 
BRANCH   3   4
ATOM      4  N   UNL     1       9.288  10.678  19.972  0.00  0.00    +0.000 N 
ATOM      5  H   UNL     1       8.790  10.754  20.852  0.00  0.00    +0.000 HD
BRANCH   4   6
ATOM      6  C   UNL     1      10.222  11.663  19.728  0.00  0.00    +0.000 C 
ATOM      7  S   UNL     1      11.381  11.643  18.524  0.00  0.00    +0.000 S 
BRANCH   6   8
ATOM      8  S   UNL     1      10.065  12.931  20.933  0.00  0.00    +0.000 S 
BRANCH   8  13
ATOM      9  C   UNL     1       5.932  16.832  18.859  0.00  0.00    +0.000 C 
ATOM     10  N   UNL     1       7.126  16.116  19.315  0.00  0.00    +0.000 NA
ATOM     11  C   UNL     1       7.019  15.782  20.742  0.00  0.00    +0.000 C 
ATOM     12  C   UNL     1       8.259  15.035  21.248  0.00  0.00    +0.000 C 
ATOM     13  C   UNL     1       8.518  13.780  20.413  0.00  0.00    +0.000 C 
ATOM     14  C   UNL     1       8.618  14.184  18.935  0.00  0.00    +0.000 C 
ATOM     15  C   UNL     1       7.346  14.917  18.497  0.00  0.00    +0.000 C 
ENDBRANCH   8  13
ENDBRANCH   6   8
ENDBRANCH   4   6
ENDBRANCH   3   4
ENDBRANCH   2   3
ENDBRANCH   1   2
BRANCH   1  16
ATOM     16  C   UNL     1       8.009   7.142  18.372  0.00  0.00    +0.000 C 
BRANCH  16  17
ATOM     17  N   UNL     1       7.053   6.058  18.403  0.00  0.00    +0.000 N 
ATOM     18  C   UNL     1       7.025   5.104  17.434  0.00  0.00    +0.000 C 
ATOM     19  O   UNL     1       7.821   5.049  16.505  0.00  0.00    +0.000 OA
ATOM     20  H   UNL     1       6.326   6.023  19.106  0.00  0.00    +0.000 HD
BRANCH  18  21
ATOM     21  O   UNL     1       6.001   4.247  17.640  0.00  0.00    +0.000 OA
BRANCH  21  22
ATOM     22  C   UNL     1       5.303   4.422  18.882  0.00  0.00    +0.000 C 
BRANCH  22  23
ATOM     23  C   UNL     1       3.882   3.949  18.718  0.00  0.00    +0.000 A 
ATOM     24  C   UNL     1       3.574   2.613  19.037  0.00  0.00    +0.000 A 
ATOM     25  C   UNL     1       2.265   2.137  18.939  0.00  0.00    +0.000 A 
ATOM     26  C   UNL     1       1.244   2.990  18.530  0.00  0.00    +0.000 A 
ATOM     27  C   UNL     1       1.534   4.314  18.204  0.00  0.00    +0.000 A 
ATOM     28  C   UNL     1       2.845   4.794  18.297  0.00  0.00    +0.000 A 
ATOM     29 CL   UNL     1       3.123   6.442  17.864  0.00  0.00    +0.000 Cl
ENDBRANCH  22  23
ENDBRANCH  21  22
ENDBRANCH  18  21
ENDBRANCH  16  17
ENDBRANCH   1  16
TORSDOF 11
ENDMDL
MODEL 6
REMARK VINA RESULT:      -6.4      1.997      2.380
REMARK  Name = 
REMARK  12 active torsions:
REMARK  status: ('A' for Active; 'I' for Inactive)
REMARK    1  A    between atoms: C_1  and  N_2
REMARK    2  A    between atoms: C_5  and  S_6
REMARK    3  A    between atoms: S_6  and  C_7
REMARK    4  A    between atoms: C_7  and  N_9
REMARK    5  A    between atoms: N_9  and  C_10
REMARK    6  A    between atoms: C_10  and  C_11
REMARK    7  A    between atoms: C_11  and  C_12
REMARK    8  A    between atoms: C_12  and  C_13
REMARK    9  A    between atoms: C_13  and  N_14
REMARK   10  A    between atoms: C_15  and  O_17
REMARK   11  A    between atoms: O_17  and  C_18
REMARK   12  A    between atoms: C_18  and  C_19
REMARK                            x       y       z     vdW  Elec       q    Type
REMARK                         _______ _______ _______ _____ _____    ______ ____
ROOT
ATOM      1  C   UNL     1       8.057   8.163  18.509  0.00  0.00    +0.000 C 
ENDROOT
BRANCH   1   2
ATOM      2  C   UNL     1       8.294   9.452  17.701  0.00  0.00    +0.000 C 
BRANCH   2   3
ATOM      3  C   UNL     1       9.355  10.338  18.358  0.00  0.00    +0.000 C 
BRANCH   3   4
ATOM      4  N   UNL     1       9.253  10.457  19.804  0.00  0.00    +0.000 N 
ATOM      5  H   UNL     1       8.934   9.664  20.349  0.00  0.00    +0.000 HD
BRANCH   4   6
ATOM      6  C   UNL     1       9.732  11.527  20.531  0.00  0.00    +0.000 C 
ATOM      7  S   UNL     1       8.962  12.266  21.817  0.00  0.00    +0.000 S 
BRANCH   6   8
ATOM      8  S   UNL     1      11.261  12.059  19.851  0.00  0.00    +0.000 S 
BRANCH   8  13
ATOM      9  C   UNL     1       8.918  17.571  18.994  0.00  0.00    +0.000 C 
ATOM     10  N   UNL     1       9.265  16.210  19.408  0.00  0.00    +0.000 NA
ATOM     11  C   UNL     1       9.078  15.264  18.300  0.00  0.00    +0.000 C 
ATOM     12  C   UNL     1       9.430  13.829  18.707  0.00  0.00    +0.000 C 
ATOM     13  C   UNL     1      10.858  13.752  19.252  0.00  0.00    +0.000 C 
ATOM     14  C   UNL     1      10.999  14.758  20.404  0.00  0.00    +0.000 C 
ATOM     15  C   UNL     1      10.639  16.168  19.924  0.00  0.00    +0.000 C 
ENDBRANCH   8  13
ENDBRANCH   6   8
ENDBRANCH   4   6
ENDBRANCH   3   4
ENDBRANCH   2   3
ENDBRANCH   1   2
BRANCH   1  16
ATOM     16  C   UNL     1       7.804   6.936  17.624  0.00  0.00    +0.000 C 
BRANCH  16  17
ATOM     17  N   UNL     1       6.657   6.168  18.055  0.00  0.00    +0.000 N 
ATOM     18  C   UNL     1       6.682   5.430  19.197  0.00  0.00    +0.000 C 
ATOM     19  O   UNL     1       7.632   5.396  19.969  0.00  0.00    +0.000 OA
ATOM     20  H   UNL     1       5.830   6.097  17.477  0.00  0.00    +0.000 HD
BRANCH  18  21
ATOM     21  O   UNL     1       5.527   4.746  19.346  0.00  0.00    +0.000 OA
BRANCH  21  22
ATOM     22  C   UNL     1       4.340   5.552  19.347  0.00  0.00    +0.000 C 
BRANCH  22  23
ATOM     23  C   UNL     1       3.135   4.653  19.453  0.00  0.00    +0.000 A 
ATOM     24  C   UNL     1       2.386   4.665  20.645  0.00  0.00    +0.000 A 
ATOM     25  C   UNL     1       1.240   3.879  20.779  0.00  0.00    +0.000 A 
ATOM     26  C   UNL     1       0.820   3.077  19.723  0.00  0.00    +0.000 A 
ATOM     27  C   UNL     1       1.554   3.049  18.538  0.00  0.00    +0.000 A 
ATOM     28  C   UNL     1       2.706   3.832  18.401  0.00  0.00    +0.000 A 
ATOM     29 CL   UNL     1       3.565   3.731  16.907  0.00  0.00    +0.000 Cl
ENDBRANCH  22  23
ENDBRANCH  21  22
ENDBRANCH  18  21
ENDBRANCH  16  17
ENDBRANCH   1  16
TORSDOF 11
ENDMDL
MODEL 7
REMARK VINA RESULT:      -6.3      1.886      2.316
REMARK  Name = 
REMARK  12 active torsions:
REMARK  status: ('A' for Active; 'I' for Inactive)
REMARK    1  A    between atoms: C_1  and  N_2
REMARK    2  A    between atoms: C_5  and  S_6
REMARK    3  A    between atoms: S_6  and  C_7
REMARK    4  A    between atoms: C_7  and  N_9
REMARK    5  A    between atoms: N_9  and  C_10
REMARK    6  A    between atoms: C_10  and  C_11
REMARK    7  A    between atoms: C_11  and  C_12
REMARK    8  A    between atoms: C_12  and  C_13
REMARK    9  A    between atoms: C_13  and  N_14
REMARK   10  A    between atoms: C_15  and  O_17
REMARK   11  A    between atoms: O_17  and  C_18
REMARK   12  A    between atoms: C_18  and  C_19
REMARK                            x       y       z     vdW  Elec       q    Type
REMARK                         _______ _______ _______ _____ _____    ______ ____
ROOT
ATOM      1  C   UNL     1       8.045   8.491  17.595  0.00  0.00    +0.000 C 
ENDROOT
BRANCH   1   2
ATOM      2  C   UNL     1       8.696   9.243  18.770  0.00  0.00    +0.000 C 
BRANCH   2   3
ATOM      3  C   UNL     1       9.217  10.616  18.336  0.00  0.00    +0.000 C 
BRANCH   3   4
ATOM      4  N   UNL     1      10.441  11.049  18.991  0.00  0.00    +0.000 N 
ATOM      5  H   UNL     1      11.335  10.728  18.640  0.00  0.00    +0.000 HD
BRANCH   4   6
ATOM      6  C   UNL     1      10.497  12.024  19.965  0.00  0.00    +0.000 C 
ATOM      7  S   UNL     1       9.524  12.119  21.320  0.00  0.00    +0.000 S 
BRANCH   6   8
ATOM      8  S   UNL     1      11.711  13.217  19.530  0.00  0.00    +0.000 S 
BRANCH   8  13
ATOM      9  C   UNL     1       7.335  17.331  18.800  0.00  0.00    +0.000 C 
ATOM     10  N   UNL     1       8.188  16.192  19.146  0.00  0.00    +0.000 NA
ATOM     11  C   UNL     1       8.530  15.413  17.948  0.00  0.00    +0.000 C 
ATOM     12  C   UNL     1       9.419  14.211  18.283  0.00  0.00    +0.000 C 
ATOM     13  C   UNL     1      10.684  14.656  19.020  0.00  0.00    +0.000 C 
ATOM     14  C   UNL     1      10.271  15.465  20.259  0.00  0.00    +0.000 C 
ATOM     15  C   UNL     1       9.392  16.651  19.850  0.00  0.00    +0.000 C 
ENDBRANCH   8  13
ENDBRANCH   6   8
ENDBRANCH   4   6
ENDBRANCH   3   4
ENDBRANCH   2   3
ENDBRANCH   1   2
BRANCH   1  16
ATOM     16  C   UNL     1       7.615   7.065  17.958  0.00  0.00    +0.000 C 
BRANCH  16  17
ATOM     17  N   UNL     1       6.204   6.838  17.745  0.00  0.00    +0.000 N 
ATOM     18  C   UNL     1       5.695   5.583  17.608  0.00  0.00    +0.000 C 
ATOM     19  O   UNL     1       6.362   4.561  17.707  0.00  0.00    +0.000 OA
ATOM     20  H   UNL     1       5.565   7.611  17.614  0.00  0.00    +0.000 HD
BRANCH  18  21
ATOM     21  O   UNL     1       4.372   5.633  17.344  0.00  0.00    +0.000 OA
BRANCH  21  22
ATOM     22  C   UNL     1       3.719   4.357  17.269  0.00  0.00    +0.000 C 
BRANCH  22  23
ATOM     23  C   UNL     1       2.982   4.105  18.560  0.00  0.00    +0.000 A 
ATOM     24  C   UNL     1       2.372   5.193  19.212  0.00  0.00    +0.000 A 
ATOM     25  C   UNL     1       1.645   5.006  20.390  0.00  0.00    +0.000 A 
ATOM     26  C   UNL     1       1.511   3.729  20.928  0.00  0.00    +0.000 A 
ATOM     27  C   UNL     1       2.115   2.643  20.297  0.00  0.00    +0.000 A 
ATOM     28  C   UNL     1       2.847   2.827  19.119  0.00  0.00    +0.000 A 
ATOM     29 CL   UNL     1       3.574   1.432  18.406  0.00  0.00    +0.000 Cl
ENDBRANCH  22  23
ENDBRANCH  21  22
ENDBRANCH  18  21
ENDBRANCH  16  17
ENDBRANCH   1  16
TORSDOF 11
ENDMDL
MODEL 8
REMARK VINA RESULT:      -6.3      3.033      3.808
REMARK  Name = 
REMARK  12 active torsions:
REMARK  status: ('A' for Active; 'I' for Inactive)
REMARK    1  A    between atoms: C_1  and  N_2
REMARK    2  A    between atoms: C_5  and  S_6
REMARK    3  A    between atoms: S_6  and  C_7
REMARK    4  A    between atoms: C_7  and  N_9
REMARK    5  A    between atoms: N_9  and  C_10
REMARK    6  A    between atoms: C_10  and  C_11
REMARK    7  A    between atoms: C_11  and  C_12
REMARK    8  A    between atoms: C_12  and  C_13
REMARK    9  A    between atoms: C_13  and  N_14
REMARK   10  A    between atoms: C_15  and  O_17
REMARK   11  A    between atoms: O_17  and  C_18
REMARK   12  A    between atoms: C_18  and  C_19
REMARK                            x       y       z     vdW  Elec       q    Type
REMARK                         _______ _______ _______ _____ _____    ______ ____
ROOT
ATOM      1  C   UNL     1       7.699   8.180  17.437  0.00  0.00    +0.000 C 
ENDROOT
BRANCH   1   2
ATOM      2  C   UNL     1       8.506   8.700  18.640  0.00  0.00    +0.000 C 
BRANCH   2   3
ATOM      3  C   UNL     1       8.976  10.141  18.418  0.00  0.00    +0.000 C 
BRANCH   3   4
ATOM      4  N   UNL     1       9.455  10.825  19.608  0.00  0.00    +0.000 N 
ATOM      5  H   UNL     1       9.575  10.305  20.469  0.00  0.00    +0.000 HD
BRANCH   4   6
ATOM      6  C   UNL     1       9.940  12.117  19.619  0.00  0.00    +0.000 C 
ATOM      7  S   UNL     1      10.133  13.084  20.967  0.00  0.00    +0.000 S 
BRANCH   6   8
ATOM      8  S   UNL     1      10.262  12.635  17.971  0.00  0.00    +0.000 S 
BRANCH   8  13
ATOM      9  C   UNL     1      10.820  18.619  17.281  0.00  0.00    +0.000 C 
ATOM     10  N   UNL     1      10.592  17.177  17.160  0.00  0.00    +0.000 NA
ATOM     11  C   UNL     1      11.853  16.437  17.299  0.00  0.00    +0.000 C 
ATOM     12  C   UNL     1      11.645  14.924  17.172  0.00  0.00    +0.000 C 
ATOM     13  C   UNL     1      10.609  14.429  18.183  0.00  0.00    +0.000 C 
ATOM     14  C   UNL     1       9.315  15.234  17.996  0.00  0.00    +0.000 C 
ATOM     15  C   UNL     1       9.597  16.734  18.143  0.00  0.00    +0.000 C 
ENDBRANCH   8  13
ENDBRANCH   6   8
ENDBRANCH   4   6
ENDBRANCH   3   4
ENDBRANCH   2   3
ENDBRANCH   1   2
BRANCH   1  16
ATOM     16  C   UNL     1       7.391   6.680  17.521  0.00  0.00    +0.000 C 
BRANCH  16  17
ATOM     17  N   UNL     1       6.049   6.363  17.089  0.00  0.00    +0.000 N 
ATOM     18  C   UNL     1       5.262   5.497  17.785  0.00  0.00    +0.000 C 
ATOM     19  O   UNL     1       5.593   4.968  18.838  0.00  0.00    +0.000 OA
ATOM     20  H   UNL     1       5.685   6.717  16.215  0.00  0.00    +0.000 HD
BRANCH  18  21
ATOM     21  O   UNL     1       4.088   5.306  17.146  0.00  0.00    +0.000 OA
BRANCH  21  22
ATOM     22  C   UNL     1       2.982   4.972  17.997  0.00  0.00    +0.000 C 
BRANCH  22  23
ATOM     23  C   UNL     1       2.504   6.219  18.694  0.00  0.00    +0.000 A 
ATOM     24  C   UNL     1       2.395   7.409  17.950  0.00  0.00    +0.000 A 
ATOM     25  C   UNL     1       1.920   8.582  18.540  0.00  0.00    +0.000 A 
ATOM     26  C   UNL     1       1.540   8.582  19.879  0.00  0.00    +0.000 A 
ATOM     27  C   UNL     1       1.648   7.413  20.631  0.00  0.00    +0.000 A 
ATOM     28  C   UNL     1       2.127   6.237  20.045  0.00  0.00    +0.000 A 
ATOM     29 CL   UNL     1       2.241   4.835  21.047  0.00  0.00    +0.000 Cl
ENDBRANCH  22  23
ENDBRANCH  21  22
ENDBRANCH  18  21
ENDBRANCH  16  17
ENDBRANCH   1  16
TORSDOF 11
ENDMDL
MODEL 9
REMARK VINA RESULT:      -6.3      5.588      7.656
REMARK  Name = 
REMARK  12 active torsions:
REMARK  status: ('A' for Active; 'I' for Inactive)
REMARK    1  A    between atoms: C_1  and  N_2
REMARK    2  A    between atoms: C_5  and  S_6
REMARK    3  A    between atoms: S_6  and  C_7
REMARK    4  A    between atoms: C_7  and  N_9
REMARK    5  A    between atoms: N_9  and  C_10
REMARK    6  A    between atoms: C_10  and  C_11
REMARK    7  A    between atoms: C_11  and  C_12
REMARK    8  A    between atoms: C_12  and  C_13
REMARK    9  A    between atoms: C_13  and  N_14
REMARK   10  A    between atoms: C_15  and  O_17
REMARK   11  A    between atoms: O_17  and  C_18
REMARK   12  A    between atoms: C_18  and  C_19
REMARK                            x       y       z     vdW  Elec       q    Type
REMARK                         _______ _______ _______ _____ _____    ______ ____
ROOT
ATOM      1  C   UNL     1       1.943   3.376  20.383  0.00  0.00    +0.000 C 
ENDROOT
BRANCH   1   2
ATOM      2  C   UNL     1       2.645   4.716  20.673  0.00  0.00    +0.000 C 
BRANCH   2   3
ATOM      3  C   UNL     1       1.662   5.888  20.606  0.00  0.00    +0.000 C 
BRANCH   3   4
ATOM      4  N   UNL     1       2.169   7.083  19.949  0.00  0.00    +0.000 N 
ATOM      5  H   UNL     1       2.903   6.998  19.256  0.00  0.00    +0.000 HD
BRANCH   4   6
ATOM      6  C   UNL     1       1.598   8.333  20.065  0.00  0.00    +0.000 C 
ATOM      7  S   UNL     1       1.255   9.378  18.807  0.00  0.00    +0.000 S 
BRANCH   6   8
ATOM      8  S   UNL     1       1.350   8.709  21.763  0.00  0.00    +0.000 S 
BRANCH   8  13
ATOM      9  C   UNL     1      -1.685  13.871  22.624  0.00  0.00    +0.000 C 
ATOM     10  N   UNL     1      -0.790  12.712  22.656  0.00  0.00    +0.000 NA
ATOM     11  C   UNL     1      -1.541  11.482  22.944  0.00  0.00    +0.000 C 
ATOM     12  C   UNL     1      -0.627  10.252  22.988  0.00  0.00    +0.000 C 
ATOM     13  C   UNL     1       0.165  10.114  21.686  0.00  0.00    +0.000 C 
ATOM     14  C   UNL     1       0.926  11.423  21.433  0.00  0.00    +0.000 C 
ATOM     15  C   UNL     1      -0.047  12.606  21.395  0.00  0.00    +0.000 C 
ENDBRANCH   8  13
ENDBRANCH   6   8
ENDBRANCH   4   6
ENDBRANCH   3   4
ENDBRANCH   2   3
ENDBRANCH   1   2
BRANCH   1  16
ATOM     16  C   UNL     1       1.392   3.282  18.955  0.00  0.00    +0.000 C 
BRANCH  16  17
ATOM     17  N   UNL     1       2.238   3.943  17.988  0.00  0.00    +0.000 N 
ATOM     18  C   UNL     1       3.313   3.318  17.436  0.00  0.00    +0.000 C 
ATOM     19  O   UNL     1       3.617   2.154  17.661  0.00  0.00    +0.000 OA
ATOM     20  H   UNL     1       2.099   4.917  17.753  0.00  0.00    +0.000 HD
BRANCH  18  21
ATOM     21  O   UNL     1       3.987   4.161  16.623  0.00  0.00    +0.000 OA
BRANCH  21  22
ATOM     22  C   UNL     1       5.380   3.862  16.459  0.00  0.00    +0.000 C 
BRANCH  22  23
ATOM     23  C   UNL     1       6.197   4.946  17.115  0.00  0.00    +0.000 A 
ATOM     24  C   UNL     1       7.043   4.600  18.186  0.00  0.00    +0.000 A 
ATOM     25  C   UNL     1       7.848   5.560  18.801  0.00  0.00    +0.000 A 
ATOM     26  C   UNL     1       7.826   6.877  18.353  0.00  0.00    +0.000 A 
ATOM     27  C   UNL     1       6.989   7.237  17.297  0.00  0.00    +0.000 A 
ATOM     28  C   UNL     1       6.177   6.279  16.681  0.00  0.00    +0.000 A 
ATOM     29 CL   UNL     1       5.160   6.808  15.390  0.00  0.00    +0.000 Cl
ENDBRANCH  22  23
ENDBRANCH  21  22
ENDBRANCH  18  21
ENDBRANCH  16  17
ENDBRANCH   1  16
TORSDOF 11
ENDMDL
