MODEL 1
REMARK VINA RESULT:      -9.2      0.000      0.000
REMARK  Name = 
REMARK  5 active torsions:
REMARK  status: ('A' for Active; 'I' for Inactive)
REMARK    1  A    between atoms: C_1  and  C_2
REMARK    2  A    between atoms: C_2  and  C_3
REMARK    3  A    between atoms: C_3  and  C_4
REMARK    4  A    between atoms: C_15  and  C_16
REMARK    5  A    between atoms: N_18  and  C_19
REMARK                            x       y       z     vdW  Elec       q    Type
REMARK                         _______ _______ _______ _____ _____    ______ ____
ROOT
ATOM      1  C   UNL     1       5.351   5.527  15.254  0.00  0.00    +0.000 C 
ATOM      2  C   UNL     1       5.220   5.486  16.779  0.00  0.00    +0.000 C 
ATOM      3  C   UNL     1       5.408   4.050  17.325  0.00  0.00    +0.000 C 
ATOM      4  O   UNL     1       6.482   4.011  18.308  0.00  0.00    +0.000 OA
ATOM      5  C   UNL     1       7.038   5.255  18.285  0.00  0.00    +0.000 A 
ATOM      6  C   UNL     1       8.056   5.681  19.114  0.00  0.00    +0.000 A 
ATOM      7  C   UNL     1       8.462   7.033  19.061  0.00  0.00    +0.000 A 
ATOM      8  C   UNL     1       7.865   7.912  18.133  0.00  0.00    +0.000 A 
ATOM      9  C   UNL     1       6.851   7.431  17.295  0.00  0.00    +0.000 A 
ATOM     10  C   UNL     1       6.419   6.124  17.407  0.00  0.00    +0.000 A 
ENDROOT
BRANCH   8  11
ATOM     11  C   UNL     1       8.143   9.369  18.015  0.00  0.00    +0.000 C 
ATOM     12  O   UNL     1       7.442  10.043  17.253  0.00  0.00    +0.000 OA
ATOM     13  N   UNL     1       9.154   9.953  18.759  0.00  0.00    +0.000 N 
ATOM     14  H   UNL     1       9.896   9.371  19.117  0.00  0.00    +0.000 HD
BRANCH  13  15
ATOM     15  C   UNL     1       9.416  11.379  18.563  0.00  0.00    +0.000 C 
ATOM     16  C   UNL     1       9.349  12.185  19.865  0.00  0.00    +0.000 C 
ATOM     17  C   UNL     1      10.574  12.013  20.753  0.00  0.00    +0.000 C 
ATOM     18  C   UNL     1      11.873  12.221  19.981  0.00  0.00    +0.000 C 
ATOM     19  C   UNL     1      11.940  11.332  18.744  0.00  0.00    +0.000 C 
ATOM     20  C   UNL     1      10.744  11.581  17.828  0.00  0.00    +0.000 C 
ENDBRANCH  13  15
ENDBRANCH   8  11
BRANCH   2  21
ATOM     21  C   UNL     1       3.923   6.192  17.299  0.00  0.00    +0.000 C 
BRANCH  21  22
ATOM     22  C   UNL     1       3.089   5.389  18.276  0.00  0.00    +0.000 A 
ATOM     23  C   UNL     1       2.173   4.429  17.821  0.00  0.00    +0.000 A 
ATOM     24  C   UNL     1       1.229   3.878  18.693  0.00  0.00    +0.000 A 
ATOM     25  C   UNL     1       1.252   4.204  20.045  0.00  0.00    +0.000 A 
ATOM     26  C   UNL     1       2.246   5.052  20.530  0.00  0.00    +0.000 A 
ATOM     27  C   UNL     1       3.156   5.645  19.652  0.00  0.00    +0.000 A 
ENDBRANCH  21  22
ENDBRANCH   2  21
TORSDOF 4
ENDMDL
MODEL 2
REMARK VINA RESULT:      -8.5      4.558      7.204
REMARK  Name = 
REMARK  5 active torsions:
REMARK  status: ('A' for Active; 'I' for Inactive)
REMARK    1  A    between atoms: C_1  and  C_2
REMARK    2  A    between atoms: C_2  and  C_3
REMARK    3  A    between atoms: C_3  and  C_4
REMARK    4  A    between atoms: C_15  and  C_16
REMARK    5  A    between atoms: N_18  and  C_19
REMARK                            x       y       z     vdW  Elec       q    Type
REMARK                         _______ _______ _______ _____ _____    ______ ____
ROOT
ATOM      1  C   UNL     1       3.704   1.641  18.048  0.00  0.00    +0.000 C 
ATOM      2  C   UNL     1       3.799   3.144  18.323  0.00  0.00    +0.000 C 
ATOM      3  C   UNL     1       4.124   3.428  19.810  0.00  0.00    +0.000 C 
ATOM      4  O   UNL     1       5.331   4.234  19.927  0.00  0.00    +0.000 OA
ATOM      5  C   UNL     1       5.827   4.329  18.661  0.00  0.00    +0.000 A 
ATOM      6  C   UNL     1       6.937   5.065  18.299  0.00  0.00    +0.000 A 
ATOM      7  C   UNL     1       7.275   5.167  16.932  0.00  0.00    +0.000 A 
ATOM      8  C   UNL     1       6.514   4.480  15.964  0.00  0.00    +0.000 A 
ATOM      9  C   UNL     1       5.408   3.726  16.378  0.00  0.00    +0.000 A 
ATOM     10  C   UNL     1       5.050   3.692  17.711  0.00  0.00    +0.000 A 
ENDROOT
BRANCH   8  11
ATOM     11  C   UNL     1       6.712   4.553  14.491  0.00  0.00    +0.000 C 
ATOM     12  O   UNL     1       7.295   5.538  14.024  0.00  0.00    +0.000 OA
ATOM     13  N   UNL     1       6.269   3.530  13.671  0.00  0.00    +0.000 N 
ATOM     14  H   UNL     1       5.544   2.914  14.007  0.00  0.00    +0.000 HD
BRANCH  13  15
ATOM     15  C   UNL     1       6.445   3.681  12.226  0.00  0.00    +0.000 C 
ATOM     16  C   UNL     1       7.060   2.443  11.565  0.00  0.00    +0.000 C 
ATOM     17  C   UNL     1       6.078   1.291  11.393  0.00  0.00    +0.000 C 
ATOM     18  C   UNL     1       4.777   1.743  10.736  0.00  0.00    +0.000 C 
ATOM     19  C   UNL     1       4.150   2.917  11.480  0.00  0.00    +0.000 C 
ATOM     20  C   UNL     1       5.124   4.089  11.569  0.00  0.00    +0.000 C 
ENDBRANCH  13  15
ENDBRANCH   8  11
BRANCH   2  21
ATOM     21  C   UNL     1       2.565   3.943  17.785  0.00  0.00    +0.000 C 
BRANCH  21  22
ATOM     22  C   UNL     1       2.230   5.213  18.538  0.00  0.00    +0.000 A 
ATOM     23  C   UNL     1       2.520   6.472  17.991  0.00  0.00    +0.000 A 
ATOM     24  C   UNL     1       2.452   7.623  18.781  0.00  0.00    +0.000 A 
ATOM     25  C   UNL     1       2.000   7.544  20.094  0.00  0.00    +0.000 A 
ATOM     26  C   UNL     1       1.579   6.317  20.603  0.00  0.00    +0.000 A 
ATOM     27  C   UNL     1       1.697   5.158  19.832  0.00  0.00    +0.000 A 
ENDBRANCH  21  22
ENDBRANCH   2  21
TORSDOF 4
ENDMDL
MODEL 3
REMARK VINA RESULT:      -8.3      4.556      7.193
REMARK  Name = 
REMARK  5 active torsions:
REMARK  status: ('A' for Active; 'I' for Inactive)
REMARK    1  A    between atoms: C_1  and  C_2
REMARK    2  A    between atoms: C_2  and  C_3
REMARK    3  A    between atoms: C_3  and  C_4
REMARK    4  A    between atoms: C_15  and  C_16
REMARK    5  A    between atoms: N_18  and  C_19
REMARK                            x       y       z     vdW  Elec       q    Type
REMARK                         _______ _______ _______ _____ _____    ______ ____
ROOT
ATOM      1  C   UNL     1       3.565   1.896  17.976  0.00  0.00    +0.000 C 
ATOM      2  C   UNL     1       3.800   3.378  18.280  0.00  0.00    +0.000 C 
ATOM      3  C   UNL     1       4.165   3.598  19.769  0.00  0.00    +0.000 C 
ATOM      4  O   UNL     1       5.442   4.289  19.888  0.00  0.00    +0.000 OA
ATOM      5  C   UNL     1       5.931   4.365  18.618  0.00  0.00    +0.000 A 
ATOM      6  C   UNL     1       7.100   5.005  18.258  0.00  0.00    +0.000 A 
ATOM      7  C   UNL     1       7.432   5.105  16.889  0.00  0.00    +0.000 A 
ATOM      8  C   UNL     1       6.600   4.511  15.916  0.00  0.00    +0.000 A 
ATOM      9  C   UNL     1       5.435   3.852  16.329  0.00  0.00    +0.000 A 
ATOM     10  C   UNL     1       5.090   3.822  17.665  0.00  0.00    +0.000 A 
ENDROOT
BRANCH   8  11
ATOM     11  C   UNL     1       6.789   4.597  14.443  0.00  0.00    +0.000 C 
ATOM     12  O   UNL     1       7.465   5.527  13.989  0.00  0.00    +0.000 OA
ATOM     13  N   UNL     1       6.234   3.645  13.607  0.00  0.00    +0.000 N 
ATOM     14  H   UNL     1       5.453   3.099  13.938  0.00  0.00    +0.000 HD
BRANCH  13  15
ATOM     15  C   UNL     1       6.409   3.810  12.163  0.00  0.00    +0.000 C 
ATOM     16  C   UNL     1       7.531   2.936  11.592  0.00  0.00    +0.000 C 
ATOM     17  C   UNL     1       7.148   1.469  11.445  0.00  0.00    +0.000 C 
ATOM     18  C   UNL     1       5.819   1.295  10.718  0.00  0.00    +0.000 C 
ATOM     19  C   UNL     1       4.709   2.109  11.375  0.00  0.00    +0.000 C 
ATOM     20  C   UNL     1       5.079   3.588  11.436  0.00  0.00    +0.000 C 
ENDBRANCH  13  15
ENDBRANCH   8  11
BRANCH   2  21
ATOM     21  C   UNL     1       2.638   4.297  17.775  0.00  0.00    +0.000 C 
BRANCH  21  22
ATOM     22  C   UNL     1       2.519   5.639  18.465  0.00  0.00    +0.000 A 
ATOM     23  C   UNL     1       2.065   5.730  19.789  0.00  0.00    +0.000 A 
ATOM     24  C   UNL     1       1.711   6.967  20.336  0.00  0.00    +0.000 A 
ATOM     25  C   UNL     1       1.900   8.134  19.604  0.00  0.00    +0.000 A 
ATOM     26  C   UNL     1       2.479   8.066  18.339  0.00  0.00    +0.000 A 
ATOM     27  C   UNL     1       2.784   6.826  17.770  0.00  0.00    +0.000 A 
ENDBRANCH  21  22
ENDBRANCH   2  21
TORSDOF 4
ENDMDL
MODEL 4
REMARK VINA RESULT:      -8.3      4.737      7.298
REMARK  Name = 
REMARK  5 active torsions:
REMARK  status: ('A' for Active; 'I' for Inactive)
REMARK    1  A    between atoms: C_1  and  C_2
REMARK    2  A    between atoms: C_2  and  C_3
REMARK    3  A    between atoms: C_3  and  C_4
REMARK    4  A    between atoms: C_15  and  C_16
REMARK    5  A    between atoms: N_18  and  C_19
REMARK                            x       y       z     vdW  Elec       q    Type
REMARK                         _______ _______ _______ _____ _____    ______ ____
ROOT
ATOM      1  C   UNL     1       2.520   4.664  17.770  0.00  0.00    +0.000 C 
ATOM      2  C   UNL     1       3.662   5.615  18.139  0.00  0.00    +0.000 C 
ATOM      3  C   UNL     1       4.020   5.514  19.642  0.00  0.00    +0.000 C 
ATOM      4  O   UNL     1       5.429   5.185  19.812  0.00  0.00    +0.000 OA
ATOM      5  C   UNL     1       5.899   4.942  18.556  0.00  0.00    +0.000 A 
ATOM      6  C   UNL     1       7.212   4.655  18.245  0.00  0.00    +0.000 A 
ATOM      7  C   UNL     1       7.583   4.535  16.888  0.00  0.00    +0.000 A 
ATOM      8  C   UNL     1       6.607   4.656  15.876  0.00  0.00    +0.000 A 
ATOM      9  C   UNL     1       5.282   4.925  16.239  0.00  0.00    +0.000 A 
ATOM     10  C   UNL     1       4.948   5.107  17.567  0.00  0.00    +0.000 A 
ENDROOT
BRANCH   8  11
ATOM     11  C   UNL     1       6.867   4.622  14.411  0.00  0.00    +0.000 C 
ATOM     12  O   UNL     1       7.616   5.476  13.926  0.00  0.00    +0.000 OA
ATOM     13  N   UNL     1       6.293   3.642  13.620  0.00  0.00    +0.000 N 
ATOM     14  H   UNL     1       5.467   3.167  13.951  0.00  0.00    +0.000 HD
BRANCH  13  15
ATOM     15  C   UNL     1       6.542   3.690  12.178  0.00  0.00    +0.000 C 
ATOM     16  C   UNL     1       7.089   2.370  11.621  0.00  0.00    +0.000 C 
ATOM     17  C   UNL     1       6.030   1.285  11.471  0.00  0.00    +0.000 C 
ATOM     18  C   UNL     1       4.797   1.790  10.727  0.00  0.00    +0.000 C 
ATOM     19  C   UNL     1       4.230   3.051  11.371  0.00  0.00    +0.000 C 
ATOM     20  C   UNL     1       5.285   4.152  11.436  0.00  0.00    +0.000 C 
ENDBRANCH  13  15
ENDBRANCH   8  11
BRANCH   2  21
ATOM     21  C   UNL     1       3.418   7.082  17.648  0.00  0.00    +0.000 C 
BRANCH  21  22
ATOM     22  C   UNL     1       2.366   7.859  18.410  0.00  0.00    +0.000 A 
ATOM     23  C   UNL     1       1.667   8.912  17.802  0.00  0.00    +0.000 A 
ATOM     24  C   UNL     1       0.891   9.787  18.568  0.00  0.00    +0.000 A 
ATOM     25  C   UNL     1       0.726   9.564  19.931  0.00  0.00    +0.000 A 
ATOM     26  C   UNL     1       1.305   8.441  20.518  0.00  0.00    +0.000 A 
ATOM     27  C   UNL     1       2.124   7.595  19.765  0.00  0.00    +0.000 A 
ENDBRANCH  21  22
ENDBRANCH   2  21
TORSDOF 4
ENDMDL
MODEL 5
REMARK VINA RESULT:      -7.9      4.969      7.126
REMARK  Name = 
REMARK  5 active torsions:
REMARK  status: ('A' for Active; 'I' for Inactive)
REMARK    1  A    between atoms: C_1  and  C_2
REMARK    2  A    between atoms: C_2  and  C_3
REMARK    3  A    between atoms: C_3  and  C_4
REMARK    4  A    between atoms: C_15  and  C_16
REMARK    5  A    between atoms: N_18  and  C_19
REMARK                            x       y       z     vdW  Elec       q    Type
REMARK                         _______ _______ _______ _____ _____    ______ ____
ROOT
ATOM      1  C   UNL     1       5.923   4.269  18.916  0.00  0.00    +0.000 C 
ATOM      2  C   UNL     1       4.478   3.772  18.826  0.00  0.00    +0.000 C 
ATOM      3  C   UNL     1       4.230   2.576  19.778  0.00  0.00    +0.000 C 
ATOM      4  O   UNL     1       3.134   2.865  20.692  0.00  0.00    +0.000 OA
ATOM      5  C   UNL     1       2.809   4.170  20.466  0.00  0.00    +0.000 A 
ATOM      6  C   UNL     1       1.771   4.843  21.076  0.00  0.00    +0.000 A 
ATOM      7  C   UNL     1       1.475   6.162  20.665  0.00  0.00    +0.000 A 
ATOM      8  C   UNL     1       2.270   6.790  19.683  0.00  0.00    +0.000 A 
ATOM      9  C   UNL     1       3.328   6.076  19.107  0.00  0.00    +0.000 A 
ATOM     10  C   UNL     1       3.562   4.765  19.471  0.00  0.00    +0.000 A 
ENDROOT
BRANCH   8  11
ATOM     11  C   UNL     1       2.032   8.142  19.108  0.00  0.00    +0.000 C 
ATOM     12  O   UNL     1       2.606   8.443  18.056  0.00  0.00    +0.000 OA
ATOM     13  N   UNL     1       1.173   9.029  19.733  0.00  0.00    +0.000 N 
ATOM     14  H   UNL     1       0.970   8.904  20.713  0.00  0.00    +0.000 HD
BRANCH  13  15
ATOM     15  C   UNL     1       1.019  10.362  19.150  0.00  0.00    +0.000 C 
ATOM     16  C   UNL     1      -0.217  10.484  18.252  0.00  0.00    +0.000 C 
ATOM     17  C   UNL     1      -1.526  10.596  19.024  0.00  0.00    +0.000 C 
ATOM     18  C   UNL     1      -1.459  11.668  20.107  0.00  0.00    +0.000 C 
ATOM     19  C   UNL     1      -0.268  11.456  21.036  0.00  0.00    +0.000 C 
ATOM     20  C   UNL     1       1.039  11.429  20.249  0.00  0.00    +0.000 C 
ENDBRANCH  13  15
ENDBRANCH   8  11
BRANCH   2  21
ATOM     21  C   UNL     1       4.012   3.512  17.355  0.00  0.00    +0.000 C 
BRANCH  21  22
ATOM     22  C   UNL     1       4.844   4.176  16.279  0.00  0.00    +0.000 A 
ATOM     23  C   UNL     1       5.702   3.422  15.464  0.00  0.00    +0.000 A 
ATOM     24  C   UNL     1       6.652   4.053  14.656  0.00  0.00    +0.000 A 
ATOM     25  C   UNL     1       6.690   5.441  14.576  0.00  0.00    +0.000 A 
ATOM     26  C   UNL     1       5.751   6.196  15.276  0.00  0.00    +0.000 A 
ATOM     27  C   UNL     1       4.836   5.569  16.126  0.00  0.00    +0.000 A 
ENDBRANCH  21  22
ENDBRANCH   2  21
TORSDOF 4
ENDMDL
MODEL 6
REMARK VINA RESULT:      -7.5      4.226      7.035
REMARK  Name = 
REMARK  5 active torsions:
REMARK  status: ('A' for Active; 'I' for Inactive)
REMARK    1  A    between atoms: C_1  and  C_2
REMARK    2  A    between atoms: C_2  and  C_3
REMARK    3  A    between atoms: C_3  and  C_4
REMARK    4  A    between atoms: C_15  and  C_16
REMARK    5  A    between atoms: N_18  and  C_19
REMARK                            x       y       z     vdW  Elec       q    Type
REMARK                         _______ _______ _______ _____ _____    ______ ____
ROOT
ATOM      1  C   UNL     1       6.740   6.583  16.783  0.00  0.00    +0.000 C 
ATOM      2  C   UNL     1       5.576   5.596  16.905  0.00  0.00    +0.000 C 
ATOM      3  C   UNL     1       5.989   4.331  17.697  0.00  0.00    +0.000 C 
ATOM      4  O   UNL     1       5.109   4.132  18.841  0.00  0.00    +0.000 OA
ATOM      5  C   UNL     1       4.312   5.237  18.880  0.00  0.00    +0.000 A 
ATOM      6  C   UNL     1       3.280   5.436  19.775  0.00  0.00    +0.000 A 
ATOM      7  C   UNL     1       2.461   6.577  19.632  0.00  0.00    +0.000 A 
ATOM      8  C   UNL     1       2.734   7.520  18.618  0.00  0.00    +0.000 A 
ATOM      9  C   UNL     1       3.805   7.288  17.746  0.00  0.00    +0.000 A 
ATOM     10  C   UNL     1       4.555   6.134  17.857  0.00  0.00    +0.000 A 
ENDROOT
BRANCH   8  11
ATOM     11  C   UNL     1       1.917   8.724  18.310  0.00  0.00    +0.000 C 
ATOM     12  O   UNL     1       1.915   9.153  17.150  0.00  0.00    +0.000 OA
ATOM     13  N   UNL     1       1.165   9.334  19.298  0.00  0.00    +0.000 N 
ATOM     14  H   UNL     1       1.411   9.182  20.264  0.00  0.00    +0.000 HD
BRANCH  13  15
ATOM     15  C   UNL     1       0.422  10.545  18.948  0.00  0.00    +0.000 C 
ATOM     16  C   UNL     1      -0.927  10.651  19.669  0.00  0.00    +0.000 C 
ATOM     17  C   UNL     1      -0.807  11.064  21.131  0.00  0.00    +0.000 C 
ATOM     18  C   UNL     1       0.068  12.302  21.304  0.00  0.00    +0.000 C 
ATOM     19  C   UNL     1       1.434  12.119  20.652  0.00  0.00    +0.000 C 
ATOM     20  C   UNL     1       1.292  11.786  19.170  0.00  0.00    +0.000 C 
ENDBRANCH  13  15
ENDBRANCH   8  11
BRANCH   2  21
ATOM     21  C   UNL     1       4.894   5.283  15.531  0.00  0.00    +0.000 C 
BRANCH  21  22
ATOM     22  C   UNL     1       5.814   4.757  14.449  0.00  0.00    +0.000 A 
ATOM     23  C   UNL     1       7.090   5.307  14.259  0.00  0.00    +0.000 A 
ATOM     24  C   UNL     1       7.830   5.004  13.112  0.00  0.00    +0.000 A 
ATOM     25  C   UNL     1       7.349   4.077  12.194  0.00  0.00    +0.000 A 
ATOM     26  C   UNL     1       6.145   3.422  12.446  0.00  0.00    +0.000 A 
ATOM     27  C   UNL     1       5.379   3.762  13.563  0.00  0.00    +0.000 A 
ENDBRANCH  21  22
ENDBRANCH   2  21
TORSDOF 4
ENDMDL
MODEL 7
REMARK VINA RESULT:      -7.5      5.640      8.981
REMARK  Name = 
REMARK  5 active torsions:
REMARK  status: ('A' for Active; 'I' for Inactive)
REMARK    1  A    between atoms: C_1  and  C_2
REMARK    2  A    between atoms: C_2  and  C_3
REMARK    3  A    between atoms: C_3  and  C_4
REMARK    4  A    between atoms: C_15  and  C_16
REMARK    5  A    between atoms: N_18  and  C_19
REMARK                            x       y       z     vdW  Elec       q    Type
REMARK                         _______ _______ _______ _____ _____    ______ ____
ROOT
ATOM      1  C   UNL     1       0.646  11.323  21.319  0.00  0.00    +0.000 C 
ATOM      2  C   UNL     1       0.252  10.856  19.915  0.00  0.00    +0.000 C 
ATOM      3  C   UNL     1       0.588  11.926  18.848  0.00  0.00    +0.000 C 
ATOM      4  O   UNL     1       1.458  11.370  17.820  0.00  0.00    +0.000 OA
ATOM      5  C   UNL     1       1.782  10.121  18.257  0.00  0.00    +0.000 A 
ATOM      6  C   UNL     1       2.543   9.209  17.554  0.00  0.00    +0.000 A 
ATOM      7  C   UNL     1       2.708   7.908  18.076  0.00  0.00    +0.000 A 
ATOM      8  C   UNL     1       2.143   7.571  19.324  0.00  0.00    +0.000 A 
ATOM      9  C   UNL     1       1.397   8.535  20.014  0.00  0.00    +0.000 A 
ATOM     10  C   UNL     1       1.188   9.782  19.459  0.00  0.00    +0.000 A 
ENDROOT
BRANCH   8  11
ATOM     11  C   UNL     1       2.178   6.226  19.959  0.00  0.00    +0.000 C 
ATOM     12  O   UNL     1       1.521   6.044  20.990  0.00  0.00    +0.000 OA
ATOM     13  N   UNL     1       2.915   5.202  19.391  0.00  0.00    +0.000 N 
ATOM     14  H   UNL     1       3.670   5.432  18.762  0.00  0.00    +0.000 HD
BRANCH  13  15
ATOM     15  C   UNL     1       2.954   3.915  20.088  0.00  0.00    +0.000 C 
ATOM     16  C   UNL     1       1.614   3.172  20.048  0.00  0.00    +0.000 C 
ATOM     17  C   UNL     1       1.320   2.513  18.706  0.00  0.00    +0.000 C 
ATOM     18  C   UNL     1       2.492   1.670  18.214  0.00  0.00    +0.000 C 
ATOM     19  C   UNL     1       3.787   2.474  18.181  0.00  0.00    +0.000 C 
ATOM     20  C   UNL     1       4.105   3.056  19.555  0.00  0.00    +0.000 C 
ENDBRANCH  13  15
ENDBRANCH   8  11
BRANCH   2  21
ATOM     21  C   UNL     1      -1.221  10.331  19.837  0.00  0.00    +0.000 C 
BRANCH  21  22
ATOM     22  C   UNL     1      -1.945  10.607  18.537  0.00  0.00    +0.000 A 
ATOM     23  C   UNL     1      -2.953  11.580  18.466  0.00  0.00    +0.000 A 
ATOM     24  C   UNL     1      -3.791  11.656  17.349  0.00  0.00    +0.000 A 
ATOM     25  C   UNL     1      -3.569  10.830  16.252  0.00  0.00    +0.000 A 
ATOM     26  C   UNL     1      -2.484   9.956  16.258  0.00  0.00    +0.000 A 
ATOM     27  C   UNL     1      -1.679   9.841  17.394  0.00  0.00    +0.000 A 
ENDBRANCH  21  22
ENDBRANCH   2  21
TORSDOF 4
ENDMDL
MODEL 8
REMARK VINA RESULT:      -7.4      4.186      7.304
REMARK  Name = 
REMARK  5 active torsions:
REMARK  status: ('A' for Active; 'I' for Inactive)
REMARK    1  A    between atoms: C_1  and  C_2
REMARK    2  A    between atoms: C_2  and  C_3
REMARK    3  A    between atoms: C_3  and  C_4
REMARK    4  A    between atoms: C_15  and  C_16
REMARK    5  A    between atoms: N_18  and  C_19
REMARK                            x       y       z     vdW  Elec       q    Type
REMARK                         _______ _______ _______ _____ _____    ______ ____
ROOT
ATOM      1  C   UNL     1       6.803   6.237  17.121  0.00  0.00    +0.000 C 
ATOM      2  C   UNL     1       5.513   5.581  16.620  0.00  0.00    +0.000 C 
ATOM      3  C   UNL     1       5.473   4.073  16.968  0.00  0.00    +0.000 C 
ATOM      4  O   UNL     1       4.280   3.756  17.742  0.00  0.00    +0.000 OA
ATOM      5  C   UNL     1       3.690   4.956  18.005  0.00  0.00    +0.000 A 
ATOM      6  C   UNL     1       2.489   5.118  18.664  0.00  0.00    +0.000 A 
ATOM      7  C   UNL     1       1.936   6.414  18.771  0.00  0.00    +0.000 A 
ATOM      8  C   UNL     1       2.636   7.524  18.254  0.00  0.00    +0.000 A 
ATOM      9  C   UNL     1       3.864   7.315  17.612  0.00  0.00    +0.000 A 
ATOM     10  C   UNL     1       4.358   6.035  17.456  0.00  0.00    +0.000 A 
ENDROOT
BRANCH   8  11
ATOM     11  C   UNL     1       2.144   8.928  18.233  0.00  0.00    +0.000 C 
ATOM     12  O   UNL     1       2.342   9.607  17.220  0.00  0.00    +0.000 OA
ATOM     13  N   UNL     1       1.464   9.449  19.320  0.00  0.00    +0.000 N 
ATOM     14  H   UNL     1       1.583   9.017  20.224  0.00  0.00    +0.000 HD
BRANCH  13  15
ATOM     15  C   UNL     1       1.049  10.851  19.264  0.00  0.00    +0.000 C 
ATOM     16  C   UNL     1      -0.317  11.046  18.597  0.00  0.00    +0.000 C 
ATOM     17  C   UNL     1      -1.492  10.663  19.488  0.00  0.00    +0.000 C 
ATOM     18  C   UNL     1      -1.396  11.309  20.867  0.00  0.00    +0.000 C 
ATOM     19  C   UNL     1      -0.057  11.013  21.535  0.00  0.00    +0.000 C 
ATOM     20  C   UNL     1       1.103  11.479  20.660  0.00  0.00    +0.000 C 
ENDBRANCH  13  15
ENDBRANCH   8  11
BRANCH   2  21
ATOM     21  C   UNL     1       5.217   5.887  15.114  0.00  0.00    +0.000 C 
BRANCH  21  22
ATOM     22  C   UNL     1       5.901   4.977  14.116  0.00  0.00    +0.000 A 
ATOM     23  C   UNL     1       7.232   5.200  13.732  0.00  0.00    +0.000 A 
ATOM     24  C   UNL     1       7.776   4.528  12.633  0.00  0.00    +0.000 A 
ATOM     25  C   UNL     1       7.034   3.558  11.969  0.00  0.00    +0.000 A 
ATOM     26  C   UNL     1       5.760   3.232  12.430  0.00  0.00    +0.000 A 
ATOM     27  C   UNL     1       5.194   3.939  13.494  0.00  0.00    +0.000 A 
ENDBRANCH  21  22
ENDBRANCH   2  21
TORSDOF 4
ENDMDL
MODEL 9
REMARK VINA RESULT:      -7.3      6.054      9.506
REMARK  Name = 
REMARK  5 active torsions:
REMARK  status: ('A' for Active; 'I' for Inactive)
REMARK    1  A    between atoms: C_1  and  C_2
REMARK    2  A    between atoms: C_2  and  C_3
REMARK    3  A    between atoms: C_3  and  C_4
REMARK    4  A    between atoms: C_15  and  C_16
REMARK    5  A    between atoms: N_18  and  C_19
REMARK                            x       y       z     vdW  Elec       q    Type
REMARK                         _______ _______ _______ _____ _____    ______ ____
ROOT
ATOM      1  C   UNL     1       0.076  13.338  18.875  0.00  0.00    +0.000 C 
ATOM      2  C   UNL     1       0.864  12.852  20.095  0.00  0.00    +0.000 C 
ATOM      3  C   UNL     1       0.115  13.166  21.414  0.00  0.00    +0.000 C 
ATOM      4  O   UNL     1      -0.102  11.948  22.183  0.00  0.00    +0.000 OA
ATOM      5  C   UNL     1       0.318  10.932  21.378  0.00  0.00    +0.000 A 
ATOM      6  C   UNL     1       0.352   9.600  21.738  0.00  0.00    +0.000 A 
ATOM      7  C   UNL     1       0.917   8.664  20.844  0.00  0.00    +0.000 A 
ATOM      8  C   UNL     1       1.388   9.087  19.583  0.00  0.00    +0.000 A 
ATOM      9  C   UNL     1       1.313  10.445  19.251  0.00  0.00    +0.000 A 
ATOM     10  C   UNL     1       0.821  11.358  20.162  0.00  0.00    +0.000 A 
ENDROOT
BRANCH   8  11
ATOM     11  C   UNL     1       2.066   8.226  18.577  0.00  0.00    +0.000 C 
ATOM     12  O   UNL     1       2.217   8.667  17.432  0.00  0.00    +0.000 OA
ATOM     13  N   UNL     1       2.532   6.971  18.926  0.00  0.00    +0.000 N 
ATOM     14  H   UNL     1       2.139   6.511  19.733  0.00  0.00    +0.000 HD
BRANCH  13  15
ATOM     15  C   UNL     1       3.144   6.149  17.881  0.00  0.00    +0.000 C 
ATOM     16  C   UNL     1       4.674   6.111  17.969  0.00  0.00    +0.000 C 
ATOM     17  C   UNL     1       5.200   5.211  19.080  0.00  0.00    +0.000 C 
ATOM     18  C   UNL     1       4.563   3.825  19.042  0.00  0.00    +0.000 C 
ATOM     19  C   UNL     1       3.040   3.907  19.051  0.00  0.00    +0.000 C 
ATOM     20  C   UNL     1       2.532   4.745  17.881  0.00  0.00    +0.000 C 
ENDBRANCH  13  15
ENDBRANCH   8  11
BRANCH   2  21
ATOM     21  C   UNL     1       2.354  13.330  20.090  0.00  0.00    +0.000 C 
BRANCH  21  22
ATOM     22  C   UNL     1       2.633  14.593  19.302  0.00  0.00    +0.000 A 
ATOM     23  C   UNL     1       2.082  15.822  19.694  0.00  0.00    +0.000 A 
ATOM     24  C   UNL     1       2.124  16.925  18.835  0.00  0.00    +0.000 A 
ATOM     25  C   UNL     1       2.800  16.843  17.623  0.00  0.00    +0.000 A 
ATOM     26  C   UNL     1       3.468  15.667  17.288  0.00  0.00    +0.000 A 
ATOM     27  C   UNL     1       3.382  14.547  18.119  0.00  0.00    +0.000 A 
ENDBRANCH  21  22
ENDBRANCH   2  21
TORSDOF 4
ENDMDL
