MODEL 1
REMARK VINA RESULT:      -9.0      0.000      0.000
REMARK  Name = 
REMARK  8 active torsions:
REMARK  status: ('A' for Active; 'I' for Inactive)
REMARK    1  A    between atoms: C_2  and  C_3
REMARK    2  A    between atoms: C_3  and  C_4
REMARK    3  A    between atoms: C_4  and  C_5
REMARK    4  A    between atoms: N_11  and  C_12
REMARK    5  A    between atoms: C_16  and  C_17
REMARK    6  A    between atoms: C_17  and  N_18
REMARK    7  A    between atoms: C_19  and  C_21
REMARK    8  A    between atoms: C_25  and  C_26
REMARK                            x       y       z     vdW  Elec       q    Type
REMARK                         _______ _______ _______ _____ _____    ______ ____
ROOT
ATOM      1  C   UNL     1       2.965   5.143  18.373  0.00  0.00    +0.000 A 
ATOM      2  C   UNL     1       2.207   3.977  18.466  0.00  0.00    +0.000 A 
ATOM      3  C   UNL     1       1.272   3.814  19.489  0.00  0.00    +0.000 A 
ATOM      4  C   UNL     1       1.095   4.811  20.444  0.00  0.00    +0.000 A 
ATOM      5  C   UNL     1       1.821   6.005  20.366  0.00  0.00    +0.000 A 
ATOM      6  C   UNL     1       2.743   6.168  19.312  0.00  0.00    +0.000 A 
ENDROOT
BRANCH   1   9
ATOM      7  O   UNL     1       5.863   5.628  18.736  0.00  0.00    +0.000 OA
ATOM      8  C   UNL     1       5.311   5.631  17.636  0.00  0.00    +0.000 C 
ATOM      9  N   UNL     1       3.977   5.339  17.403  0.00  0.00    +0.000 N 
ATOM     10  H   UNL     1       3.655   5.315  16.446  0.00  0.00    +0.000 HD
BRANCH   8  11
ATOM     11  C   UNL     1       6.156   5.919  16.402  0.00  0.00    +0.000 C 
BRANCH  11  12
ATOM     12  C   UNL     1       7.044   4.774  15.926  0.00  0.00    +0.000 C 
BRANCH  12  13
ATOM     13  C   UNL     1       6.934   4.555  14.439  0.00  0.00    +0.000 A 
ATOM     14  C   UNL     1       6.005   3.640  13.924  0.00  0.00    +0.000 A 
ATOM     15  C   UNL     1       5.928   3.410  12.550  0.00  0.00    +0.000 A 
ATOM     16  C   UNL     1       6.780   4.089  11.681  0.00  0.00    +0.000 A 
ATOM     17  C   UNL     1       7.702   5.006  12.184  0.00  0.00    +0.000 A 
ATOM     18  C   UNL     1       7.779   5.239  13.557  0.00  0.00    +0.000 A 
ENDBRANCH  12  13
ENDBRANCH  11  12
ENDBRANCH   8  11
ENDBRANCH   1   9
BRANCH   5  19
ATOM     19  C   UNL     1       1.631   7.069  21.420  0.00  0.00    +0.000 C 
BRANCH  19  20
ATOM     20  N   UNL     1       0.765   8.135  20.962  0.00  0.00    +0.000 N 
ATOM     21  C   UNL     1       0.771   9.358  21.610  0.00  0.00    +0.000 C 
ATOM     22  O   UNL     1       1.476   9.606  22.576  0.00  0.00    +0.000 OA
ATOM     23  H   UNL     1       0.392   8.081  20.026  0.00  0.00    +0.000 HD
BRANCH  21  24
ATOM     24  C   UNL     1      -0.146  10.400  21.060  0.00  0.00    +0.000 A 
ATOM     25  C   UNL     1      -0.496  11.493  21.861  0.00  0.00    +0.000 A 
ATOM     26  C   UNL     1      -1.399  12.437  21.385  0.00  0.00    +0.000 A 
ATOM     27  C   UNL     1      -1.983  12.276  20.125  0.00  0.00    +0.000 A 
ATOM     28  C   UNL     1      -1.674  11.177  19.303  0.00  0.00    +0.000 A 
ATOM     29  C   UNL     1      -0.726  10.254  19.789  0.00  0.00    +0.000 A 
BRANCH  28  30
ATOM     30  C   UNL     1      -2.376  10.964  18.012  0.00  0.00    +0.000 A 
ATOM     31  C   UNL     1      -3.564  11.647  17.693  0.00  0.00    +0.000 A 
ATOM     32  C   UNL     1      -4.266  11.382  16.512  0.00  0.00    +0.000 A 
ATOM     33  C   UNL     1      -3.783  10.442  15.610  0.00  0.00    +0.000 A 
ATOM     34  C   UNL     1      -2.597   9.770  15.884  0.00  0.00    +0.000 A 
ATOM     35  C   UNL     1      -1.906  10.026  17.072  0.00  0.00    +0.000 A 
ENDBRANCH  28  30
ENDBRANCH  21  24
ENDBRANCH  19  20
ENDBRANCH   5  19
TORSDOF 8
ENDMDL
MODEL 2
REMARK VINA RESULT:      -8.9      2.303     11.096
REMARK  Name = 
REMARK  8 active torsions:
REMARK  status: ('A' for Active; 'I' for Inactive)
REMARK    1  A    between atoms: C_2  and  C_3
REMARK    2  A    between atoms: C_3  and  C_4
REMARK    3  A    between atoms: C_4  and  C_5
REMARK    4  A    between atoms: N_11  and  C_12
REMARK    5  A    between atoms: C_16  and  C_17
REMARK    6  A    between atoms: C_17  and  N_18
REMARK    7  A    between atoms: C_19  and  C_21
REMARK    8  A    between atoms: C_25  and  C_26
REMARK                            x       y       z     vdW  Elec       q    Type
REMARK                         _______ _______ _______ _____ _____    ______ ____
ROOT
ATOM      1  C   UNL     1       0.383   9.892  20.171  0.00  0.00    +0.000 A 
ATOM      2  C   UNL     1       0.857  10.423  18.973  0.00  0.00    +0.000 A 
ATOM      3  C   UNL     1       1.727   9.692  18.164  0.00  0.00    +0.000 A 
ATOM      4  C   UNL     1       2.149   8.423  18.552  0.00  0.00    +0.000 A 
ATOM      5  C   UNL     1       1.673   7.849  19.737  0.00  0.00    +0.000 A 
ATOM      6  C   UNL     1       0.774   8.588  20.531  0.00  0.00    +0.000 A 
ENDROOT
BRANCH   1   9
ATOM      7  O   UNL     1       0.498  10.059  23.125  0.00  0.00    +0.000 OA
ATOM      8  C   UNL     1      -0.383  10.594  22.453  0.00  0.00    +0.000 C 
ATOM      9  N   UNL     1      -0.444  10.609  21.068  0.00  0.00    +0.000 N 
ATOM     10  H   UNL     1      -1.185  11.136  20.631  0.00  0.00    +0.000 HD
BRANCH   8  11
ATOM     11  C   UNL     1      -1.480  11.364  23.177  0.00  0.00    +0.000 C 
BRANCH  11  12
ATOM     12  C   UNL     1      -1.881  12.694  22.546  0.00  0.00    +0.000 C 
BRANCH  12  13
ATOM     13  C   UNL     1      -3.350  12.738  22.210  0.00  0.00    +0.000 A 
ATOM     14  C   UNL     1      -3.776  12.655  20.877  0.00  0.00    +0.000 A 
ATOM     15  C   UNL     1      -5.133  12.733  20.563  0.00  0.00    +0.000 A 
ATOM     16  C   UNL     1      -6.074  12.898  21.577  0.00  0.00    +0.000 A 
ATOM     17  C   UNL     1      -5.661  12.974  22.906  0.00  0.00    +0.000 A 
ATOM     18  C   UNL     1      -4.305  12.895  23.222  0.00  0.00    +0.000 A 
ENDBRANCH  12  13
ENDBRANCH  11  12
ENDBRANCH   8  11
ENDBRANCH   1   9
BRANCH   5  19
ATOM     19  C   UNL     1       2.155   6.481  20.153  0.00  0.00    +0.000 C 
BRANCH  19  20
ATOM     20  N   UNL     1       3.445   6.164  19.577  0.00  0.00    +0.000 N 
ATOM     21  C   UNL     1       3.529   5.296  18.502  0.00  0.00    +0.000 C 
ATOM     22  O   UNL     1       2.558   4.759  17.992  0.00  0.00    +0.000 OA
ATOM     23  H   UNL     1       4.219   6.783  19.766  0.00  0.00    +0.000 HD
BRANCH  21  24
ATOM     24  C   UNL     1       4.899   5.039  17.969  0.00  0.00    +0.000 A 
ATOM     25  C   UNL     1       5.999   5.162  18.826  0.00  0.00    +0.000 A 
ATOM     26  C   UNL     1       7.286   4.987  18.328  0.00  0.00    +0.000 A 
ATOM     27  C   UNL     1       7.482   4.726  16.969  0.00  0.00    +0.000 A 
ATOM     28  C   UNL     1       6.402   4.621  16.073  0.00  0.00    +0.000 A 
ATOM     29  C   UNL     1       5.106   4.762  16.607  0.00  0.00    +0.000 A 
BRANCH  28  30
ATOM     30  C   UNL     1       6.628   4.445  14.617  0.00  0.00    +0.000 A 
ATOM     31  C   UNL     1       7.583   5.207  13.917  0.00  0.00    +0.000 A 
ATOM     32  C   UNL     1       7.734   5.096  12.531  0.00  0.00    +0.000 A 
ATOM     33  C   UNL     1       6.949   4.202  11.813  0.00  0.00    +0.000 A 
ATOM     34  C   UNL     1       6.016   3.415  12.479  0.00  0.00    +0.000 A 
ATOM     35  C   UNL     1       5.857   3.540  13.863  0.00  0.00    +0.000 A 
ENDBRANCH  28  30
ENDBRANCH  21  24
ENDBRANCH  19  20
ENDBRANCH   5  19
TORSDOF 8
ENDMDL
MODEL 3
REMARK VINA RESULT:      -8.9      2.090      3.376
REMARK  Name = 
REMARK  8 active torsions:
REMARK  status: ('A' for Active; 'I' for Inactive)
REMARK    1  A    between atoms: C_2  and  C_3
REMARK    2  A    between atoms: C_3  and  C_4
REMARK    3  A    between atoms: C_4  and  C_5
REMARK    4  A    between atoms: N_11  and  C_12
REMARK    5  A    between atoms: C_16  and  C_17
REMARK    6  A    between atoms: C_17  and  N_18
REMARK    7  A    between atoms: C_19  and  C_21
REMARK    8  A    between atoms: C_25  and  C_26
REMARK                            x       y       z     vdW  Elec       q    Type
REMARK                         _______ _______ _______ _____ _____    ______ ____
ROOT
ATOM      1  C   UNL     1       3.529   6.029  18.507  0.00  0.00    +0.000 A 
ATOM      2  C   UNL     1       2.952   5.690  19.730  0.00  0.00    +0.000 A 
ATOM      3  C   UNL     1       2.071   6.563  20.368  0.00  0.00    +0.000 A 
ATOM      4  C   UNL     1       1.768   7.797  19.800  0.00  0.00    +0.000 A 
ATOM      5  C   UNL     1       2.310   8.158  18.560  0.00  0.00    +0.000 A 
ATOM      6  C   UNL     1       3.176   7.256  17.912  0.00  0.00    +0.000 A 
ENDROOT
BRANCH   1   9
ATOM      7  O   UNL     1       6.417   6.494  18.055  0.00  0.00    +0.000 OA
ATOM      8  C   UNL     1       5.812   5.523  17.603  0.00  0.00    +0.000 C 
ATOM      9  N   UNL     1       4.481   5.219  17.843  0.00  0.00    +0.000 N 
ATOM     10  H   UNL     1       4.114   4.358  17.465  0.00  0.00    +0.000 HD
BRANCH   8  11
ATOM     11  C   UNL     1       6.582   4.521  16.752  0.00  0.00    +0.000 C 
BRANCH  11  12
ATOM     12  C   UNL     1       5.766   3.794  15.687  0.00  0.00    +0.000 C 
BRANCH  12  13
ATOM     13  C   UNL     1       6.293   4.054  14.299  0.00  0.00    +0.000 A 
ATOM     14  C   UNL     1       5.809   3.319  13.208  0.00  0.00    +0.000 A 
ATOM     15  C   UNL     1       6.322   3.533  11.928  0.00  0.00    +0.000 A 
ATOM     16  C   UNL     1       7.325   4.481  11.729  0.00  0.00    +0.000 A 
ATOM     17  C   UNL     1       7.806   5.221  12.807  0.00  0.00    +0.000 A 
ATOM     18  C   UNL     1       7.293   5.010  14.087  0.00  0.00    +0.000 A 
ENDBRANCH  12  13
ENDBRANCH  11  12
ENDBRANCH   8  11
ENDBRANCH   1   9
BRANCH   5  19
ATOM     19  C   UNL     1       1.986   9.508  17.965  0.00  0.00    +0.000 C 
BRANCH  19  20
ATOM     20  N   UNL     1       0.575   9.644  17.672  0.00  0.00    +0.000 N 
ATOM     21  C   UNL     1      -0.187  10.578  18.353  0.00  0.00    +0.000 C 
ATOM     22  O   UNL     1       0.263  11.316  19.215  0.00  0.00    +0.000 OA
ATOM     23  H   UNL     1       0.229   9.277  16.797  0.00  0.00    +0.000 HD
BRANCH  21  24
ATOM     24  C   UNL     1      -1.629  10.654  17.974  0.00  0.00    +0.000 A 
ATOM     25  C   UNL     1      -2.045  10.102  16.757  0.00  0.00    +0.000 A 
ATOM     26  C   UNL     1      -3.373  10.222  16.362  0.00  0.00    +0.000 A 
ATOM     27  C   UNL     1      -4.282  10.922  17.161  0.00  0.00    +0.000 A 
ATOM     28  C   UNL     1      -3.894  11.512  18.378  0.00  0.00    +0.000 A 
ATOM     29  C   UNL     1      -2.552  11.343  18.778  0.00  0.00    +0.000 A 
BRANCH  28  30
ATOM     30  C   UNL     1      -4.842  12.338  19.167  0.00  0.00    +0.000 A 
ATOM     31  C   UNL     1      -4.496  12.865  20.426  0.00  0.00    +0.000 A 
ATOM     32  C   UNL     1      -5.421  13.571  21.202  0.00  0.00    +0.000 A 
ATOM     33  C   UNL     1      -6.709  13.788  20.727  0.00  0.00    +0.000 A 
ATOM     34  C   UNL     1      -7.072  13.304  19.476  0.00  0.00    +0.000 A 
ATOM     35  C   UNL     1      -6.150  12.585  18.709  0.00  0.00    +0.000 A 
ENDBRANCH  28  30
ENDBRANCH  21  24
ENDBRANCH  19  20
ENDBRANCH   5  19
TORSDOF 8
ENDMDL
MODEL 4
REMARK VINA RESULT:      -8.8      2.578      3.856
REMARK  Name = 
REMARK  8 active torsions:
REMARK  status: ('A' for Active; 'I' for Inactive)
REMARK    1  A    between atoms: C_2  and  C_3
REMARK    2  A    between atoms: C_3  and  C_4
REMARK    3  A    between atoms: C_4  and  C_5
REMARK    4  A    between atoms: N_11  and  C_12
REMARK    5  A    between atoms: C_16  and  C_17
REMARK    6  A    between atoms: C_17  and  N_18
REMARK    7  A    between atoms: C_19  and  C_21
REMARK    8  A    between atoms: C_25  and  C_26
REMARK                            x       y       z     vdW  Elec       q    Type
REMARK                         _______ _______ _______ _____ _____    ______ ____
ROOT
ATOM      1  C   UNL     1       2.947   6.773  18.427  0.00  0.00    +0.000 A 
ATOM      2  C   UNL     1       2.594   6.392  19.720  0.00  0.00    +0.000 A 
ATOM      3  C   UNL     1       1.828   7.233  20.527  0.00  0.00    +0.000 A 
ATOM      4  C   UNL     1       1.417   8.477  20.056  0.00  0.00    +0.000 A 
ATOM      5  C   UNL     1       1.733   8.881  18.753  0.00  0.00    +0.000 A 
ATOM      6  C   UNL     1       2.484   8.010  17.939  0.00  0.00    +0.000 A 
ENDROOT
BRANCH   1   9
ATOM      7  O   UNL     1       2.671   3.950  17.581  0.00  0.00    +0.000 OA
ATOM      8  C   UNL     1       3.634   4.653  17.279  0.00  0.00    +0.000 C 
ATOM      9  N   UNL     1       3.779   5.997  17.585  0.00  0.00    +0.000 N 
ATOM     10  H   UNL     1       4.589   6.482  17.228  0.00  0.00    +0.000 HD
BRANCH   8  11
ATOM     11  C   UNL     1       4.751   4.035  16.446  0.00  0.00    +0.000 C 
BRANCH  11  12
ATOM     12  C   UNL     1       5.826   5.002  15.960  0.00  0.00    +0.000 C 
BRANCH  12  13
ATOM     13  C   UNL     1       6.258   4.701  14.548  0.00  0.00    +0.000 A 
ATOM     14  C   UNL     1       5.543   3.782  13.768  0.00  0.00    +0.000 A 
ATOM     15  C   UNL     1       5.964   3.475  12.474  0.00  0.00    +0.000 A 
ATOM     16  C   UNL     1       7.104   4.081  11.950  0.00  0.00    +0.000 A 
ATOM     17  C   UNL     1       7.818   5.002  12.716  0.00  0.00    +0.000 A 
ATOM     18  C   UNL     1       7.397   5.312  14.009  0.00  0.00    +0.000 A 
ENDBRANCH  12  13
ENDBRANCH  11  12
ENDBRANCH   8  11
ENDBRANCH   1   9
BRANCH   5  19
ATOM     19  C   UNL     1       1.296  10.241  18.263  0.00  0.00    +0.000 C 
BRANCH  19  20
ATOM     20  N   UNL     1      -0.123  10.284  17.980  0.00  0.00    +0.000 N 
ATOM     21  C   UNL     1      -0.829  11.461  18.158  0.00  0.00    +0.000 C 
ATOM     22  O   UNL     1      -0.322  12.498  18.554  0.00  0.00    +0.000 OA
ATOM     23  H   UNL     1      -0.517   9.562  17.395  0.00  0.00    +0.000 HD
BRANCH  21  24
ATOM     24  C   UNL     1      -2.285  11.411  17.830  0.00  0.00    +0.000 A 
ATOM     25  C   UNL     1      -2.678  11.165  16.509  0.00  0.00    +0.000 A 
ATOM     26  C   UNL     1      -4.028  11.180  16.177  0.00  0.00    +0.000 A 
ATOM     27  C   UNL     1      -4.987  11.475  17.150  0.00  0.00    +0.000 A 
ATOM     28  C   UNL     1      -4.627  11.753  18.482  0.00  0.00    +0.000 A 
ATOM     29  C   UNL     1      -3.256  11.693  18.804  0.00  0.00    +0.000 A 
BRANCH  28  30
ATOM     30  C   UNL     1      -5.644  12.163  19.482  0.00  0.00    +0.000 A 
ATOM     31  C   UNL     1      -6.616  11.266  19.962  0.00  0.00    +0.000 A 
ATOM     32  C   UNL     1      -7.623  11.679  20.840  0.00  0.00    +0.000 A 
ATOM     33  C   UNL     1      -7.669  12.996  21.279  0.00  0.00    +0.000 A 
ATOM     34  C   UNL     1      -6.706  13.901  20.844  0.00  0.00    +0.000 A 
ATOM     35  C   UNL     1      -5.710  13.488  19.954  0.00  0.00    +0.000 A 
ENDBRANCH  28  30
ENDBRANCH  21  24
ENDBRANCH  19  20
ENDBRANCH   5  19
TORSDOF 8
ENDMDL
MODEL 5
REMARK VINA RESULT:      -8.8      2.944     11.308
REMARK  Name = 
REMARK  8 active torsions:
REMARK  status: ('A' for Active; 'I' for Inactive)
REMARK    1  A    between atoms: C_2  and  C_3
REMARK    2  A    between atoms: C_3  and  C_4
REMARK    3  A    between atoms: C_4  and  C_5
REMARK    4  A    between atoms: N_11  and  C_12
REMARK    5  A    between atoms: C_16  and  C_17
REMARK    6  A    between atoms: C_17  and  N_18
REMARK    7  A    between atoms: C_19  and  C_21
REMARK    8  A    between atoms: C_25  and  C_26
REMARK                            x       y       z     vdW  Elec       q    Type
REMARK                         _______ _______ _______ _____ _____    ______ ____
ROOT
ATOM      1  C   UNL     1      -2.734  11.600  18.649  0.00  0.00    +0.000 A 
ATOM      2  C   UNL     1      -2.979  10.861  17.493  0.00  0.00    +0.000 A 
ATOM      3  C   UNL     1      -2.025   9.970  17.001  0.00  0.00    +0.000 A 
ATOM      4  C   UNL     1      -0.803   9.819  17.650  0.00  0.00    +0.000 A 
ATOM      5  C   UNL     1      -0.534  10.527  18.828  0.00  0.00    +0.000 A 
ATOM      6  C   UNL     1      -1.517  11.403  19.329  0.00  0.00    +0.000 A 
ENDROOT
BRANCH   1   9
ATOM      7  O   UNL     1      -5.627  11.374  19.233  0.00  0.00    +0.000 OA
ATOM      8  C   UNL     1      -4.997  12.423  19.348  0.00  0.00    +0.000 C 
ATOM      9  N   UNL     1      -3.631  12.569  19.159  0.00  0.00    +0.000 N 
ATOM     10  H   UNL     1      -3.219  13.471  19.343  0.00  0.00    +0.000 HD
BRANCH   8  11
ATOM     11  C   UNL     1      -5.744  13.674  19.793  0.00  0.00    +0.000 C 
BRANCH  11  12
ATOM     12  C   UNL     1      -5.082  14.479  20.907  0.00  0.00    +0.000 C 
BRANCH  12  13
ATOM     13  C   UNL     1      -5.041  13.716  22.206  0.00  0.00    +0.000 A 
ATOM     14  C   UNL     1      -6.231  13.358  22.857  0.00  0.00    +0.000 A 
ATOM     15  C   UNL     1      -6.193  12.684  24.077  0.00  0.00    +0.000 A 
ATOM     16  C   UNL     1      -4.968  12.365  24.659  0.00  0.00    +0.000 A 
ATOM     17  C   UNL     1      -3.780  12.709  24.016  0.00  0.00    +0.000 A 
ATOM     18  C   UNL     1      -3.816  13.381  22.795  0.00  0.00    +0.000 A 
ENDBRANCH  12  13
ENDBRANCH  11  12
ENDBRANCH   8  11
ENDBRANCH   1   9
BRANCH   5  19
ATOM     19  C   UNL     1       0.803  10.367  19.510  0.00  0.00    +0.000 C 
BRANCH  19  20
ATOM     20  N   UNL     1       1.373   9.056  19.281  0.00  0.00    +0.000 N 
ATOM     21  C   UNL     1       1.528   8.174  20.337  0.00  0.00    +0.000 C 
ATOM     22  O   UNL     1       1.211   8.437  21.487  0.00  0.00    +0.000 OA
ATOM     23  H   UNL     1       1.380   8.694  18.339  0.00  0.00    +0.000 HD
BRANCH  21  24
ATOM     24  C   UNL     1       2.113   6.842  20.003  0.00  0.00    +0.000 A 
ATOM     25  C   UNL     1       1.739   5.724  20.758  0.00  0.00    +0.000 A 
ATOM     26  C   UNL     1       2.324   4.489  20.499  0.00  0.00    +0.000 A 
ATOM     27  C   UNL     1       3.308   4.372  19.512  0.00  0.00    +0.000 A 
ATOM     28  C   UNL     1       3.727   5.479  18.751  0.00  0.00    +0.000 A 
ATOM     29  C   UNL     1       3.091   6.712  19.003  0.00  0.00    +0.000 A 
BRANCH  28  30
ATOM     30  C   UNL     1       4.841   5.363  17.779  0.00  0.00    +0.000 A 
ATOM     31  C   UNL     1       4.773   5.946  16.499  0.00  0.00    +0.000 A 
ATOM     32  C   UNL     1       5.789   5.764  15.556  0.00  0.00    +0.000 A 
ATOM     33  C   UNL     1       6.913   5.012  15.878  0.00  0.00    +0.000 A 
ATOM     34  C   UNL     1       7.023   4.447  17.143  0.00  0.00    +0.000 A 
ATOM     35  C   UNL     1       5.998   4.617  18.078  0.00  0.00    +0.000 A 
ENDBRANCH  28  30
ENDBRANCH  21  24
ENDBRANCH  19  20
ENDBRANCH   5  19
TORSDOF 8
ENDMDL
MODEL 6
REMARK VINA RESULT:      -8.7      2.790      4.270
REMARK  Name = 
REMARK  8 active torsions:
REMARK  status: ('A' for Active; 'I' for Inactive)
REMARK    1  A    between atoms: C_2  and  C_3
REMARK    2  A    between atoms: C_3  and  C_4
REMARK    3  A    between atoms: C_4  and  C_5
REMARK    4  A    between atoms: N_11  and  C_12
REMARK    5  A    between atoms: C_16  and  C_17
REMARK    6  A    between atoms: C_17  and  N_18
REMARK    7  A    between atoms: C_19  and  C_21
REMARK    8  A    between atoms: C_25  and  C_26
REMARK                            x       y       z     vdW  Elec       q    Type
REMARK                         _______ _______ _______ _____ _____    ______ ____
ROOT
ATOM      1  C   UNL     1       2.600   4.918  18.217  0.00  0.00    +0.000 A 
ATOM      2  C   UNL     1       1.853   3.832  18.670  0.00  0.00    +0.000 A 
ATOM      3  C   UNL     1       1.106   3.922  19.845  0.00  0.00    +0.000 A 
ATOM      4  C   UNL     1       1.110   5.096  20.593  0.00  0.00    +0.000 A 
ATOM      5  C   UNL     1       1.829   6.214  20.153  0.00  0.00    +0.000 A 
ATOM      6  C   UNL     1       2.558   6.119  18.951  0.00  0.00    +0.000 A 
ENDROOT
BRANCH   1   9
ATOM      7  O   UNL     1       4.598   2.883  17.422  0.00  0.00    +0.000 OA
ATOM      8  C   UNL     1       4.402   3.919  16.788  0.00  0.00    +0.000 C 
ATOM      9  N   UNL     1       3.433   4.867  17.073  0.00  0.00    +0.000 N 
ATOM     10  H   UNL     1       3.329   5.647  16.440  0.00  0.00    +0.000 HD
BRANCH   8  11
ATOM     11  C   UNL     1       5.242   4.178  15.543  0.00  0.00    +0.000 C 
BRANCH  11  12
ATOM     12  C   UNL     1       6.753   4.170  15.752  0.00  0.00    +0.000 C 
BRANCH  12  13
ATOM     13  C   UNL     1       7.179   5.143  16.822  0.00  0.00    +0.000 A 
ATOM     14  C   UNL     1       7.127   6.524  16.586  0.00  0.00    +0.000 A 
ATOM     15  C   UNL     1       7.555   7.424  17.563  0.00  0.00    +0.000 A 
ATOM     16  C   UNL     1       8.042   6.952  18.780  0.00  0.00    +0.000 A 
ATOM     17  C   UNL     1       8.091   5.580  19.026  0.00  0.00    +0.000 A 
ATOM     18  C   UNL     1       7.661   4.679  18.052  0.00  0.00    +0.000 A 
ENDBRANCH  12  13
ENDBRANCH  11  12
ENDBRANCH   8  11
ENDBRANCH   1   9
BRANCH   5  19
ATOM     19  C   UNL     1       1.838   7.473  20.985  0.00  0.00    +0.000 C 
BRANCH  19  20
ATOM     20  N   UNL     1       1.381   8.622  20.231  0.00  0.00    +0.000 N 
ATOM     21  C   UNL     1       0.332   9.390  20.707  0.00  0.00    +0.000 C 
ATOM     22  O   UNL     1      -0.256   9.154  21.751  0.00  0.00    +0.000 OA
ATOM     23  H   UNL     1       1.999   9.017  19.537  0.00  0.00    +0.000 HD
BRANCH  21  24
ATOM     24  C   UNL     1      -0.062  10.560  19.868  0.00  0.00    +0.000 A 
ATOM     25  C   UNL     1      -1.252  10.502  19.132  0.00  0.00    +0.000 A 
ATOM     26  C   UNL     1      -1.598  11.558  18.297  0.00  0.00    +0.000 A 
ATOM     27  C   UNL     1      -0.745  12.657  18.165  0.00  0.00    +0.000 A 
ATOM     28  C   UNL     1       0.471  12.738  18.869  0.00  0.00    +0.000 A 
ATOM     29  C   UNL     1       0.782  11.675  19.740  0.00  0.00    +0.000 A 
BRANCH  28  30
ATOM     30  C   UNL     1       1.414  13.861  18.644  0.00  0.00    +0.000 A 
ATOM     31  C   UNL     1       2.742  13.642  18.230  0.00  0.00    +0.000 A 
ATOM     32  C   UNL     1       3.651  14.697  18.100  0.00  0.00    +0.000 A 
ATOM     33  C   UNL     1       3.247  16.002  18.358  0.00  0.00    +0.000 A 
ATOM     34  C   UNL     1       1.935  16.253  18.742  0.00  0.00    +0.000 A 
ATOM     35  C   UNL     1       1.033  15.195  18.886  0.00  0.00    +0.000 A 
ENDBRANCH  28  30
ENDBRANCH  21  24
ENDBRANCH  19  20
ENDBRANCH   5  19
TORSDOF 8
ENDMDL
MODEL 7
REMARK VINA RESULT:      -8.6      3.422      5.237
REMARK  Name = 
REMARK  8 active torsions:
REMARK  status: ('A' for Active; 'I' for Inactive)
REMARK    1  A    between atoms: C_2  and  C_3
REMARK    2  A    between atoms: C_3  and  C_4
REMARK    3  A    between atoms: C_4  and  C_5
REMARK    4  A    between atoms: N_11  and  C_12
REMARK    5  A    between atoms: C_16  and  C_17
REMARK    6  A    between atoms: C_17  and  N_18
REMARK    7  A    between atoms: C_19  and  C_21
REMARK    8  A    between atoms: C_25  and  C_26
REMARK                            x       y       z     vdW  Elec       q    Type
REMARK                         _______ _______ _______ _____ _____    ______ ____
ROOT
ATOM      1  C   UNL     1       2.577   7.062  18.438  0.00  0.00    +0.000 A 
ATOM      2  C   UNL     1       2.599   8.131  17.544  0.00  0.00    +0.000 A 
ATOM      3  C   UNL     1       2.035   9.359  17.890  0.00  0.00    +0.000 A 
ATOM      4  C   UNL     1       1.424   9.529  19.129  0.00  0.00    +0.000 A 
ATOM      5  C   UNL     1       1.407   8.484  20.060  0.00  0.00    +0.000 A 
ATOM      6  C   UNL     1       2.005   7.257  19.709  0.00  0.00    +0.000 A 
ENDROOT
BRANCH   1   9
ATOM      7  O   UNL     1       5.370   6.088  18.294  0.00  0.00    +0.000 OA
ATOM      8  C   UNL     1       4.398   5.393  18.003  0.00  0.00    +0.000 C 
ATOM      9  N   UNL     1       3.070   5.773  18.121  0.00  0.00    +0.000 N 
ATOM     10  H   UNL     1       2.359   5.089  17.908  0.00  0.00    +0.000 HD
BRANCH   8  11
ATOM     11  C   UNL     1       4.643   3.967  17.526  0.00  0.00    +0.000 C 
BRANCH  11  12
ATOM     12  C   UNL     1       3.420   3.055  17.512  0.00  0.00    +0.000 C 
BRANCH  12  13
ATOM     13  C   UNL     1       2.766   2.968  18.867  0.00  0.00    +0.000 A 
ATOM     14  C   UNL     1       1.382   3.146  18.999  0.00  0.00    +0.000 A 
ATOM     15  C   UNL     1       0.781   3.101  20.258  0.00  0.00    +0.000 A 
ATOM     16  C   UNL     1       1.558   2.882  21.393  0.00  0.00    +0.000 A 
ATOM     17  C   UNL     1       2.934   2.696  21.270  0.00  0.00    +0.000 A 
ATOM     18  C   UNL     1       3.536   2.738  20.013  0.00  0.00    +0.000 A 
ENDBRANCH  12  13
ENDBRANCH  11  12
ENDBRANCH   8  11
ENDBRANCH   1   9
BRANCH   5  19
ATOM     19  C   UNL     1       0.725   8.677  21.393  0.00  0.00    +0.000 C 
BRANCH  19  20
ATOM     20  N   UNL     1      -0.087   9.875  21.415  0.00  0.00    +0.000 N 
ATOM     21  C   UNL     1      -0.372  10.498  22.618  0.00  0.00    +0.000 C 
ATOM     22  O   UNL     1       0.025  10.089  23.698  0.00  0.00    +0.000 OA
ATOM     23  H   UNL     1      -0.192  10.399  20.558  0.00  0.00    +0.000 HD
BRANCH  21  24
ATOM     24  C   UNL     1      -1.206  11.733  22.540  0.00  0.00    +0.000 A 
ATOM     25  C   UNL     1      -2.424  11.778  23.231  0.00  0.00    +0.000 A 
ATOM     26  C   UNL     1      -3.241  12.897  23.116  0.00  0.00    +0.000 A 
ATOM     27  C   UNL     1      -2.866  13.957  22.286  0.00  0.00    +0.000 A 
ATOM     28  C   UNL     1      -1.662  13.935  21.557  0.00  0.00    +0.000 A 
ATOM     29  C   UNL     1      -0.831  12.809  21.720  0.00  0.00    +0.000 A 
BRANCH  28  30
ATOM     30  C   UNL     1      -1.324  15.020  20.603  0.00  0.00    +0.000 A 
ATOM     31  C   UNL     1      -2.068  16.214  20.543  0.00  0.00    +0.000 A 
ATOM     32  C   UNL     1      -1.798  17.198  19.586  0.00  0.00    +0.000 A 
ATOM     33  C   UNL     1      -0.760  17.022  18.679  0.00  0.00    +0.000 A 
ATOM     34  C   UNL     1       0.011  15.866  18.731  0.00  0.00    +0.000 A 
ATOM     35  C   UNL     1      -0.272  14.877  19.678  0.00  0.00    +0.000 A 
ENDBRANCH  28  30
ENDBRANCH  21  24
ENDBRANCH  19  20
ENDBRANCH   5  19
TORSDOF 8
ENDMDL
MODEL 8
REMARK VINA RESULT:      -8.5      2.571     11.320
REMARK  Name = 
REMARK  8 active torsions:
REMARK  status: ('A' for Active; 'I' for Inactive)
REMARK    1  A    between atoms: C_2  and  C_3
REMARK    2  A    between atoms: C_3  and  C_4
REMARK    3  A    between atoms: C_4  and  C_5
REMARK    4  A    between atoms: N_11  and  C_12
REMARK    5  A    between atoms: C_16  and  C_17
REMARK    6  A    between atoms: C_17  and  N_18
REMARK    7  A    between atoms: C_19  and  C_21
REMARK    8  A    between atoms: C_25  and  C_26
REMARK                            x       y       z     vdW  Elec       q    Type
REMARK                         _______ _______ _______ _____ _____    ______ ____
ROOT
ATOM      1  C   UNL     1       0.716  10.110  20.238  0.00  0.00    +0.000 A 
ATOM      2  C   UNL     1       1.036  10.569  18.962  0.00  0.00    +0.000 A 
ATOM      3  C   UNL     1       1.711   9.748  18.058  0.00  0.00    +0.000 A 
ATOM      4  C   UNL     1       2.092   8.461  18.426  0.00  0.00    +0.000 A 
ATOM      5  C   UNL     1       1.764   7.960  19.692  0.00  0.00    +0.000 A 
ATOM      6  C   UNL     1       1.058   8.789  20.585  0.00  0.00    +0.000 A 
ENDROOT
BRANCH   1   9
ATOM      7  O   UNL     1      -0.378  12.852  20.021  0.00  0.00    +0.000 OA
ATOM      8  C   UNL     1      -0.338  12.225  21.078  0.00  0.00    +0.000 C 
ATOM      9  N   UNL     1       0.094  10.916  21.223  0.00  0.00    +0.000 N 
ATOM     10  H   UNL     1       0.022  10.489  22.134  0.00  0.00    +0.000 HD
BRANCH   8  11
ATOM     11  C   UNL     1      -0.858  12.898  22.342  0.00  0.00    +0.000 C 
BRANCH  11  12
ATOM     12  C   UNL     1      -1.845  12.080  23.169  0.00  0.00    +0.000 C 
BRANCH  12  13
ATOM     13  C   UNL     1      -3.255  12.594  23.035  0.00  0.00    +0.000 A 
ATOM     14  C   UNL     1      -3.906  12.564  21.793  0.00  0.00    +0.000 A 
ATOM     15  C   UNL     1      -5.198  13.073  21.660  0.00  0.00    +0.000 A 
ATOM     16  C   UNL     1      -5.849  13.618  22.765  0.00  0.00    +0.000 A 
ATOM     17  C   UNL     1      -5.213  13.645  24.005  0.00  0.00    +0.000 A 
ATOM     18  C   UNL     1      -3.922  13.135  24.141  0.00  0.00    +0.000 A 
ENDBRANCH  12  13
ENDBRANCH  11  12
ENDBRANCH   8  11
ENDBRANCH   1   9
BRANCH   5  19
ATOM     19  C   UNL     1       2.200   6.568  20.083  0.00  0.00    +0.000 C 
BRANCH  19  20
ATOM     20  N   UNL     1       3.484   6.223  19.510  0.00  0.00    +0.000 N 
ATOM     21  C   UNL     1       3.563   5.268  18.510  0.00  0.00    +0.000 C 
ATOM     22  O   UNL     1       2.592   4.674  18.068  0.00  0.00    +0.000 OA
ATOM     23  H   UNL     1       4.251   6.869  19.629  0.00  0.00    +0.000 HD
BRANCH  21  24
ATOM     24  C   UNL     1       4.927   4.988  17.973  0.00  0.00    +0.000 A 
ATOM     25  C   UNL     1       6.028   5.065  18.834  0.00  0.00    +0.000 A 
ATOM     26  C   UNL     1       7.311   4.869  18.333  0.00  0.00    +0.000 A 
ATOM     27  C   UNL     1       7.502   4.631  16.969  0.00  0.00    +0.000 A 
ATOM     28  C   UNL     1       6.421   4.573  16.070  0.00  0.00    +0.000 A 
ATOM     29  C   UNL     1       5.128   4.734  16.606  0.00  0.00    +0.000 A 
BRANCH  28  30
ATOM     30  C   UNL     1       6.644   4.421  14.611  0.00  0.00    +0.000 A 
ATOM     31  C   UNL     1       7.585   5.207  13.919  0.00  0.00    +0.000 A 
ATOM     32  C   UNL     1       7.733   5.120  12.531  0.00  0.00    +0.000 A 
ATOM     33  C   UNL     1       6.958   4.225  11.802  0.00  0.00    +0.000 A 
ATOM     34  C   UNL     1       6.040   3.415  12.460  0.00  0.00    +0.000 A 
ATOM     35  C   UNL     1       5.883   3.516  13.846  0.00  0.00    +0.000 A 
ENDBRANCH  28  30
ENDBRANCH  21  24
ENDBRANCH  19  20
ENDBRANCH   5  19
TORSDOF 8
ENDMDL
MODEL 9
REMARK VINA RESULT:      -8.5      2.457     11.402
REMARK  Name = 
REMARK  8 active torsions:
REMARK  status: ('A' for Active; 'I' for Inactive)
REMARK    1  A    between atoms: C_2  and  C_3
REMARK    2  A    between atoms: C_3  and  C_4
REMARK    3  A    between atoms: C_4  and  C_5
REMARK    4  A    between atoms: N_11  and  C_12
REMARK    5  A    between atoms: C_16  and  C_17
REMARK    6  A    between atoms: C_17  and  N_18
REMARK    7  A    between atoms: C_19  and  C_21
REMARK    8  A    between atoms: C_25  and  C_26
REMARK                            x       y       z     vdW  Elec       q    Type
REMARK                         _______ _______ _______ _____ _____    ______ ____
ROOT
ATOM      1  C   UNL     1       0.387  10.087  19.890  0.00  0.00    +0.000 A 
ATOM      2  C   UNL     1       0.782  10.476  18.611  0.00  0.00    +0.000 A 
ATOM      3  C   UNL     1       1.625   9.666  17.849  0.00  0.00    +0.000 A 
ATOM      4  C   UNL     1       2.098   8.463  18.363  0.00  0.00    +0.000 A 
ATOM      5  C   UNL     1       1.700   8.030  19.634  0.00  0.00    +0.000 A 
ATOM      6  C   UNL     1       0.827   8.844  20.383  0.00  0.00    +0.000 A 
ENDROOT
BRANCH   1   9
ATOM      7  O   UNL     1       1.153  12.425  21.536  0.00  0.00    +0.000 OA
ATOM      8  C   UNL     1       0.023  11.939  21.541  0.00  0.00    +0.000 C 
ATOM      9  N   UNL     1      -0.409  10.894  20.739  0.00  0.00    +0.000 N 
ATOM     10  H   UNL     1      -1.380  10.624  20.791  0.00  0.00    +0.000 HD
BRANCH   8  11
ATOM     11  C   UNL     1      -1.029  12.557  22.453  0.00  0.00    +0.000 C 
BRANCH  11  12
ATOM     12  C   UNL     1      -2.479  12.242  22.099  0.00  0.00    +0.000 C 
BRANCH  12  13
ATOM     13  C   UNL     1      -3.422  13.313  22.583  0.00  0.00    +0.000 A 
ATOM     14  C   UNL     1      -4.502  12.984  23.415  0.00  0.00    +0.000 A 
ATOM     15  C   UNL     1      -5.397  13.969  23.834  0.00  0.00    +0.000 A 
ATOM     16  C   UNL     1      -5.223  15.289  23.422  0.00  0.00    +0.000 A 
ATOM     17  C   UNL     1      -4.148  15.627  22.601  0.00  0.00    +0.000 A 
ATOM     18  C   UNL     1      -3.251  14.644  22.183  0.00  0.00    +0.000 A 
ENDBRANCH  12  13
ENDBRANCH  11  12
ENDBRANCH   8  11
ENDBRANCH   1   9
BRANCH   5  19
ATOM     19  C   UNL     1       2.236   6.731  20.185  0.00  0.00    +0.000 C 
BRANCH  19  20
ATOM     20  N   UNL     1       3.499   6.367  19.578  0.00  0.00    +0.000 N 
ATOM     21  C   UNL     1       3.550   5.348  18.643  0.00  0.00    +0.000 C 
ATOM     22  O   UNL     1       2.571   4.711  18.286  0.00  0.00    +0.000 OA
ATOM     23  H   UNL     1       4.259   7.030  19.619  0.00  0.00    +0.000 HD
BRANCH  21  24
ATOM     24  C   UNL     1       4.893   5.051  18.064  0.00  0.00    +0.000 A 
ATOM     25  C   UNL     1       6.019   5.097  18.894  0.00  0.00    +0.000 A 
ATOM     26  C   UNL     1       7.284   4.886  18.355  0.00  0.00    +0.000 A 
ATOM     27  C   UNL     1       7.433   4.664  16.983  0.00  0.00    +0.000 A 
ATOM     28  C   UNL     1       6.326   4.637  16.114  0.00  0.00    +0.000 A 
ATOM     29  C   UNL     1       5.051   4.813  16.689  0.00  0.00    +0.000 A 
BRANCH  28  30
ATOM     30  C   UNL     1       6.506   4.501  14.647  0.00  0.00    +0.000 A 
ATOM     31  C   UNL     1       5.712   3.627  13.880  0.00  0.00    +0.000 A 
ATOM     32  C   UNL     1       5.941   3.441  12.513  0.00  0.00    +0.000 A 
ATOM     33  C   UNL     1       6.955   4.142  11.873  0.00  0.00    +0.000 A 
ATOM     34  C   UNL     1       7.738   5.034  12.598  0.00  0.00    +0.000 A 
ATOM     35  C   UNL     1       7.518   5.206  13.967  0.00  0.00    +0.000 A 
ENDBRANCH  28  30
ENDBRANCH  21  24
ENDBRANCH  19  20
ENDBRANCH   5  19
TORSDOF 8
ENDMDL
