MODEL 1
REMARK VINA RESULT:      -7.0      0.000      0.000
REMARK  Name = 
REMARK  3 active torsions:
REMARK  status: ('A' for Active; 'I' for Inactive)
REMARK    1  A    between atoms: C_1  and  C_2
REMARK    2  A    between atoms: C_2  and  O_3
REMARK    3  A    between atoms: O_3  and  C_4
REMARK                            x       y       z     vdW  Elec       q    Type
REMARK                         _______ _______ _______ _____ _____    ______ ____
ROOT
ATOM      1  C   UNL     1       5.408   5.507  15.609  0.00  0.00    +0.000 A 
ATOM      2  C   UNL     1       5.027   6.722  16.172  0.00  0.00    +0.000 A 
ATOM      3  C   UNL     1       4.254   6.753  17.336  0.00  0.00    +0.000 A 
ATOM      4  C   UNL     1       3.859   5.569  17.972  0.00  0.00    +0.000 A 
ATOM      5  C   UNL     1       4.236   4.342  17.398  0.00  0.00    +0.000 A 
ATOM      6  C   UNL     1       5.003   4.320  16.223  0.00  0.00    +0.000 A 
ATOM      7  S   UNL     1       3.679   2.772  18.052  0.00  0.00    +0.000 S 
ATOM      8  C   UNL     1       3.530   3.226  19.791  0.00  0.00    +0.000 C 
ATOM      9  C   UNL     1       2.859   4.550  19.977  0.00  0.00    +0.000 A 
ATOM     10  N   UNL     1       2.102   4.819  21.007  0.00  0.00    +0.000 NA
ATOM     11  N   UNL     1       1.798   6.137  20.848  0.00  0.00    +0.000 N 
ATOM     12  C   UNL     1       2.411   6.658  19.710  0.00  0.00    +0.000 A 
ATOM     13  O   UNL     1       2.315   7.818  19.345  0.00  0.00    +0.000 OA
ATOM     14  N   UNL     1       3.087   5.595  19.150  0.00  0.00    +0.000 N 
ATOM     15  H   UNL     1       1.224   6.657  21.501  0.00  0.00    +0.000 HD
ENDROOT
BRANCH   1  16
ATOM     16  O   UNL     1       6.159   5.353  14.477  0.00  0.00    +0.000 OA
BRANCH  16  18
ATOM     17  C   UNL     1       6.115   3.686  12.759  0.00  0.00    +0.000 C 
ATOM     18  C   UNL     1       6.577   4.022  14.165  0.00  0.00    +0.000 C 
ENDBRANCH  16  18
ENDBRANCH   1  16
TORSDOF 2
ENDMDL
MODEL 2
REMARK VINA RESULT:      -6.8      3.421      5.357
REMARK  Name = 
REMARK  3 active torsions:
REMARK  status: ('A' for Active; 'I' for Inactive)
REMARK    1  A    between atoms: C_1  and  C_2
REMARK    2  A    between atoms: C_2  and  O_3
REMARK    3  A    between atoms: O_3  and  C_4
REMARK                            x       y       z     vdW  Elec       q    Type
REMARK                         _______ _______ _______ _____ _____    ______ ____
ROOT
ATOM      1  C   UNL     1       3.288   2.625  18.714  0.00  0.00    +0.000 A 
ATOM      2  C   UNL     1       4.022   3.098  19.798  0.00  0.00    +0.000 A 
ATOM      3  C   UNL     1       5.045   4.032  19.607  0.00  0.00    +0.000 A 
ATOM      4  C   UNL     1       5.344   4.524  18.331  0.00  0.00    +0.000 A 
ATOM      5  C   UNL     1       4.608   4.039  17.236  0.00  0.00    +0.000 A 
ATOM      6  C   UNL     1       3.590   3.093  17.434  0.00  0.00    +0.000 A 
ATOM      7  S   UNL     1       4.991   4.500  15.550  0.00  0.00    +0.000 S 
ATOM      8  C   UNL     1       5.642   6.155  15.848  0.00  0.00    +0.000 C 
ATOM      9  C   UNL     1       6.582   6.194  17.012  0.00  0.00    +0.000 A 
ATOM     10  N   UNL     1       7.604   7.006  17.067  0.00  0.00    +0.000 NA
ATOM     11  N   UNL     1       8.111   6.803  18.314  0.00  0.00    +0.000 N 
ATOM     12  C   UNL     1       7.354   5.865  19.015  0.00  0.00    +0.000 A 
ATOM     13  O   UNL     1       7.582   5.511  20.160  0.00  0.00    +0.000 OA
ATOM     14  N   UNL     1       6.368   5.471  18.134  0.00  0.00    +0.000 N 
ATOM     15  H   UNL     1       8.915   7.301  18.675  0.00  0.00    +0.000 HD
ENDROOT
BRANCH   1  16
ATOM     16  O   UNL     1       2.269   1.714  18.778  0.00  0.00    +0.000 OA
BRANCH  16  18
ATOM     17  C   UNL     1       0.700   3.132  19.899  0.00  0.00    +0.000 C 
ATOM     18  C   UNL     1       0.941   2.236  18.699  0.00  0.00    +0.000 C 
ENDBRANCH  16  18
ENDBRANCH   1  16
TORSDOF 2
ENDMDL
MODEL 3
REMARK VINA RESULT:      -6.8      3.270      5.868
REMARK  Name = 
REMARK  3 active torsions:
REMARK  status: ('A' for Active; 'I' for Inactive)
REMARK    1  A    between atoms: C_1  and  C_2
REMARK    2  A    between atoms: C_2  and  O_3
REMARK    3  A    between atoms: O_3  and  C_4
REMARK                            x       y       z     vdW  Elec       q    Type
REMARK                         _______ _______ _______ _____ _____    ______ ____
ROOT
ATOM      1  C   UNL     1       3.111   2.869  19.032  0.00  0.00    +0.000 A 
ATOM      2  C   UNL     1       2.954   2.623  17.671  0.00  0.00    +0.000 A 
ATOM      3  C   UNL     1       3.840   3.181  16.744  0.00  0.00    +0.000 A 
ATOM      4  C   UNL     1       4.909   3.984  17.160  0.00  0.00    +0.000 A 
ATOM      5  C   UNL     1       5.061   4.240  18.534  0.00  0.00    +0.000 A 
ATOM      6  C   UNL     1       4.162   3.684  19.458  0.00  0.00    +0.000 A 
ATOM      7  S   UNL     1       6.311   5.353  19.165  0.00  0.00    +0.000 S 
ATOM      8  C   UNL     1       7.573   5.111  17.900  0.00  0.00    +0.000 C 
ATOM      9  C   UNL     1       6.999   5.116  16.518  0.00  0.00    +0.000 A 
ATOM     10  N   UNL     1       7.655   5.570  15.483  0.00  0.00    +0.000 NA
ATOM     11  N   UNL     1       6.836   5.286  14.432  0.00  0.00    +0.000 N 
ATOM     12  C   UNL     1       5.684   4.628  14.860  0.00  0.00    +0.000 A 
ATOM     13  O   UNL     1       4.793   4.247  14.120  0.00  0.00    +0.000 OA
ATOM     14  N   UNL     1       5.808   4.543  16.231  0.00  0.00    +0.000 N 
ATOM     15  H   UNL     1       7.068   5.506  13.472  0.00  0.00    +0.000 HD
ENDROOT
BRANCH   1  16
ATOM     16  O   UNL     1       2.310   2.380  20.028  0.00  0.00    +0.000 OA
BRANCH  16  18
ATOM     17  C   UNL     1       0.948   4.299  20.466  0.00  0.00    +0.000 C 
ATOM     18  C   UNL     1       0.958   2.842  20.044  0.00  0.00    +0.000 C 
ENDBRANCH  16  18
ENDBRANCH   1  16
TORSDOF 2
ENDMDL
MODEL 4
REMARK VINA RESULT:      -6.7      3.087      5.881
REMARK  Name = 
REMARK  3 active torsions:
REMARK  status: ('A' for Active; 'I' for Inactive)
REMARK    1  A    between atoms: C_1  and  C_2
REMARK    2  A    between atoms: C_2  and  O_3
REMARK    3  A    between atoms: O_3  and  C_4
REMARK                            x       y       z     vdW  Elec       q    Type
REMARK                         _______ _______ _______ _____ _____    ______ ____
ROOT
ATOM      1  C   UNL     1       2.510   4.259  19.038  0.00  0.00    +0.000 A 
ATOM      2  C   UNL     1       2.335   3.887  17.707  0.00  0.00    +0.000 A 
ATOM      3  C   UNL     1       3.396   3.979  16.801  0.00  0.00    +0.000 A 
ATOM      4  C   UNL     1       4.657   4.429  17.209  0.00  0.00    +0.000 A 
ATOM      5  C   UNL     1       4.831   4.812  18.551  0.00  0.00    +0.000 A 
ATOM      6  C   UNL     1       3.759   4.727  19.452  0.00  0.00    +0.000 A 
ATOM      7  S   UNL     1       6.361   5.521  19.150  0.00  0.00    +0.000 S 
ATOM      8  C   UNL     1       7.513   4.693  18.037  0.00  0.00    +0.000 C 
ATOM      9  C   UNL     1       7.033   4.691  16.620  0.00  0.00    +0.000 A 
ATOM     10  N   UNL     1       7.847   4.748  15.599  0.00  0.00    +0.000 NA
ATOM     11  N   UNL     1       7.024   4.606  14.523  0.00  0.00    +0.000 N 
ATOM     12  C   UNL     1       5.700   4.440  14.925  0.00  0.00    +0.000 A 
ATOM     13  O   UNL     1       4.763   4.277  14.161  0.00  0.00    +0.000 OA
ATOM     14  N   UNL     1       5.731   4.515  16.302  0.00  0.00    +0.000 N 
ATOM     15  H   UNL     1       7.357   4.596  13.567  0.00  0.00    +0.000 HD
ENDROOT
BRANCH   1  16
ATOM     16  O   UNL     1       1.550   4.213  20.011  0.00  0.00    +0.000 OA
BRANCH  16  18
ATOM     17  C   UNL     1       1.676   2.587  21.764  0.00  0.00    +0.000 C 
ATOM     18  C   UNL     1       1.097   2.915  20.400  0.00  0.00    +0.000 C 
ENDBRANCH  16  18
ENDBRANCH   1  16
TORSDOF 2
ENDMDL
MODEL 5
REMARK VINA RESULT:      -6.7      3.068      5.912
REMARK  Name = 
REMARK  3 active torsions:
REMARK  status: ('A' for Active; 'I' for Inactive)
REMARK    1  A    between atoms: C_1  and  C_2
REMARK    2  A    between atoms: C_2  and  O_3
REMARK    3  A    between atoms: O_3  and  C_4
REMARK                            x       y       z     vdW  Elec       q    Type
REMARK                         _______ _______ _______ _____ _____    ______ ____
ROOT
ATOM      1  C   UNL     1       2.095   3.614  18.322  0.00  0.00    +0.000 A 
ATOM      2  C   UNL     1       2.884   2.714  17.611  0.00  0.00    +0.000 A 
ATOM      3  C   UNL     1       4.046   3.148  16.964  0.00  0.00    +0.000 A 
ATOM      4  C   UNL     1       4.450   4.487  17.029  0.00  0.00    +0.000 A 
ATOM      5  C   UNL     1       3.648   5.397  17.739  0.00  0.00    +0.000 A 
ATOM      6  C   UNL     1       2.478   4.956  18.377  0.00  0.00    +0.000 A 
ATOM      7  S   UNL     1       4.000   7.150  17.779  0.00  0.00    +0.000 S 
ATOM      8  C   UNL     1       5.796   7.084  17.626  0.00  0.00    +0.000 C 
ATOM      9  C   UNL     1       6.241   6.115  16.577  0.00  0.00    +0.000 A 
ATOM     10  N   UNL     1       7.316   6.299  15.857  0.00  0.00    +0.000 NA
ATOM     11  N   UNL     1       7.415   5.153  15.127  0.00  0.00    +0.000 N 
ATOM     12  C   UNL     1       6.387   4.267  15.445  0.00  0.00    +0.000 A 
ATOM     13  O   UNL     1       6.251   3.162  14.947  0.00  0.00    +0.000 OA
ATOM     14  N   UNL     1       5.624   4.927  16.386  0.00  0.00    +0.000 N 
ATOM     15  H   UNL     1       8.163   4.977  14.468  0.00  0.00    +0.000 HD
ENDROOT
BRANCH   1  16
ATOM     16  O   UNL     1       0.942   3.307  18.991  0.00  0.00    +0.000 OA
BRANCH  16  18
ATOM     17  C   UNL     1       1.321   2.769  21.293  0.00  0.00    +0.000 C 
ATOM     18  C   UNL     1       0.820   3.820  20.320  0.00  0.00    +0.000 C 
ENDBRANCH  16  18
ENDBRANCH   1  16
TORSDOF 2
ENDMDL
MODEL 6
REMARK VINA RESULT:      -6.5      2.714      5.689
REMARK  Name = 
REMARK  3 active torsions:
REMARK  status: ('A' for Active; 'I' for Inactive)
REMARK    1  A    between atoms: C_1  and  C_2
REMARK    2  A    between atoms: C_2  and  O_3
REMARK    3  A    between atoms: O_3  and  C_4
REMARK                            x       y       z     vdW  Elec       q    Type
REMARK                         _______ _______ _______ _____ _____    ______ ____
ROOT
ATOM      1  C   UNL     1       1.962   7.488  19.783  0.00  0.00    +0.000 A 
ATOM      2  C   UNL     1       2.578   7.328  18.545  0.00  0.00    +0.000 A 
ATOM      3  C   UNL     1       3.018   6.067  18.130  0.00  0.00    +0.000 A 
ATOM      4  C   UNL     1       2.836   4.938  18.937  0.00  0.00    +0.000 A 
ATOM      5  C   UNL     1       2.222   5.101  20.191  0.00  0.00    +0.000 A 
ATOM      6  C   UNL     1       1.793   6.372  20.605  0.00  0.00    +0.000 A 
ATOM      7  S   UNL     1       2.056   3.753  21.355  0.00  0.00    +0.000 S 
ATOM      8  C   UNL     1       1.930   2.383  20.189  0.00  0.00    +0.000 C 
ATOM      9  C   UNL     1       2.936   2.482  19.086  0.00  0.00    +0.000 A 
ATOM     10  N   UNL     1       3.472   1.432  18.524  0.00  0.00    +0.000 NA
ATOM     11  N   UNL     1       4.224   1.954  17.515  0.00  0.00    +0.000 N 
ATOM     12  C   UNL     1       4.106   3.342  17.472  0.00  0.00    +0.000 A 
ATOM     13  O   UNL     1       4.665   4.056  16.655  0.00  0.00    +0.000 OA
ATOM     14  N   UNL     1       3.270   3.664  18.520  0.00  0.00    +0.000 N 
ATOM     15  H   UNL     1       4.765   1.387  16.874  0.00  0.00    +0.000 HD
ENDROOT
BRANCH   1  16
ATOM     16  O   UNL     1       1.493   8.667  20.294  0.00  0.00    +0.000 OA
BRANCH  16  18
ATOM     17  C   UNL     1      -0.216   9.092  21.916  0.00  0.00    +0.000 C 
ATOM     18  C   UNL     1       1.232   8.694  21.699  0.00  0.00    +0.000 C 
ENDBRANCH  16  18
ENDBRANCH   1  16
TORSDOF 2
ENDMDL
MODEL 7
REMARK VINA RESULT:      -6.5      2.877      3.940
REMARK  Name = 
REMARK  3 active torsions:
REMARK  status: ('A' for Active; 'I' for Inactive)
REMARK    1  A    between atoms: C_1  and  C_2
REMARK    2  A    between atoms: C_2  and  O_3
REMARK    3  A    between atoms: O_3  and  C_4
REMARK                            x       y       z     vdW  Elec       q    Type
REMARK                         _______ _______ _______ _____ _____    ______ ____
ROOT
ATOM      1  C   UNL     1       6.372   5.797  16.760  0.00  0.00    +0.000 A 
ATOM      2  C   UNL     1       6.461   4.413  16.640  0.00  0.00    +0.000 A 
ATOM      3  C   UNL     1       5.382   3.600  16.999  0.00  0.00    +0.000 A 
ATOM      4  C   UNL     1       4.187   4.154  17.472  0.00  0.00    +0.000 A 
ATOM      5  C   UNL     1       4.100   5.551  17.602  0.00  0.00    +0.000 A 
ATOM      6  C   UNL     1       5.192   6.361  17.249  0.00  0.00    +0.000 A 
ATOM      7  S   UNL     1       2.671   6.357  18.316  0.00  0.00    +0.000 S 
ATOM      8  C   UNL     1       1.403   5.172  17.825  0.00  0.00    +0.000 C 
ATOM      9  C   UNL     1       1.828   3.757  18.055  0.00  0.00    +0.000 A 
ATOM     10  N   UNL     1       0.987   2.811  18.381  0.00  0.00    +0.000 NA
ATOM     11  N   UNL     1       1.752   1.684  18.378  0.00  0.00    +0.000 N 
ATOM     12  C   UNL     1       3.067   1.974  18.019  0.00  0.00    +0.000 A 
ATOM     13  O   UNL     1       3.955   1.143  17.925  0.00  0.00    +0.000 OA
ATOM     14  N   UNL     1       3.094   3.340  17.828  0.00  0.00    +0.000 N 
ATOM     15  H   UNL     1       1.385   0.763  18.582  0.00  0.00    +0.000 HD
ENDROOT
BRANCH   1  16
ATOM     16  O   UNL     1       7.358   6.690  16.442  0.00  0.00    +0.000 OA
BRANCH  16  18
ATOM     17  C   UNL     1       8.182   7.023  18.665  0.00  0.00    +0.000 C 
ATOM     18  C   UNL     1       7.646   7.696  17.415  0.00  0.00    +0.000 C 
ENDBRANCH  16  18
ENDBRANCH   1  16
TORSDOF 2
ENDMDL
MODEL 8
REMARK VINA RESULT:      -6.5      3.080      4.011
REMARK  Name = 
REMARK  3 active torsions:
REMARK  status: ('A' for Active; 'I' for Inactive)
REMARK    1  A    between atoms: C_1  and  C_2
REMARK    2  A    between atoms: C_2  and  O_3
REMARK    3  A    between atoms: O_3  and  C_4
REMARK                            x       y       z     vdW  Elec       q    Type
REMARK                         _______ _______ _______ _____ _____    ______ ____
ROOT
ATOM      1  C   UNL     1       6.892   6.536  17.615  0.00  0.00    +0.000 A 
ATOM      2  C   UNL     1       7.238   5.281  18.109  0.00  0.00    +0.000 A 
ATOM      3  C   UNL     1       6.252   4.408  18.579  0.00  0.00    +0.000 A 
ATOM      4  C   UNL     1       4.899   4.765  18.550  0.00  0.00    +0.000 A 
ATOM      5  C   UNL     1       4.551   6.036  18.059  0.00  0.00    +0.000 A 
ATOM      6  C   UNL     1       5.547   6.911  17.599  0.00  0.00    +0.000 A 
ATOM      7  S   UNL     1       2.869   6.644  18.095  0.00  0.00    +0.000 S 
ATOM      8  C   UNL     1       1.995   5.075  17.932  0.00  0.00    +0.000 C 
ATOM      9  C   UNL     1       2.570   4.011  18.812  0.00  0.00    +0.000 A 
ATOM     10  N   UNL     1       1.841   3.069  19.350  0.00  0.00    +0.000 NA
ATOM     11  N   UNL     1       2.754   2.264  19.961  0.00  0.00    +0.000 N 
ATOM     12  C   UNL     1       4.050   2.733  19.756  0.00  0.00    +0.000 A 
ATOM     13  O   UNL     1       5.055   2.190  20.183  0.00  0.00    +0.000 OA
ATOM     14  N   UNL     1       3.901   3.886  19.014  0.00  0.00    +0.000 N 
ATOM     15  H   UNL     1       2.503   1.424  20.466  0.00  0.00    +0.000 HD
ENDROOT
BRANCH   1  16
ATOM     16  O   UNL     1       7.765   7.472  17.131  0.00  0.00    +0.000 OA
BRANCH  16  18
ATOM     17  C   UNL     1       8.682   9.248  18.449  0.00  0.00    +0.000 C 
ATOM     18  C   UNL     1       7.544   8.823  17.540  0.00  0.00    +0.000 C 
ENDBRANCH  16  18
ENDBRANCH   1  16
TORSDOF 2
ENDMDL
MODEL 9
REMARK VINA RESULT:      -6.4      1.243      1.499
REMARK  Name = 
REMARK  3 active torsions:
REMARK  status: ('A' for Active; 'I' for Inactive)
REMARK    1  A    between atoms: C_1  and  C_2
REMARK    2  A    between atoms: C_2  and  O_3
REMARK    3  A    between atoms: O_3  and  C_4
REMARK                            x       y       z     vdW  Elec       q    Type
REMARK                         _______ _______ _______ _____ _____    ______ ____
ROOT
ATOM      1  C   UNL     1       5.516   4.562  15.536  0.00  0.00    +0.000 A 
ATOM      2  C   UNL     1       5.324   5.934  15.399  0.00  0.00    +0.000 A 
ATOM      3  C   UNL     1       4.528   6.632  16.312  0.00  0.00    +0.000 A 
ATOM      4  C   UNL     1       3.919   5.976  17.389  0.00  0.00    +0.000 A 
ATOM      5  C   UNL     1       4.106   4.589  17.522  0.00  0.00    +0.000 A 
ATOM      6  C   UNL     1       4.899   3.893  16.595  0.00  0.00    +0.000 A 
ATOM      7  S   UNL     1       3.274   3.630  18.782  0.00  0.00    +0.000 S 
ATOM      8  C   UNL     1       3.142   4.895  20.061  0.00  0.00    +0.000 C 
ATOM      9  C   UNL     1       2.696   6.213  19.512  0.00  0.00    +0.000 A 
ATOM     10  N   UNL     1       1.958   7.048  20.194  0.00  0.00    +0.000 NA
ATOM     11  N   UNL     1       1.883   8.144  19.389  0.00  0.00    +0.000 N 
ATOM     12  C   UNL     1       2.613   7.954  18.217  0.00  0.00    +0.000 A 
ATOM     13  O   UNL     1       2.725   8.786  17.332  0.00  0.00    +0.000 OA
ATOM     14  N   UNL     1       3.123   6.676  18.316  0.00  0.00    +0.000 N 
ATOM     15  H   UNL     1       1.382   8.987  19.643  0.00  0.00    +0.000 HD
ENDROOT
BRANCH   1  16
ATOM     16  O   UNL     1       6.270   3.776  14.709  0.00  0.00    +0.000 OA
BRANCH  16  18
ATOM     17  C   UNL     1       5.812   3.248  12.419  0.00  0.00    +0.000 C 
ATOM     18  C   UNL     1       6.447   4.245  13.370  0.00  0.00    +0.000 C 
ENDBRANCH  16  18
ENDBRANCH   1  16
TORSDOF 2
ENDMDL
