MODEL 1
REMARK VINA RESULT:      -8.3      0.000      0.000
REMARK  Name = 
REMARK  1 active torsions:
REMARK  status: ('A' for Active; 'I' for Inactive)
REMARK    1  A    between atoms: C_7  and  C_8
REMARK                            x       y       z     vdW  Elec       q    Type
REMARK                         _______ _______ _______ _____ _____    ______ ____
ROOT
ATOM      1  C   UNL     1       0.804   9.519  21.305  0.00  0.00    +0.000 C 
ATOM      2  O   UNL     1       1.257   9.424  22.454  0.00  0.00    +0.000 OA
ATOM      3  N   UNL     1      -0.268  10.389  21.057  0.00  0.00    +0.000 N 
ATOM      4  C   UNL     1      -0.691  11.205  22.205  0.00  0.00    +0.000 C 
ATOM      5  C   UNL     1      -0.693  12.686  21.849  0.00  0.00    +0.000 C 
ATOM      6  C   UNL     1      -1.855  12.924  20.907  0.00  0.00    +0.000 C 
ATOM      7  C   UNL     1      -1.702  12.088  19.636  0.00  0.00    +0.000 C 
ATOM      8  C   UNL     1      -2.941  11.879  18.767  0.00  0.00    +0.000 A 
ATOM      9  C   UNL     1      -4.259  12.132  19.130  0.00  0.00    +0.000 A 
ATOM     10  C   UNL     1      -5.291  11.905  18.210  0.00  0.00    +0.000 A 
ATOM     11  C   UNL     1      -5.008  11.553  16.889  0.00  0.00    +0.000 A 
ATOM     12  C   UNL     1      -3.709  11.232  16.531  0.00  0.00    +0.000 A 
ATOM     13  C   UNL     1      -2.740  11.226  17.532  0.00  0.00    +0.000 A 
ATOM     14  C   UNL     1      -1.653  10.177  17.487  0.00  0.00    +0.000 C 
ATOM     15  C   UNL     1      -1.508   9.652  18.938  0.00  0.00    +0.000 C 
ATOM     16  C   UNL     1      -0.824  10.778  19.744  0.00  0.00    +0.000 C 
ENDROOT
BRANCH   1  23
ATOM     17  O   UNL     1       3.640   3.714  18.481  0.00  0.00    +0.000 OA
ATOM     18  C   UNL     1       3.158   4.807  18.711  0.00  0.00    +0.000 C 
ATOM     19  N   UNL     1       3.025   5.792  17.730  0.00  0.00    +0.000 NA
ATOM     20  C   UNL     1       2.544   6.783  18.372  0.00  0.00    +0.000 A 
ATOM     21  C   UNL     1       2.260   8.143  17.945  0.00  0.00    +0.000 A 
ATOM     22  C   UNL     1       1.847   8.998  18.899  0.00  0.00    +0.000 A 
ATOM     23  C   UNL     1       1.460   8.624  20.255  0.00  0.00    +0.000 A 
ATOM     24  C   UNL     1       1.746   7.383  20.712  0.00  0.00    +0.000 A 
ATOM     25  C   UNL     1       2.330   6.414  19.795  0.00  0.00    +0.000 A 
ATOM     26  N   UNL     1       2.706   5.199  19.957  0.00  0.00    +0.000 NA
ENDBRANCH   1  23
TORSDOF 1
ENDMDL
MODEL 2
REMARK VINA RESULT:      -7.9      3.397      6.357
REMARK  Name = 
REMARK  1 active torsions:
REMARK  status: ('A' for Active; 'I' for Inactive)
REMARK    1  A    between atoms: C_7  and  C_8
REMARK                            x       y       z     vdW  Elec       q    Type
REMARK                         _______ _______ _______ _____ _____    ______ ____
ROOT
ATOM      1  C   UNL     1       3.717   4.037  18.199  0.00  0.00    +0.000 C 
ATOM      2  O   UNL     1       3.555   2.827  18.408  0.00  0.00    +0.000 OA
ATOM      3  N   UNL     1       2.847   4.963  18.795  0.00  0.00    +0.000 N 
ATOM      4  C   UNL     1       1.861   4.387  19.722  0.00  0.00    +0.000 C 
ATOM      5  C   UNL     1       1.932   5.068  21.082  0.00  0.00    +0.000 C 
ATOM      6  C   UNL     1       1.366   6.463  20.921  0.00  0.00    +0.000 C 
ATOM      7  C   UNL     1       2.178   7.263  19.901  0.00  0.00    +0.000 C 
ATOM      8  C   UNL     1       1.541   8.518  19.308  0.00  0.00    +0.000 A 
ATOM      9  C   UNL     1       0.200   8.878  19.379  0.00  0.00    +0.000 A 
ATOM     10  C   UNL     1      -0.231  10.077  18.797  0.00  0.00    +0.000 A 
ATOM     11  C   UNL     1       0.686  10.982  18.259  0.00  0.00    +0.000 A 
ATOM     12  C   UNL     1       2.012  10.609  18.119  0.00  0.00    +0.000 A 
ATOM     13  C   UNL     1       2.366   9.311  18.481  0.00  0.00    +0.000 A 
ATOM     14  C   UNL     1       3.405   8.583  17.660  0.00  0.00    +0.000 C 
ATOM     15  C   UNL     1       2.857   7.147  17.455  0.00  0.00    +0.000 C 
ATOM     16  C   UNL     1       2.979   6.434  18.819  0.00  0.00    +0.000 C 
ENDROOT
BRANCH   1  23
ATOM     17  O   UNL     1       7.389   4.462  12.195  0.00  0.00    +0.000 OA
ATOM     18  C   UNL     1       6.942   4.566  13.321  0.00  0.00    +0.000 C 
ATOM     19  N   UNL     1       7.571   5.323  14.312  0.00  0.00    +0.000 NA
ATOM     20  C   UNL     1       6.837   5.132  15.337  0.00  0.00    +0.000 A 
ATOM     21  C   UNL     1       6.997   5.567  16.715  0.00  0.00    +0.000 A 
ATOM     22  C   UNL     1       6.092   5.110  17.599  0.00  0.00    +0.000 A 
ATOM     23  C   UNL     1       4.863   4.403  17.256  0.00  0.00    +0.000 A 
ATOM     24  C   UNL     1       4.689   3.938  15.997  0.00  0.00    +0.000 A 
ATOM     25  C   UNL     1       5.687   4.258  14.986  0.00  0.00    +0.000 A 
ATOM     26  N   UNL     1       5.783   3.946  13.746  0.00  0.00    +0.000 NA
ENDBRANCH   1  23
TORSDOF 1
ENDMDL
MODEL 3
REMARK VINA RESULT:      -7.6      3.226      7.988
REMARK  Name = 
REMARK  1 active torsions:
REMARK  status: ('A' for Active; 'I' for Inactive)
REMARK    1  A    between atoms: C_7  and  C_8
REMARK                            x       y       z     vdW  Elec       q    Type
REMARK                         _______ _______ _______ _____ _____    ______ ____
ROOT
ATOM      1  C   UNL     1       1.818   9.163  18.770  0.00  0.00    +0.000 C 
ATOM      2  O   UNL     1       1.854  10.085  17.943  0.00  0.00    +0.000 OA
ATOM      3  N   UNL     1       2.327   7.903  18.420  0.00  0.00    +0.000 N 
ATOM      4  C   UNL     1       2.967   7.831  17.097  0.00  0.00    +0.000 C 
ATOM      5  C   UNL     1       4.381   7.277  17.207  0.00  0.00    +0.000 C 
ATOM      6  C   UNL     1       4.266   5.802  17.529  0.00  0.00    +0.000 C 
ATOM      7  C   UNL     1       3.527   5.593  18.851  0.00  0.00    +0.000 C 
ATOM      8  C   UNL     1       2.961   4.203  19.140  0.00  0.00    +0.000 A 
ATOM      9  C   UNL     1       2.802   3.168  18.225  0.00  0.00    +0.000 A 
ATOM     10  C   UNL     1       2.283   1.938  18.649  0.00  0.00    +0.000 A 
ATOM     11  C   UNL     1       2.045   1.689  20.002  0.00  0.00    +0.000 A 
ATOM     12  C   UNL     1       2.133   2.728  20.913  0.00  0.00    +0.000 A 
ATOM     13  C   UNL     1       2.411   4.002  20.424  0.00  0.00    +0.000 A 
ATOM     14  C   UNL     1       1.739   5.193  21.068  0.00  0.00    +0.000 C 
ATOM     15  C   UNL     1       1.269   6.100  19.902  0.00  0.00    +0.000 C 
ATOM     16  C   UNL     1       2.542   6.742  19.308  0.00  0.00    +0.000 C 
ENDROOT
BRANCH   1  23
ATOM     17  O   UNL     1      -2.550  12.261  23.356  0.00  0.00    +0.000 OA
ATOM     18  C   UNL     1      -1.737  11.566  22.777  0.00  0.00    +0.000 C 
ATOM     19  N   UNL     1      -1.002  10.570  23.425  0.00  0.00    +0.000 NA
ATOM     20  C   UNL     1      -0.239  10.123  22.506  0.00  0.00    +0.000 A 
ATOM     21  C   UNL     1       0.830   9.140  22.554  0.00  0.00    +0.000 A 
ATOM     22  C   UNL     1       1.531   8.958  21.420  0.00  0.00    +0.000 A 
ATOM     23  C   UNL     1       1.172   9.497  20.113  0.00  0.00    +0.000 A 
ATOM     24  C   UNL     1       0.214  10.450  20.024  0.00  0.00    +0.000 A 
ATOM     25  C   UNL     1      -0.514  10.827  21.227  0.00  0.00    +0.000 A 
ATOM     26  N   UNL     1      -1.442  11.689  21.432  0.00  0.00    +0.000 NA
ENDBRANCH   1  23
TORSDOF 1
ENDMDL
MODEL 4
REMARK VINA RESULT:      -7.4      3.323      8.386
REMARK  Name = 
REMARK  1 active torsions:
REMARK  status: ('A' for Active; 'I' for Inactive)
REMARK    1  A    between atoms: C_7  and  C_8
REMARK                            x       y       z     vdW  Elec       q    Type
REMARK                         _______ _______ _______ _____ _____    ______ ____
ROOT
ATOM      1  C   UNL     1       1.852   6.405  20.150  0.00  0.00    +0.000 C 
ATOM      2  O   UNL     1       1.328   6.055  21.217  0.00  0.00    +0.000 OA
ATOM      3  N   UNL     1       2.599   5.475  19.411  0.00  0.00    +0.000 N 
ATOM      4  C   UNL     1       2.596   4.104  19.944  0.00  0.00    +0.000 C 
ATOM      5  C   UNL     1       2.151   3.108  18.882  0.00  0.00    +0.000 C 
ATOM      6  C   UNL     1       3.269   2.999  17.866  0.00  0.00    +0.000 C 
ATOM      7  C   UNL     1       3.545   4.356  17.217  0.00  0.00    +0.000 C 
ATOM      8  C   UNL     1       4.874   4.540  16.486  0.00  0.00    +0.000 A 
ATOM      9  C   UNL     1       5.985   3.707  16.567  0.00  0.00    +0.000 A 
ATOM     10  C   UNL     1       7.132   4.001  15.817  0.00  0.00    +0.000 A 
ATOM     11  C   UNL     1       7.132   5.044  14.888  0.00  0.00    +0.000 A 
ATOM     12  C   UNL     1       6.061   5.920  14.845  0.00  0.00    +0.000 A 
ATOM     13  C   UNL     1       5.041   5.749  15.778  0.00  0.00    +0.000 A 
ATOM     14  C   UNL     1       4.372   6.974  16.359  0.00  0.00    +0.000 C 
ATOM     15  C   UNL     1       4.244   6.708  17.881  0.00  0.00    +0.000 C 
ATOM     16  C   UNL     1       3.141   5.640  18.046  0.00  0.00    +0.000 C 
ENDROOT
BRANCH   1  23
ATOM     17  O   UNL     1       0.587  13.295  20.952  0.00  0.00    +0.000 OA
ATOM     18  C   UNL     1       0.874  12.180  20.560  0.00  0.00    +0.000 C 
ATOM     19  N   UNL     1       1.236  11.918  19.237  0.00  0.00    +0.000 NA
ATOM     20  C   UNL     1       1.398  10.653  19.221  0.00  0.00    +0.000 A 
ATOM     21  C   UNL     1       1.690   9.746  18.123  0.00  0.00    +0.000 A 
ATOM     22  C   UNL     1       1.697   8.433  18.415  0.00  0.00    +0.000 A 
ATOM     23  C   UNL     1       1.652   7.868  19.759  0.00  0.00    +0.000 A 
ATOM     24  C   UNL     1       1.337   8.664  20.807  0.00  0.00    +0.000 A 
ATOM     25  C   UNL     1       1.167  10.092  20.578  0.00  0.00    +0.000 A 
ATOM     26  N   UNL     1       0.862  11.057  21.366  0.00  0.00    +0.000 NA
ENDBRANCH   1  23
TORSDOF 1
ENDMDL
MODEL 5
REMARK VINA RESULT:      -7.3      3.350      8.057
REMARK  Name = 
REMARK  1 active torsions:
REMARK  status: ('A' for Active; 'I' for Inactive)
REMARK    1  A    between atoms: C_7  and  C_8
REMARK                            x       y       z     vdW  Elec       q    Type
REMARK                         _______ _______ _______ _____ _____    ______ ____
ROOT
ATOM      1  C   UNL     1       1.381   7.436  20.551  0.00  0.00    +0.000 C 
ATOM      2  O   UNL     1       0.800   7.252  21.629  0.00  0.00    +0.000 OA
ATOM      3  N   UNL     1       2.080   6.376  19.954  0.00  0.00    +0.000 N 
ATOM      4  C   UNL     1       1.959   5.081  20.641  0.00  0.00    +0.000 C 
ATOM      5  C   UNL     1       1.474   4.001  19.683  0.00  0.00    +0.000 C 
ATOM      6  C   UNL     1       2.612   3.694  18.732  0.00  0.00    +0.000 C 
ATOM      7  C   UNL     1       3.010   4.943  17.943  0.00  0.00    +0.000 C 
ATOM      8  C   UNL     1       4.371   4.945  17.250  0.00  0.00    +0.000 A 
ATOM      9  C   UNL     1       5.414   4.052  17.470  0.00  0.00    +0.000 A 
ATOM     10  C   UNL     1       6.602   4.174  16.738  0.00  0.00    +0.000 A 
ATOM     11  C   UNL     1       6.709   5.098  15.696  0.00  0.00    +0.000 A 
ATOM     12  C   UNL     1       5.708   6.036  15.509  0.00  0.00    +0.000 A 
ATOM     13  C   UNL     1       4.649   6.048  16.414  0.00  0.00    +0.000 A 
ATOM     14  C   UNL     1       4.056   7.376  16.823  0.00  0.00    +0.000 C 
ATOM     15  C   UNL     1       3.860   7.301  18.359  0.00  0.00    +0.000 C 
ATOM     16  C   UNL     1       2.676   6.340  18.602  0.00  0.00    +0.000 C 
ENDROOT
BRANCH   1  23
ATOM     17  O   UNL     1       0.828  14.465  20.525  0.00  0.00    +0.000 OA
ATOM     18  C   UNL     1       0.986  13.288  20.266  0.00  0.00    +0.000 C 
ATOM     19  N   UNL     1       1.253  12.831  18.973  0.00  0.00    +0.000 NA
ATOM     20  C   UNL     1       1.292  11.564  19.111  0.00  0.00    +0.000 A 
ATOM     21  C   UNL     1       1.439  10.505  18.126  0.00  0.00    +0.000 A 
ATOM     22  C   UNL     1       1.334   9.243  18.580  0.00  0.00    +0.000 A 
ATOM     23  C   UNL     1       1.303   8.854  19.986  0.00  0.00    +0.000 A 
ATOM     24  C   UNL     1       1.121   9.799  20.937  0.00  0.00    +0.000 A 
ATOM     25  C   UNL     1       1.077  11.199  20.536  0.00  0.00    +0.000 A 
ATOM     26  N   UNL     1       0.907  12.278  21.207  0.00  0.00    +0.000 NA
ENDBRANCH   1  23
TORSDOF 1
ENDMDL
MODEL 6
REMARK VINA RESULT:      -7.2      3.881      6.365
REMARK  Name = 
REMARK  1 active torsions:
REMARK  status: ('A' for Active; 'I' for Inactive)
REMARK    1  A    between atoms: C_7  and  C_8
REMARK                            x       y       z     vdW  Elec       q    Type
REMARK                         _______ _______ _______ _____ _____    ______ ____
ROOT
ATOM      1  C   UNL     1      -3.119  11.599  18.104  0.00  0.00    +0.000 C 
ATOM      2  O   UNL     1      -3.013  11.412  16.884  0.00  0.00    +0.000 OA
ATOM      3  N   UNL     1      -4.376  11.901  18.649  0.00  0.00    +0.000 N 
ATOM      4  C   UNL     1      -5.497  11.859  17.697  0.00  0.00    +0.000 C 
ATOM      5  C   UNL     1      -6.600  10.934  18.195  0.00  0.00    +0.000 C 
ATOM      6  C   UNL     1      -7.270  11.618  19.369  0.00  0.00    +0.000 C 
ATOM      7  C   UNL     1      -6.264  11.874  20.492  0.00  0.00    +0.000 C 
ATOM      8  C   UNL     1      -6.638  12.895  21.565  0.00  0.00    +0.000 A 
ATOM      9  C   UNL     1      -7.672  13.823  21.499  0.00  0.00    +0.000 A 
ATOM     10  C   UNL     1      -7.902  14.686  22.579  0.00  0.00    +0.000 A 
ATOM     11  C   UNL     1      -7.195  14.542  23.775  0.00  0.00    +0.000 A 
ATOM     12  C   UNL     1      -6.120  13.671  23.831  0.00  0.00    +0.000 A 
ATOM     13  C   UNL     1      -5.758  13.006  22.662  0.00  0.00    +0.000 A 
ATOM     14  C   UNL     1      -4.291  12.771  22.382  0.00  0.00    +0.000 C 
ATOM     15  C   UNL     1      -4.082  13.117  20.886  0.00  0.00    +0.000 C 
ATOM     16  C   UNL     1      -4.742  11.977  20.079  0.00  0.00    +0.000 C 
ENDROOT
BRANCH   1  23
ATOM     17  O   UNL     1       2.818  13.776  21.222  0.00  0.00    +0.000 OA
ATOM     18  C   UNL     1       1.843  13.170  20.822  0.00  0.00    +0.000 C 
ATOM     19  N   UNL     1       1.602  11.834  21.148  0.00  0.00    +0.000 NA
ATOM     20  C   UNL     1       0.538  11.560  20.500  0.00  0.00    +0.000 A 
ATOM     21  C   UNL     1      -0.181  10.307  20.341  0.00  0.00    +0.000 A 
ATOM     22  C   UNL     1      -1.229  10.320  19.496  0.00  0.00    +0.000 A 
ATOM     23  C   UNL     1      -1.822  11.515  18.907  0.00  0.00    +0.000 A 
ATOM     24  C   UNL     1      -1.165  12.696  18.988  0.00  0.00    +0.000 A 
ATOM     25  C   UNL     1       0.064  12.763  19.767  0.00  0.00    +0.000 A 
ATOM     26  N   UNL     1       0.880  13.725  20.000  0.00  0.00    +0.000 NA
ENDBRANCH   1  23
TORSDOF 1
ENDMDL
MODEL 7
REMARK VINA RESULT:      -7.2      4.826      8.079
REMARK  Name = 
REMARK  1 active torsions:
REMARK  status: ('A' for Active; 'I' for Inactive)
REMARK    1  A    between atoms: C_7  and  C_8
REMARK                            x       y       z     vdW  Elec       q    Type
REMARK                         _______ _______ _______ _____ _____    ______ ____
ROOT
ATOM      1  C   UNL     1      -2.149  14.803  20.788  0.00  0.00    +0.000 C 
ATOM      2  O   UNL     1      -2.505  15.945  20.466  0.00  0.00    +0.000 OA
ATOM      3  N   UNL     1      -1.050  14.215  20.143  0.00  0.00    +0.000 N 
ATOM      4  C   UNL     1      -0.344  15.086  19.191  0.00  0.00    +0.000 C 
ATOM      5  C   UNL     1       1.142  15.159  19.518  0.00  0.00    +0.000 C 
ATOM      6  C   UNL     1       1.751  13.819  19.159  0.00  0.00    +0.000 C 
ATOM      7  C   UNL     1       1.099  12.695  19.965  0.00  0.00    +0.000 C 
ATOM      8  C   UNL     1       1.280  11.263  19.466  0.00  0.00    +0.000 A 
ATOM      9  C   UNL     1       1.743  10.875  18.213  0.00  0.00    +0.000 A 
ATOM     10  C   UNL     1       1.872   9.513  17.910  0.00  0.00    +0.000 A 
ATOM     11  C   UNL     1       1.669   8.538  18.889  0.00  0.00    +0.000 A 
ATOM     12  C   UNL     1       1.145   8.904  20.117  0.00  0.00    +0.000 A 
ATOM     13  C   UNL     1       0.791  10.238  20.305  0.00  0.00    +0.000 A 
ATOM     14  C   UNL     1      -0.440  10.558  21.120  0.00  0.00    +0.000 C 
ATOM     15  C   UNL     1      -1.194  11.664  20.338  0.00  0.00    +0.000 C 
ATOM     16  C   UNL     1      -0.364  12.956  20.502  0.00  0.00    +0.000 C 
ENDROOT
BRANCH   1  23
ATOM     17  O   UNL     1      -7.917  12.384  24.043  0.00  0.00    +0.000 OA
ATOM     18  C   UNL     1      -6.791  12.655  23.671  0.00  0.00    +0.000 C 
ATOM     19  N   UNL     1      -5.650  12.228  24.354  0.00  0.00    +0.000 NA
ATOM     20  C   UNL     1      -4.696  12.757  23.693  0.00  0.00    +0.000 A 
ATOM     21  C   UNL     1      -3.264  12.772  23.940  0.00  0.00    +0.000 A 
ATOM     22  C   UNL     1      -2.518  13.516  23.102  0.00  0.00    +0.000 A 
ATOM     23  C   UNL     1      -2.993  14.120  21.862  0.00  0.00    +0.000 A 
ATOM     24  C   UNL     1      -4.322  14.171  21.611  0.00  0.00    +0.000 A 
ATOM     25  C   UNL     1      -5.237  13.515  22.535  0.00  0.00    +0.000 A 
ATOM     26  N   UNL     1      -6.516  13.417  22.551  0.00  0.00    +0.000 NA
ENDBRANCH   1  23
TORSDOF 1
ENDMDL
MODEL 8
REMARK VINA RESULT:      -7.1      8.520     11.115
REMARK  Name = 
REMARK  1 active torsions:
REMARK  status: ('A' for Active; 'I' for Inactive)
REMARK    1  A    between atoms: C_7  and  C_8
REMARK                            x       y       z     vdW  Elec       q    Type
REMARK                         _______ _______ _______ _____ _____    ______ ____
ROOT
ATOM      1  C   UNL     1       5.885  17.169  19.605  0.00  0.00    +0.000 C 
ATOM      2  O   UNL     1       5.449  18.289  19.905  0.00  0.00    +0.000 OA
ATOM      3  N   UNL     1       7.270  16.979  19.477  0.00  0.00    +0.000 N 
ATOM      4  C   UNL     1       8.096  18.144  19.829  0.00  0.00    +0.000 C 
ATOM      5  C   UNL     1       9.138  17.775  20.876  0.00  0.00    +0.000 C 
ATOM      6  C   UNL     1      10.175  16.905  20.198  0.00  0.00    +0.000 C 
ATOM      7  C   UNL     1       9.534  15.634  19.639  0.00  0.00    +0.000 C 
ATOM      8  C   UNL     1      10.313  14.845  18.588  0.00  0.00    +0.000 A 
ATOM      9  C   UNL     1      11.423  15.286  17.877  0.00  0.00    +0.000 A 
ATOM     10  C   UNL     1      12.043  14.433  16.954  0.00  0.00    +0.000 A 
ATOM     11  C   UNL     1      11.645  13.100  16.832  0.00  0.00    +0.000 A 
ATOM     12  C   UNL     1      10.502  12.667  17.482  0.00  0.00    +0.000 A 
ATOM     13  C   UNL     1       9.763  13.605  18.197  0.00  0.00    +0.000 A 
ATOM     14  C   UNL     1       8.255  13.504  18.191  0.00  0.00    +0.000 C 
ATOM     15  C   UNL     1       7.731  14.947  17.984  0.00  0.00    +0.000 C 
ATOM     16  C   UNL     1       7.989  15.700  19.308  0.00  0.00    +0.000 C 
ENDROOT
BRANCH   1  23
ATOM     17  O   UNL     1       1.306  12.020  21.098  0.00  0.00    +0.000 OA
ATOM     18  C   UNL     1       1.979  12.899  20.594  0.00  0.00    +0.000 C 
ATOM     19  N   UNL     1       1.873  13.247  19.246  0.00  0.00    +0.000 NA
ATOM     20  C   UNL     1       2.766  14.146  19.104  0.00  0.00    +0.000 A 
ATOM     21  C   UNL     1       3.225  14.850  17.917  0.00  0.00    +0.000 A 
ATOM     22  C   UNL     1       4.272  15.680  18.079  0.00  0.00    +0.000 A 
ATOM     23  C   UNL     1       4.833  16.088  19.362  0.00  0.00    +0.000 A 
ATOM     24  C   UNL     1       4.471  15.431  20.488  0.00  0.00    +0.000 A 
ATOM     25  C   UNL     1       3.440  14.407  20.403  0.00  0.00    +0.000 A 
ATOM     26  N   UNL     1       2.922  13.635  21.286  0.00  0.00    +0.000 NA
ENDBRANCH   1  23
TORSDOF 1
ENDMDL
MODEL 9
REMARK VINA RESULT:      -7.0     10.061     11.782
REMARK  Name = 
REMARK  1 active torsions:
REMARK  status: ('A' for Active; 'I' for Inactive)
REMARK    1  A    between atoms: C_7  and  C_8
REMARK                            x       y       z     vdW  Elec       q    Type
REMARK                         _______ _______ _______ _____ _____    ______ ____
ROOT
ATOM      1  C   UNL     1       8.295  15.523  24.062  0.00  0.00    +0.000 C 
ATOM      2  O   UNL     1       8.169  16.695  24.443  0.00  0.00    +0.000 OA
ATOM      3  N   UNL     1       8.897  15.262  22.822  0.00  0.00    +0.000 N 
ATOM      4  C   UNL     1       9.431  16.442  22.124  0.00  0.00    +0.000 C 
ATOM      5  C   UNL     1      10.898  16.245  21.767  0.00  0.00    +0.000 C 
ATOM      6  C   UNL     1      10.959  15.223  20.651  0.00  0.00    +0.000 C 
ATOM      7  C   UNL     1      10.355  13.892  21.101  0.00  0.00    +0.000 C 
ATOM      8  C   UNL     1       9.958  12.887  20.022  0.00  0.00    +0.000 A 
ATOM      9  C   UNL     1       9.829  13.142  18.661  0.00  0.00    +0.000 A 
ATOM     10  C   UNL     1       9.473  12.105  17.788  0.00  0.00    +0.000 A 
ATOM     11  C   UNL     1       9.372  10.789  18.244  0.00  0.00    +0.000 A 
ATOM     12  C   UNL     1       9.430  10.531  19.603  0.00  0.00    +0.000 A 
ATOM     13  C   UNL     1       9.537  11.616  20.469  0.00  0.00    +0.000 A 
ATOM     14  C   UNL     1       8.804  11.570  21.789  0.00  0.00    +0.000 C 
ATOM     15  C   UNL     1       8.151  12.965  21.963  0.00  0.00    +0.000 C 
ATOM     16  C   UNL     1       9.300  13.949  22.277  0.00  0.00    +0.000 C 
ENDROOT
BRANCH   1  23
ATOM     17  O   UNL     1       3.588  12.158  28.091  0.00  0.00    +0.000 OA
ATOM     18  C   UNL     1       4.548  12.512  27.433  0.00  0.00    +0.000 C 
ATOM     19  N   UNL     1       5.711  11.746  27.327  0.00  0.00    +0.000 NA
ATOM     20  C   UNL     1       6.478  12.474  26.616  0.00  0.00    +0.000 A 
ATOM     21  C   UNL     1       7.865  12.290  26.221  0.00  0.00    +0.000 A 
ATOM     22  C   UNL     1       8.437  13.302  25.544  0.00  0.00    +0.000 A 
ATOM     23  C   UNL     1       7.730  14.455  24.996  0.00  0.00    +0.000 A 
ATOM     24  C   UNL     1       6.451  14.694  25.372  0.00  0.00    +0.000 A 
ATOM     25  C   UNL     1       5.778  13.725  26.226  0.00  0.00    +0.000 A 
ATOM     26  N   UNL     1       4.600  13.703  26.734  0.00  0.00    +0.000 NA
ENDBRANCH   1  23
TORSDOF 1
ENDMDL
