MODEL 1
REMARK VINA RESULT:      -7.2      0.000      0.000
REMARK  Name = 
REMARK  16 active torsions:
REMARK  status: ('A' for Active; 'I' for Inactive)
REMARK    1  A    between atoms: C_1  and  C_2
REMARK    2  A    between atoms: C_2  and  O_3
REMARK    3  A    between atoms: O_3  and  C_4
REMARK    4  A    between atoms: C_4  and  C_5
REMARK    5  A    between atoms: C_4  and  O_22
REMARK    6  A    between atoms: C_5  and  N_6
REMARK    7  A    between atoms: N_6  and  C_7
REMARK    8  A    between atoms: C_7  and  C_8
REMARK    9  A    between atoms: C_14  and  C_16
REMARK   10  A    between atoms: C_16  and  N_17
REMARK   11  A    between atoms: C_16  and  C_18
REMARK   12  A    between atoms: C_18  and  C_19
REMARK   13  A    between atoms: C_18  and  C_20
REMARK   14  A    between atoms: C_20  and  C_21
REMARK   15  A    between atoms: O_22  and  C_23
REMARK   16  A    between atoms: C_23  and  C_24
REMARK                            x       y       z     vdW  Elec       q    Type
REMARK                         _______ _______ _______ _____ _____    ______ ____
ROOT
ATOM      1  N   UNL     1       4.488   5.285  18.091  0.00  0.00    +0.000 N 
ATOM      2  C   UNL     1       4.621   4.078  18.758  0.00  0.00    +0.000 C 
ATOM      3  O   UNL     1       5.640   3.867  19.426  0.00  0.00    +0.000 OA
ENDROOT
BRANCH   1   4
ATOM      4  C   UNL     1       5.669   6.170  18.153  0.00  0.00    +0.000 C 
BRANCH   4   5
ATOM      5  C   UNL     1       6.382   6.420  16.774  0.00  0.00    +0.000 C 
BRANCH   5   6
ATOM      6  O   UNL     1       7.336   5.396  16.464  0.00  0.00    +0.000 OA
BRANCH   6   8
ATOM      7  C   UNL     1       5.684   4.739  14.730  0.00  0.00    +0.000 C 
ATOM      8  C   UNL     1       7.111   4.675  15.253  0.00  0.00    +0.000 C 
ENDBRANCH   6   8
ENDBRANCH   5   6
BRANCH   5   9
ATOM      9  O   UNL     1       7.058   7.699  16.804  0.00  0.00    +0.000 OA
BRANCH   9  10
ATOM     10  C   UNL     1       7.942   7.776  17.929  0.00  0.00    +0.000 C 
ATOM     11  C   UNL     1       8.373   9.212  18.169  0.00  0.00    +0.000 C 
ENDBRANCH   9  10
ENDBRANCH   5   9
ENDBRANCH   4   5
ENDBRANCH   1   4
BRANCH   1  12
ATOM     12  C   UNL     1       3.227   5.838  17.566  0.00  0.00    +0.000 C 
BRANCH  12  13
ATOM     13  C   UNL     1       2.554   6.936  18.381  0.00  0.00    +0.000 A 
ATOM     14  C   UNL     1       2.315   6.844  19.760  0.00  0.00    +0.000 A 
ATOM     15  C   UNL     1       1.710   7.897  20.461  0.00  0.00    +0.000 A 
ATOM     16  C   UNL     1       1.352   9.074  19.807  0.00  0.00    +0.000 A 
ATOM     17  C   UNL     1       1.609   9.204  18.451  0.00  0.00    +0.000 A 
ATOM     18  C   UNL     1       2.211   8.150  17.746  0.00  0.00    +0.000 A 
ENDBRANCH  12  13
ENDBRANCH   1  12
BRANCH   2  19
ATOM     19  C   UNL     1       3.570   2.959  18.568  0.00  0.00    +0.000 C 
BRANCH  19  20
ATOM     20  N   UNL     1       4.142   1.669  19.033  0.00  0.00    +0.000 NA
ATOM     21  H   UNL     1       3.392   0.980  19.089  0.00  0.00    +0.000 HD
ATOM     22  H   UNL     1       4.476   1.777  19.991  0.00  0.00    +0.000 HD
ENDBRANCH  19  20
BRANCH  19  23
ATOM     23  C   UNL     1       2.239   3.275  19.325  0.00  0.00    +0.000 C 
ATOM     24  C   UNL     1       1.085   2.279  19.082  0.00  0.00    +0.000 C 
BRANCH  23  25
ATOM     25  C   UNL     1       2.464   3.414  20.849  0.00  0.00    +0.000 C 
ATOM     26  C   UNL     1       1.519   2.564  21.683  0.00  0.00    +0.000 C 
ENDBRANCH  23  25
ENDBRANCH  19  23
ENDBRANCH   2  19
TORSDOF 12
ENDMDL
MODEL 2
REMARK VINA RESULT:      -7.1      0.516      1.146
REMARK  Name = 
REMARK  16 active torsions:
REMARK  status: ('A' for Active; 'I' for Inactive)
REMARK    1  A    between atoms: C_1  and  C_2
REMARK    2  A    between atoms: C_2  and  O_3
REMARK    3  A    between atoms: O_3  and  C_4
REMARK    4  A    between atoms: C_4  and  C_5
REMARK    5  A    between atoms: C_4  and  O_22
REMARK    6  A    between atoms: C_5  and  N_6
REMARK    7  A    between atoms: N_6  and  C_7
REMARK    8  A    between atoms: C_7  and  C_8
REMARK    9  A    between atoms: C_14  and  C_16
REMARK   10  A    between atoms: C_16  and  N_17
REMARK   11  A    between atoms: C_16  and  C_18
REMARK   12  A    between atoms: C_18  and  C_19
REMARK   13  A    between atoms: C_18  and  C_20
REMARK   14  A    between atoms: C_20  and  C_21
REMARK   15  A    between atoms: O_22  and  C_23
REMARK   16  A    between atoms: C_23  and  C_24
REMARK                            x       y       z     vdW  Elec       q    Type
REMARK                         _______ _______ _______ _____ _____    ______ ____
ROOT
ATOM      1  N   UNL     1       4.552   5.148  18.012  0.00  0.00    +0.000 N 
ATOM      2  C   UNL     1       4.739   3.967  18.712  0.00  0.00    +0.000 C 
ATOM      3  O   UNL     1       5.794   3.793  19.332  0.00  0.00    +0.000 OA
ENDROOT
BRANCH   1   4
ATOM      4  C   UNL     1       5.721   6.051  17.982  0.00  0.00    +0.000 C 
BRANCH   4   5
ATOM      5  C   UNL     1       6.359   6.261  16.560  0.00  0.00    +0.000 C 
BRANCH   5   6
ATOM      6  O   UNL     1       6.509   5.027  15.846  0.00  0.00    +0.000 OA
BRANCH   6   8
ATOM      7  C   UNL     1       6.177   3.853  13.683  0.00  0.00    +0.000 C 
ATOM      8  C   UNL     1       5.665   4.854  14.708  0.00  0.00    +0.000 C 
ENDBRANCH   6   8
ENDBRANCH   5   6
BRANCH   5   9
ATOM      9  O   UNL     1       7.656   6.885  16.700  0.00  0.00    +0.000 OA
BRANCH   9  10
ATOM     10  C   UNL     1       7.814   7.434  18.014  0.00  0.00    +0.000 C 
ATOM     11  C   UNL     1       8.166   8.908  17.936  0.00  0.00    +0.000 C 
ENDBRANCH   9  10
ENDBRANCH   5   9
ENDBRANCH   4   5
ENDBRANCH   1   4
BRANCH   1  12
ATOM     12  C   UNL     1       3.257   5.665  17.536  0.00  0.00    +0.000 C 
BRANCH  12  13
ATOM     13  C   UNL     1       2.638   6.820  18.314  0.00  0.00    +0.000 A 
ATOM     14  C   UNL     1       2.274   8.042  17.731  0.00  0.00    +0.000 A 
ATOM     15  C   UNL     1       1.688   9.062  18.494  0.00  0.00    +0.000 A 
ATOM     16  C   UNL     1       1.431   8.877  19.851  0.00  0.00    +0.000 A 
ATOM     17  C   UNL     1       1.751   7.665  20.444  0.00  0.00    +0.000 A 
ATOM     18  C   UNL     1       2.341   6.644  19.683  0.00  0.00    +0.000 A 
ENDBRANCH  12  13
ENDBRANCH   1  12
BRANCH   2  19
ATOM     19  C   UNL     1       3.696   2.827  18.615  0.00  0.00    +0.000 C 
BRANCH  19  20
ATOM     20  N   UNL     1       4.328   1.551  19.039  0.00  0.00    +0.000 NA
ATOM     21  H   UNL     1       5.316   1.724  19.229  0.00  0.00    +0.000 HD
ATOM     22  H   UNL     1       4.319   0.898  18.256  0.00  0.00    +0.000 HD
ENDBRANCH  19  20
BRANCH  19  23
ATOM     23  C   UNL     1       2.425   3.126  19.476  0.00  0.00    +0.000 C 
ATOM     24  C   UNL     1       1.106   2.530  18.940  0.00  0.00    +0.000 C 
BRANCH  23  25
ATOM     25  C   UNL     1       2.611   2.681  20.946  0.00  0.00    +0.000 C 
ATOM     26  C   UNL     1       1.351   2.816  21.786  0.00  0.00    +0.000 C 
ENDBRANCH  23  25
ENDBRANCH  19  23
ENDBRANCH   2  19
TORSDOF 12
ENDMDL
MODEL 3
REMARK VINA RESULT:      -7.0      0.534      2.434
REMARK  Name = 
REMARK  16 active torsions:
REMARK  status: ('A' for Active; 'I' for Inactive)
REMARK    1  A    between atoms: C_1  and  C_2
REMARK    2  A    between atoms: C_2  and  O_3
REMARK    3  A    between atoms: O_3  and  C_4
REMARK    4  A    between atoms: C_4  and  C_5
REMARK    5  A    between atoms: C_4  and  O_22
REMARK    6  A    between atoms: C_5  and  N_6
REMARK    7  A    between atoms: N_6  and  C_7
REMARK    8  A    between atoms: C_7  and  C_8
REMARK    9  A    between atoms: C_14  and  C_16
REMARK   10  A    between atoms: C_16  and  N_17
REMARK   11  A    between atoms: C_16  and  C_18
REMARK   12  A    between atoms: C_18  and  C_19
REMARK   13  A    between atoms: C_18  and  C_20
REMARK   14  A    between atoms: C_20  and  C_21
REMARK   15  A    between atoms: O_22  and  C_23
REMARK   16  A    between atoms: C_23  and  C_24
REMARK                            x       y       z     vdW  Elec       q    Type
REMARK                         _______ _______ _______ _____ _____    ______ ____
ROOT
ATOM      1  N   UNL     1       4.812   5.248  18.045  0.00  0.00    +0.000 N 
ATOM      2  C   UNL     1       4.641   4.000  18.621  0.00  0.00    +0.000 C 
ATOM      3  O   UNL     1       5.489   3.582  19.418  0.00  0.00    +0.000 OA
ENDROOT
BRANCH   1   4
ATOM      4  C   UNL     1       6.092   5.916  18.361  0.00  0.00    +0.000 C 
BRANCH   4   5
ATOM      5  C   UNL     1       7.006   6.219  17.118  0.00  0.00    +0.000 C 
BRANCH   5   6
ATOM      6  O   UNL     1       7.378   7.602  17.044  0.00  0.00    +0.000 OA
BRANCH   6   8
ATOM      7  C   UNL     1       8.421   9.600  18.088  0.00  0.00    +0.000 C 
ATOM      8  C   UNL     1       8.153   8.103  18.133  0.00  0.00    +0.000 C 
ENDBRANCH   6   8
ENDBRANCH   5   6
BRANCH   5   9
ATOM      9  O   UNL     1       6.310   5.854  15.905  0.00  0.00    +0.000 OA
BRANCH   9  10
ATOM     10  C   UNL     1       6.941   4.730  15.279  0.00  0.00    +0.000 C 
ATOM     11  C   UNL     1       5.931   3.933  14.473  0.00  0.00    +0.000 C 
ENDBRANCH   9  10
ENDBRANCH   5   9
ENDBRANCH   4   5
ENDBRANCH   1   4
BRANCH   1  12
ATOM     12  C   UNL     1       3.759   6.037  17.381  0.00  0.00    +0.000 C 
BRANCH  12  13
ATOM     13  C   UNL     1       2.916   6.953  18.258  0.00  0.00    +0.000 A 
ATOM     14  C   UNL     1       2.579   6.662  19.588  0.00  0.00    +0.000 A 
ATOM     15  C   UNL     1       1.816   7.554  20.354  0.00  0.00    +0.000 A 
ATOM     16  C   UNL     1       1.392   8.768  19.819  0.00  0.00    +0.000 A 
ATOM     17  C   UNL     1       1.740   9.096  18.517  0.00  0.00    +0.000 A 
ATOM     18  C   UNL     1       2.501   8.202  17.747  0.00  0.00    +0.000 A 
ENDBRANCH  12  13
ENDBRANCH   1  12
BRANCH   2  19
ATOM     19  C   UNL     1       3.471   3.089  18.179  0.00  0.00    +0.000 C 
BRANCH  19  20
ATOM     20  N   UNL     1       3.950   1.683  18.107  0.00  0.00    +0.000 NA
ATOM     21  H   UNL     1       3.208   1.107  17.709  0.00  0.00    +0.000 HD
ATOM     22  H   UNL     1       4.084   1.328  19.053  0.00  0.00    +0.000 HD
ENDBRANCH  19  20
BRANCH  19  23
ATOM     23  C   UNL     1       2.245   3.205  19.142  0.00  0.00    +0.000 C 
ATOM     24  C   UNL     1       0.976   2.449  18.694  0.00  0.00    +0.000 C 
BRANCH  23  25
ATOM     25  C   UNL     1       2.603   2.767  20.582  0.00  0.00    +0.000 C 
ATOM     26  C   UNL     1       1.409   2.738  21.523  0.00  0.00    +0.000 C 
ENDBRANCH  23  25
ENDBRANCH  19  23
ENDBRANCH   2  19
TORSDOF 12
ENDMDL
MODEL 4
REMARK VINA RESULT:      -6.9      0.619      2.601
REMARK  Name = 
REMARK  16 active torsions:
REMARK  status: ('A' for Active; 'I' for Inactive)
REMARK    1  A    between atoms: C_1  and  C_2
REMARK    2  A    between atoms: C_2  and  O_3
REMARK    3  A    between atoms: O_3  and  C_4
REMARK    4  A    between atoms: C_4  and  C_5
REMARK    5  A    between atoms: C_4  and  O_22
REMARK    6  A    between atoms: C_5  and  N_6
REMARK    7  A    between atoms: N_6  and  C_7
REMARK    8  A    between atoms: C_7  and  C_8
REMARK    9  A    between atoms: C_14  and  C_16
REMARK   10  A    between atoms: C_16  and  N_17
REMARK   11  A    between atoms: C_16  and  C_18
REMARK   12  A    between atoms: C_18  and  C_19
REMARK   13  A    between atoms: C_18  and  C_20
REMARK   14  A    between atoms: C_20  and  C_21
REMARK   15  A    between atoms: O_22  and  C_23
REMARK   16  A    between atoms: C_23  and  C_24
REMARK                            x       y       z     vdW  Elec       q    Type
REMARK                         _______ _______ _______ _____ _____    ______ ____
ROOT
ATOM      1  N   UNL     1       4.698   5.364  18.093  0.00  0.00    +0.000 N 
ATOM      2  C   UNL     1       5.036   4.262  18.860  0.00  0.00    +0.000 C 
ATOM      3  O   UNL     1       6.123   4.246  19.448  0.00  0.00    +0.000 OA
ENDROOT
BRANCH   1   4
ATOM      4  C   UNL     1       5.757   6.384  17.957  0.00  0.00    +0.000 C 
BRANCH   4   5
ATOM      5  C   UNL     1       6.899   6.023  16.939  0.00  0.00    +0.000 C 
BRANCH   5   6
ATOM      6  O   UNL     1       7.832   7.098  16.766  0.00  0.00    +0.000 OA
BRANCH   6   8
ATOM      7  C   UNL     1       8.550   8.806  18.420  0.00  0.00    +0.000 C 
ATOM      8  C   UNL     1       7.507   8.322  17.423  0.00  0.00    +0.000 C 
ENDBRANCH   6   8
ENDBRANCH   5   6
BRANCH   5   9
ATOM      9  O   UNL     1       6.317   5.695  15.656  0.00  0.00    +0.000 OA
BRANCH   9  10
ATOM     10  C   UNL     1       6.528   4.312  15.344  0.00  0.00    +0.000 C 
ATOM     11  C   UNL     1       6.249   4.049  13.876  0.00  0.00    +0.000 C 
ENDBRANCH   9  10
ENDBRANCH   5   9
ENDBRANCH   4   5
ENDBRANCH   1   4
BRANCH   1  12
ATOM     12  C   UNL     1       3.339   5.704  17.635  0.00  0.00    +0.000 C 
BRANCH  12  13
ATOM     13  C   UNL     1       2.662   6.904  18.288  0.00  0.00    +0.000 A 
ATOM     14  C   UNL     1       2.270   8.052  17.584  0.00  0.00    +0.000 A 
ATOM     15  C   UNL     1       1.632   9.117  18.235  0.00  0.00    +0.000 A 
ATOM     16  C   UNL     1       1.350   9.052  19.597  0.00  0.00    +0.000 A 
ATOM     17  C   UNL     1       1.696   7.913  20.310  0.00  0.00    +0.000 A 
ATOM     18  C   UNL     1       2.338   6.847  19.661  0.00  0.00    +0.000 A 
ENDBRANCH  12  13
ENDBRANCH   1  12
BRANCH   2  19
ATOM     19  C   UNL     1       4.123   3.012  18.879  0.00  0.00    +0.000 C 
BRANCH  19  20
ATOM     20  N   UNL     1       4.806   1.922  19.623  0.00  0.00    +0.000 NA
ATOM     21  H   UNL     1       5.068   1.191  18.961  0.00  0.00    +0.000 HD
ATOM     22  H   UNL     1       4.139   1.481  20.256  0.00  0.00    +0.000 HD
ENDBRANCH  19  20
BRANCH  19  23
ATOM     23  C   UNL     1       2.727   3.320  19.512  0.00  0.00    +0.000 C 
ATOM     24  C   UNL     1       1.543   2.522  18.925  0.00  0.00    +0.000 C 
BRANCH  23  25
ATOM     25  C   UNL     1       2.740   3.135  21.048  0.00  0.00    +0.000 C 
ATOM     26  C   UNL     1       1.423   2.623  21.609  0.00  0.00    +0.000 C 
ENDBRANCH  23  25
ENDBRANCH  19  23
ENDBRANCH   2  19
TORSDOF 12
ENDMDL
MODEL 5
REMARK VINA RESULT:      -6.8      0.672      1.158
REMARK  Name = 
REMARK  16 active torsions:
REMARK  status: ('A' for Active; 'I' for Inactive)
REMARK    1  A    between atoms: C_1  and  C_2
REMARK    2  A    between atoms: C_2  and  O_3
REMARK    3  A    between atoms: O_3  and  C_4
REMARK    4  A    between atoms: C_4  and  C_5
REMARK    5  A    between atoms: C_4  and  O_22
REMARK    6  A    between atoms: C_5  and  N_6
REMARK    7  A    between atoms: N_6  and  C_7
REMARK    8  A    between atoms: C_7  and  C_8
REMARK    9  A    between atoms: C_14  and  C_16
REMARK   10  A    between atoms: C_16  and  N_17
REMARK   11  A    between atoms: C_16  and  C_18
REMARK   12  A    between atoms: C_18  and  C_19
REMARK   13  A    between atoms: C_18  and  C_20
REMARK   14  A    between atoms: C_20  and  C_21
REMARK   15  A    between atoms: O_22  and  C_23
REMARK   16  A    between atoms: C_23  and  C_24
REMARK                            x       y       z     vdW  Elec       q    Type
REMARK                         _______ _______ _______ _____ _____    ______ ____
ROOT
ATOM      1  N   UNL     1       4.732   4.966  18.098  0.00  0.00    +0.000 N 
ATOM      2  C   UNL     1       4.657   3.808  18.856  0.00  0.00    +0.000 C 
ATOM      3  O   UNL     1       5.582   3.531  19.627  0.00  0.00    +0.000 OA
ENDROOT
BRANCH   1   4
ATOM      4  C   UNL     1       6.005   5.706  18.207  0.00  0.00    +0.000 C 
BRANCH   4   5
ATOM      5  C   UNL     1       6.722   5.997  16.838  0.00  0.00    +0.000 C 
BRANCH   5   6
ATOM      6  O   UNL     1       7.291   4.814  16.263  0.00  0.00    +0.000 OA
BRANCH   6   8
ATOM      7  C   UNL     1       5.557   4.395  14.535  0.00  0.00    +0.000 C 
ATOM      8  C   UNL     1       7.026   4.599  14.877  0.00  0.00    +0.000 C 
ENDBRANCH   6   8
ENDBRANCH   5   6
BRANCH   5   9
ATOM      9  O   UNL     1       7.770   6.974  17.039  0.00  0.00    +0.000 OA
BRANCH   9  10
ATOM     10  C   UNL     1       7.241   8.167  17.631  0.00  0.00    +0.000 C 
ATOM     11  C   UNL     1       8.366   9.090  18.062  0.00  0.00    +0.000 C 
ENDBRANCH   9  10
ENDBRANCH   5   9
ENDBRANCH   4   5
ENDBRANCH   1   4
BRANCH   1  12
ATOM     12  C   UNL     1       3.598   5.623  17.424  0.00  0.00    +0.000 C 
BRANCH  12  13
ATOM     13  C   UNL     1       2.865   6.714  18.194  0.00  0.00    +0.000 A 
ATOM     14  C   UNL     1       2.494   6.599  19.541  0.00  0.00    +0.000 A 
ATOM     15  C   UNL     1       1.839   7.646  20.204  0.00  0.00    +0.000 A 
ATOM     16  C   UNL     1       1.560   8.841  19.545  0.00  0.00    +0.000 A 
ATOM     17  C   UNL     1       1.947   8.994  18.222  0.00  0.00    +0.000 A 
ATOM     18  C   UNL     1       2.600   7.945  17.555  0.00  0.00    +0.000 A 
ENDBRANCH  12  13
ENDBRANCH   1  12
BRANCH   2  19
ATOM     19  C   UNL     1       3.492   2.811  18.647  0.00  0.00    +0.000 C 
BRANCH  19  20
ATOM     20  N   UNL     1       4.045   1.496  18.231  0.00  0.00    +0.000 NA
ATOM     21  H   UNL     1       3.945   0.841  19.006  0.00  0.00    +0.000 HD
ATOM     22  H   UNL     1       5.051   1.588  18.088  0.00  0.00    +0.000 HD
ENDBRANCH  19  20
BRANCH  19  23
ATOM     23  C   UNL     1       2.617   2.659  19.934  0.00  0.00    +0.000 C 
ATOM     24  C   UNL     1       2.921   3.666  21.064  0.00  0.00    +0.000 C 
BRANCH  23  25
ATOM     25  C   UNL     1       1.106   2.715  19.610  0.00  0.00    +0.000 C 
ATOM     26  C   UNL     1       0.788   3.451  18.319  0.00  0.00    +0.000 C 
ENDBRANCH  23  25
ENDBRANCH  19  23
ENDBRANCH   2  19
TORSDOF 12
ENDMDL
MODEL 6
REMARK VINA RESULT:      -6.7      0.819      2.717
REMARK  Name = 
REMARK  16 active torsions:
REMARK  status: ('A' for Active; 'I' for Inactive)
REMARK    1  A    between atoms: C_1  and  C_2
REMARK    2  A    between atoms: C_2  and  O_3
REMARK    3  A    between atoms: O_3  and  C_4
REMARK    4  A    between atoms: C_4  and  C_5
REMARK    5  A    between atoms: C_4  and  O_22
REMARK    6  A    between atoms: C_5  and  N_6
REMARK    7  A    between atoms: N_6  and  C_7
REMARK    8  A    between atoms: C_7  and  C_8
REMARK    9  A    between atoms: C_14  and  C_16
REMARK   10  A    between atoms: C_16  and  N_17
REMARK   11  A    between atoms: C_16  and  C_18
REMARK   12  A    between atoms: C_18  and  C_19
REMARK   13  A    between atoms: C_18  and  C_20
REMARK   14  A    between atoms: C_20  and  C_21
REMARK   15  A    between atoms: O_22  and  C_23
REMARK   16  A    between atoms: C_23  and  C_24
REMARK                            x       y       z     vdW  Elec       q    Type
REMARK                         _______ _______ _______ _____ _____    ______ ____
ROOT
ATOM      1  N   UNL     1       4.652   4.749  18.404  0.00  0.00    +0.000 N 
ATOM      2  C   UNL     1       4.548   3.580  19.140  0.00  0.00    +0.000 C 
ATOM      3  O   UNL     1       5.436   3.296  19.951  0.00  0.00    +0.000 OA
ENDROOT
BRANCH   1   4
ATOM      4  C   UNL     1       5.913   5.496  18.587  0.00  0.00    +0.000 C 
BRANCH   4   5
ATOM      5  C   UNL     1       7.020   5.201  17.510  0.00  0.00    +0.000 C 
BRANCH   5   6
ATOM      6  O   UNL     1       7.368   6.370  16.756  0.00  0.00    +0.000 OA
BRANCH   6   8
ATOM      7  C   UNL     1       8.178   8.417  17.904  0.00  0.00    +0.000 C 
ATOM      8  C   UNL     1       7.010   7.622  17.340  0.00  0.00    +0.000 C 
ENDBRANCH   6   8
ENDBRANCH   5   6
BRANCH   5   9
ATOM      9  O   UNL     1       6.551   4.178  16.602  0.00  0.00    +0.000 OA
BRANCH   9  10
ATOM     10  C   UNL     1       6.806   4.553  15.243  0.00  0.00    +0.000 C 
ATOM     11  C   UNL     1       5.575   4.321  14.387  0.00  0.00    +0.000 C 
ENDBRANCH   9  10
ENDBRANCH   5   9
ENDBRANCH   4   5
ENDBRANCH   1   4
BRANCH   1  12
ATOM     12  C   UNL     1       3.548   5.409  17.684  0.00  0.00    +0.000 C 
BRANCH  12  13
ATOM     13  C   UNL     1       2.867   6.583  18.376  0.00  0.00    +0.000 A 
ATOM     14  C   UNL     1       2.618   7.814  17.753  0.00  0.00    +0.000 A 
ATOM     15  C   UNL     1       1.968   8.853  18.434  0.00  0.00    +0.000 A 
ATOM     16  C   UNL     1       1.530   8.679  19.745  0.00  0.00    +0.000 A 
ATOM     17  C   UNL     1       1.733   7.459  20.373  0.00  0.00    +0.000 A 
ATOM     18  C   UNL     1       2.387   6.419  19.694  0.00  0.00    +0.000 A 
ENDBRANCH  12  13
ENDBRANCH   1  12
BRANCH   2  19
ATOM     19  C   UNL     1       3.401   2.579  18.858  0.00  0.00    +0.000 C 
BRANCH  19  20
ATOM     20  N   UNL     1       3.984   1.249  18.538  0.00  0.00    +0.000 NA
ATOM     21  H   UNL     1       4.875   1.390  18.062  0.00  0.00    +0.000 HD
ATOM     22  H   UNL     1       3.389   0.780  17.856  0.00  0.00    +0.000 HD
ENDBRANCH  19  20
BRANCH  19  23
ATOM     23  C   UNL     1       2.412   2.472  20.065  0.00  0.00    +0.000 C 
ATOM     24  C   UNL     1       2.888   3.138  21.373  0.00  0.00    +0.000 C 
BRANCH  23  25
ATOM     25  C   UNL     1       1.011   3.021  19.707  0.00  0.00    +0.000 C 
ATOM     26  C   UNL     1       0.439   2.439  18.425  0.00  0.00    +0.000 C 
ENDBRANCH  23  25
ENDBRANCH  19  23
ENDBRANCH   2  19
TORSDOF 12
ENDMDL
MODEL 7
REMARK VINA RESULT:      -6.7      0.863      2.377
REMARK  Name = 
REMARK  16 active torsions:
REMARK  status: ('A' for Active; 'I' for Inactive)
REMARK    1  A    between atoms: C_1  and  C_2
REMARK    2  A    between atoms: C_2  and  O_3
REMARK    3  A    between atoms: O_3  and  C_4
REMARK    4  A    between atoms: C_4  and  C_5
REMARK    5  A    between atoms: C_4  and  O_22
REMARK    6  A    between atoms: C_5  and  N_6
REMARK    7  A    between atoms: N_6  and  C_7
REMARK    8  A    between atoms: C_7  and  C_8
REMARK    9  A    between atoms: C_14  and  C_16
REMARK   10  A    between atoms: C_16  and  N_17
REMARK   11  A    between atoms: C_16  and  C_18
REMARK   12  A    between atoms: C_18  and  C_19
REMARK   13  A    between atoms: C_18  and  C_20
REMARK   14  A    between atoms: C_20  and  C_21
REMARK   15  A    between atoms: O_22  and  C_23
REMARK   16  A    between atoms: C_23  and  C_24
REMARK                            x       y       z     vdW  Elec       q    Type
REMARK                         _______ _______ _______ _____ _____    ______ ____
ROOT
ATOM      1  N   UNL     1       4.329   5.888  18.088  0.00  0.00    +0.000 N 
ATOM      2  C   UNL     1       4.605   4.836  18.945  0.00  0.00    +0.000 C 
ATOM      3  O   UNL     1       5.710   4.782  19.498  0.00  0.00    +0.000 OA
ENDROOT
BRANCH   1   4
ATOM      4  C   UNL     1       5.463   6.796  17.822  0.00  0.00    +0.000 C 
BRANCH   4   5
ATOM      5  C   UNL     1       6.518   6.255  16.790  0.00  0.00    +0.000 C 
BRANCH   5   6
ATOM      6  O   UNL     1       7.715   7.045  16.774  0.00  0.00    +0.000 OA
BRANCH   6   8
ATOM      7  C   UNL     1       8.212   9.165  17.966  0.00  0.00    +0.000 C 
ATOM      8  C   UNL     1       8.084   7.650  18.012  0.00  0.00    +0.000 C 
ENDBRANCH   6   8
ENDBRANCH   5   6
BRANCH   5   9
ATOM      9  O   UNL     1       5.940   6.251  15.464  0.00  0.00    +0.000 OA
BRANCH   9  10
ATOM     10  C   UNL     1       6.246   5.028  14.784  0.00  0.00    +0.000 C 
ATOM     11  C   UNL     1       6.013   3.838  15.696  0.00  0.00    +0.000 C 
ENDBRANCH   9  10
ENDBRANCH   5   9
ENDBRANCH   4   5
ENDBRANCH   1   4
BRANCH   1  12
ATOM     12  C   UNL     1       2.985   6.300  17.643  0.00  0.00    +0.000 C 
BRANCH  12  13
ATOM     13  C   UNL     1       2.302   7.413  18.427  0.00  0.00    +0.000 A 
ATOM     14  C   UNL     1       2.143   7.398  19.820  0.00  0.00    +0.000 A 
ATOM     15  C   UNL     1       1.523   8.462  20.490  0.00  0.00    +0.000 A 
ATOM     16  C   UNL     1       1.069   9.576  19.788  0.00  0.00    +0.000 A 
ATOM     17  C   UNL     1       1.244   9.632  18.413  0.00  0.00    +0.000 A 
ATOM     18  C   UNL     1       1.861   8.566  17.740  0.00  0.00    +0.000 A 
ENDBRANCH  12  13
ENDBRANCH   1  12
BRANCH   2  19
ATOM     19  C   UNL     1       3.594   3.677  19.113  0.00  0.00    +0.000 C 
BRANCH  19  20
ATOM     20  N   UNL     1       4.338   2.397  19.242  0.00  0.00    +0.000 NA
ATOM     21  H   UNL     1       3.830   1.789  19.886  0.00  0.00    +0.000 HD
ATOM     22  H   UNL     1       5.233   2.576  19.696  0.00  0.00    +0.000 HD
ENDBRANCH  19  20
BRANCH  19  23
ATOM     23  C   UNL     1       2.654   3.896  20.343  0.00  0.00    +0.000 C 
ATOM     24  C   UNL     1       1.157   4.073  20.010  0.00  0.00    +0.000 C 
BRANCH  23  25
ATOM     25  C   UNL     1       2.802   2.763  21.386  0.00  0.00    +0.000 C 
ATOM     26  C   UNL     1       1.475   2.279  21.949  0.00  0.00    +0.000 C 
ENDBRANCH  23  25
ENDBRANCH  19  23
ENDBRANCH   2  19
TORSDOF 12
ENDMDL
MODEL 8
REMARK VINA RESULT:      -6.7      0.875      2.523
REMARK  Name = 
REMARK  16 active torsions:
REMARK  status: ('A' for Active; 'I' for Inactive)
REMARK    1  A    between atoms: C_1  and  C_2
REMARK    2  A    between atoms: C_2  and  O_3
REMARK    3  A    between atoms: O_3  and  C_4
REMARK    4  A    between atoms: C_4  and  C_5
REMARK    5  A    between atoms: C_4  and  O_22
REMARK    6  A    between atoms: C_5  and  N_6
REMARK    7  A    between atoms: N_6  and  C_7
REMARK    8  A    between atoms: C_7  and  C_8
REMARK    9  A    between atoms: C_14  and  C_16
REMARK   10  A    between atoms: C_16  and  N_17
REMARK   11  A    between atoms: C_16  and  C_18
REMARK   12  A    between atoms: C_18  and  C_19
REMARK   13  A    between atoms: C_18  and  C_20
REMARK   14  A    between atoms: C_20  and  C_21
REMARK   15  A    between atoms: O_22  and  C_23
REMARK   16  A    between atoms: C_23  and  C_24
REMARK                            x       y       z     vdW  Elec       q    Type
REMARK                         _______ _______ _______ _____ _____    ______ ____
ROOT
ATOM      1  N   UNL     1       4.275   4.567  18.455  0.00  0.00    +0.000 N 
ATOM      2  C   UNL     1       4.372   3.291  18.988  0.00  0.00    +0.000 C 
ATOM      3  O   UNL     1       5.327   3.015  19.722  0.00  0.00    +0.000 OA
ENDROOT
BRANCH   1   4
ATOM      4  C   UNL     1       5.424   5.452  18.734  0.00  0.00    +0.000 C 
BRANCH   4   5
ATOM      5  C   UNL     1       6.445   5.606  17.549  0.00  0.00    +0.000 C 
BRANCH   5   6
ATOM      6  O   UNL     1       6.758   6.979  17.278  0.00  0.00    +0.000 OA
BRANCH   6   8
ATOM      7  C   UNL     1       8.054   9.014  17.864  0.00  0.00    +0.000 C 
ATOM      8  C   UNL     1       7.913   7.501  17.934  0.00  0.00    +0.000 C 
ENDBRANCH   6   8
ENDBRANCH   5   6
BRANCH   5   9
ATOM      9  O   UNL     1       5.895   5.005  16.355  0.00  0.00    +0.000 OA
BRANCH   9  10
ATOM     10  C   UNL     1       6.938   4.671  15.431  0.00  0.00    +0.000 C 
ATOM     11  C   UNL     1       6.354   4.086  14.157  0.00  0.00    +0.000 C 
ENDBRANCH   9  10
ENDBRANCH   5   9
ENDBRANCH   4   5
ENDBRANCH   1   4
BRANCH   1  12
ATOM     12  C   UNL     1       3.057   5.163  17.878  0.00  0.00    +0.000 C 
BRANCH  12  13
ATOM     13  C   UNL     1       2.515   6.423  18.541  0.00  0.00    +0.000 A 
ATOM     14  C   UNL     1       2.203   6.509  19.906  0.00  0.00    +0.000 A 
ATOM     15  C   UNL     1       1.726   7.704  20.465  0.00  0.00    +0.000 A 
ATOM     16  C   UNL     1       1.573   8.845  19.681  0.00  0.00    +0.000 A 
ATOM     17  C   UNL     1       1.908   8.796  18.336  0.00  0.00    +0.000 A 
ATOM     18  C   UNL     1       2.382   7.600  17.773  0.00  0.00    +0.000 A 
ENDBRANCH  12  13
ENDBRANCH   1  12
BRANCH   2  19
ATOM     19  C   UNL     1       3.369   2.190  18.567  0.00  0.00    +0.000 C 
BRANCH  19  20
ATOM     20  N   UNL     1       4.107   0.918  18.349  0.00  0.00    +0.000 NA
ATOM     21  H   UNL     1       3.931   0.599  17.396  0.00  0.00    +0.000 HD
ATOM     22  H   UNL     1       3.710   0.195  18.949  0.00  0.00    +0.000 HD
ENDBRANCH  19  20
BRANCH  19  23
ATOM     23  C   UNL     1       2.238   1.996  19.629  0.00  0.00    +0.000 C 
ATOM     24  C   UNL     1       2.518   2.612  21.016  0.00  0.00    +0.000 C 
BRANCH  23  25
ATOM     25  C   UNL     1       0.876   2.521  19.117  0.00  0.00    +0.000 C 
ATOM     26  C   UNL     1       0.310   3.658  19.953  0.00  0.00    +0.000 C 
ENDBRANCH  23  25
ENDBRANCH  19  23
ENDBRANCH   2  19
TORSDOF 12
ENDMDL
MODEL 9
REMARK VINA RESULT:      -6.5      1.141      2.659
REMARK  Name = 
REMARK  16 active torsions:
REMARK  status: ('A' for Active; 'I' for Inactive)
REMARK    1  A    between atoms: C_1  and  C_2
REMARK    2  A    between atoms: C_2  and  O_3
REMARK    3  A    between atoms: O_3  and  C_4
REMARK    4  A    between atoms: C_4  and  C_5
REMARK    5  A    between atoms: C_4  and  O_22
REMARK    6  A    between atoms: C_5  and  N_6
REMARK    7  A    between atoms: N_6  and  C_7
REMARK    8  A    between atoms: C_7  and  C_8
REMARK    9  A    between atoms: C_14  and  C_16
REMARK   10  A    between atoms: C_16  and  N_17
REMARK   11  A    between atoms: C_16  and  C_18
REMARK   12  A    between atoms: C_18  and  C_19
REMARK   13  A    between atoms: C_18  and  C_20
REMARK   14  A    between atoms: C_20  and  C_21
REMARK   15  A    between atoms: O_22  and  C_23
REMARK   16  A    between atoms: C_23  and  C_24
REMARK                            x       y       z     vdW  Elec       q    Type
REMARK                         _______ _______ _______ _____ _____    ______ ____
ROOT
ATOM      1  N   UNL     1       4.260   5.363  18.350  0.00  0.00    +0.000 N 
ATOM      2  C   UNL     1       3.488   4.280  18.738  0.00  0.00    +0.000 C 
ATOM      3  O   UNL     1       3.918   3.513  19.608  0.00  0.00    +0.000 OA
ENDROOT
BRANCH   1   4
ATOM      4  C   UNL     1       5.609   5.419  18.948  0.00  0.00    +0.000 C 
BRANCH   4   5
ATOM      5  C   UNL     1       6.791   5.147  17.947  0.00  0.00    +0.000 C 
BRANCH   5   6
ATOM      6  O   UNL     1       7.267   6.352  17.332  0.00  0.00    +0.000 OA
BRANCH   6   8
ATOM      7  C   UNL     1       7.922   8.712  17.740  0.00  0.00    +0.000 C 
ATOM      8  C   UNL     1       7.967   7.258  18.184  0.00  0.00    +0.000 C 
ENDBRANCH   6   8
ENDBRANCH   5   6
BRANCH   5   9
ATOM      9  O   UNL     1       6.350   4.235  16.916  0.00  0.00    +0.000 OA
BRANCH   9  10
ATOM     10  C   UNL     1       6.662   4.753  15.616  0.00  0.00    +0.000 C 
ATOM     11  C   UNL     1       5.516   4.500  14.654  0.00  0.00    +0.000 C 
ENDBRANCH   9  10
ENDBRANCH   5   9
ENDBRANCH   4   5
ENDBRANCH   1   4
BRANCH   1  12
ATOM     12  C   UNL     1       3.770   6.545  17.620  0.00  0.00    +0.000 C 
BRANCH  12  13
ATOM     13  C   UNL     1       2.832   7.486  18.366  0.00  0.00    +0.000 A 
ATOM     14  C   UNL     1       2.232   8.610  17.780  0.00  0.00    +0.000 A 
ATOM     15  C   UNL     1       1.359   9.428  18.511  0.00  0.00    +0.000 A 
ATOM     16  C   UNL     1       1.047   9.131  19.835  0.00  0.00    +0.000 A 
ATOM     17  C   UNL     1       1.600   8.006  20.428  0.00  0.00    +0.000 A 
ATOM     18  C   UNL     1       2.476   7.187  19.699  0.00  0.00    +0.000 A 
ENDBRANCH  12  13
ENDBRANCH   1  12
BRANCH   2  19
ATOM     19  C   UNL     1       2.163   3.960  18.005  0.00  0.00    +0.000 C 
BRANCH  19  20
ATOM     20  N   UNL     1       2.447   3.061  16.856  0.00  0.00    +0.000 NA
ATOM     21  H   UNL     1       1.980   3.433  16.029  0.00  0.00    +0.000 HD
ATOM     22  H   UNL     1       2.009   2.156  17.025  0.00  0.00    +0.000 HD
ENDBRANCH  19  20
BRANCH  19  23
ATOM     23  C   UNL     1       1.109   3.316  18.963  0.00  0.00    +0.000 C 
ATOM     24  C   UNL     1       1.205   1.783  19.119  0.00  0.00    +0.000 C 
BRANCH  23  25
ATOM     25  C   UNL     1       1.139   3.962  20.368  0.00  0.00    +0.000 C 
ATOM     26  C   UNL     1       1.261   2.953  21.498  0.00  0.00    +0.000 C 
ENDBRANCH  23  25
ENDBRANCH  19  23
ENDBRANCH   2  19
TORSDOF 12
ENDMDL
