MODEL 1
REMARK VINA RESULT:      -6.3      0.000      0.000
REMARK  Name = 
REMARK  8 active torsions:
REMARK  status: ('A' for Active; 'I' for Inactive)
REMARK    1  A    between atoms: C_1  and  C_2
REMARK    2  A    between atoms: C_2  and  C_3
REMARK    3  A    between atoms: C_6  and  C_7
REMARK    4  A    between atoms: C_7  and  O_8
REMARK    5  A    between atoms: O_8  and  C_9
REMARK    6  A    between atoms: C_9  and  C_10
REMARK    7  A    between atoms: C_13  and  C_14
REMARK    8  A    between atoms: C_14  and  O_15
REMARK                            x       y       z     vdW  Elec       q    Type
REMARK                         _______ _______ _______ _____ _____    ______ ____
ROOT
ATOM      1  C   UNL     1       3.360   7.172  17.713  0.00  0.00    +0.000 C 
ENDROOT
BRANCH   1   2
ATOM      2  C   UNL     1       2.940   5.965  18.523  0.00  0.00    +0.000 C 
ATOM      3  C   UNL     1       2.594   6.035  19.827  0.00  0.00    +0.000 C 
ATOM      4  C   UNL     1       2.214   4.908  20.653  0.00  0.00    +0.000 C 
ATOM      5  C   UNL     1       1.637   3.780  20.198  0.00  0.00    +0.000 C 
ATOM      6  S   UNL     1       1.278   3.582  18.494  0.00  0.00    +0.000 S 
ATOM      7  S   UNL     1       2.999   4.409  17.711  0.00  0.00    +0.000 S 
BRANCH   5   8
ATOM      8  C   UNL     1       1.180   2.696  21.139  0.00  0.00    +0.000 C 
BRANCH   8   9
ATOM      9  O   UNL     1       1.877   2.772  22.376  0.00  0.00    +0.000 OA
ATOM     10  H   UNL     1       1.744   3.672  22.723  0.00  0.00    +0.000 HD
ENDBRANCH   8   9
ENDBRANCH   5   8
ENDBRANCH   1   2
BRANCH   1  11
ATOM     11  O   UNL     1       4.542   6.877  16.962  0.00  0.00    +0.000 OA
BRANCH  11  12
ATOM     12  C   UNL     1       5.669   6.636  17.797  0.00  0.00    +0.000 C 
BRANCH  12  18
ATOM     13  C   UNL     1       5.505   4.078  15.046  0.00  0.00    +0.000 C 
ATOM     14  C   UNL     1       6.806   4.878  15.117  0.00  0.00    +0.000 C 
ATOM     15  C   UNL     1       7.476   4.944  13.753  0.00  0.00    +0.000 C 
ATOM     16  O   UNL     1       7.705   4.267  16.043  0.00  0.00    +0.000 OA
ATOM     17  C   UNL     1       7.454   4.908  17.291  0.00  0.00    +0.000 C 
ATOM     18  C   UNL     1       6.876   6.267  16.936  0.00  0.00    +0.000 C 
ATOM     19  O   UNL     1       6.492   6.200  15.559  0.00  0.00    +0.000 OA
ENDBRANCH  12  18
ENDBRANCH  11  12
ENDBRANCH   1  11
TORSDOF 6
ENDMDL
MODEL 2
REMARK VINA RESULT:      -6.0      4.191      5.746
REMARK  Name = 
REMARK  8 active torsions:
REMARK  status: ('A' for Active; 'I' for Inactive)
REMARK    1  A    between atoms: C_1  and  C_2
REMARK    2  A    between atoms: C_2  and  C_3
REMARK    3  A    between atoms: C_6  and  C_7
REMARK    4  A    between atoms: C_7  and  O_8
REMARK    5  A    between atoms: O_8  and  C_9
REMARK    6  A    between atoms: C_9  and  C_10
REMARK    7  A    between atoms: C_13  and  C_14
REMARK    8  A    between atoms: C_14  and  O_15
REMARK                            x       y       z     vdW  Elec       q    Type
REMARK                         _______ _______ _______ _____ _____    ______ ____
ROOT
ATOM      1  C   UNL     1       2.481   8.239  18.144  0.00  0.00    +0.000 C 
ENDROOT
BRANCH   1   2
ATOM      2  C   UNL     1       1.600   8.723  19.275  0.00  0.00    +0.000 C 
ATOM      3  C   UNL     1       1.554   8.122  20.483  0.00  0.00    +0.000 C 
ATOM      4  C   UNL     1       0.709   8.527  21.588  0.00  0.00    +0.000 C 
ATOM      5  C   UNL     1       0.277   9.783  21.805  0.00  0.00    +0.000 C 
ATOM      6  S   UNL     1       0.731  11.086  20.725  0.00  0.00    +0.000 S 
ATOM      7  S   UNL     1       0.548  10.085  18.929  0.00  0.00    +0.000 S 
BRANCH   5   8
ATOM      8  C   UNL     1      -0.517  10.140  23.035  0.00  0.00    +0.000 C 
BRANCH   8   9
ATOM      9  O   UNL     1      -0.633  11.550  23.171  0.00  0.00    +0.000 OA
ATOM     10  H   UNL     1      -0.236  11.788  24.028  0.00  0.00    +0.000 HD
ENDBRANCH   8   9
ENDBRANCH   5   8
ENDBRANCH   1   2
BRANCH   1  11
ATOM     11  O   UNL     1       2.333   6.826  17.972  0.00  0.00    +0.000 OA
BRANCH  11  12
ATOM     12  C   UNL     1       3.584   6.149  17.948  0.00  0.00    +0.000 C 
BRANCH  12  18
ATOM     13  C   UNL     1       1.247   4.364  20.290  0.00  0.00    +0.000 C 
ATOM     14  C   UNL     1       1.796   3.515  19.144  0.00  0.00    +0.000 C 
ATOM     15  C   UNL     1       0.844   2.376  18.810  0.00  0.00    +0.000 C 
ATOM     16  O   UNL     1       3.063   2.966  19.507  0.00  0.00    +0.000 OA
ATOM     17  C   UNL     1       4.029   3.902  19.035  0.00  0.00    +0.000 C 
ATOM     18  C   UNL     1       3.351   4.640  17.894  0.00  0.00    +0.000 C 
ATOM     19  O   UNL     1       1.952   4.358  18.001  0.00  0.00    +0.000 OA
ENDBRANCH  12  18
ENDBRANCH  11  12
ENDBRANCH   1  11
TORSDOF 6
ENDMDL
MODEL 3
REMARK VINA RESULT:      -6.0      2.146      2.706
REMARK  Name = 
REMARK  8 active torsions:
REMARK  status: ('A' for Active; 'I' for Inactive)
REMARK    1  A    between atoms: C_1  and  C_2
REMARK    2  A    between atoms: C_2  and  C_3
REMARK    3  A    between atoms: C_6  and  C_7
REMARK    4  A    between atoms: C_7  and  O_8
REMARK    5  A    between atoms: O_8  and  C_9
REMARK    6  A    between atoms: C_9  and  C_10
REMARK    7  A    between atoms: C_13  and  C_14
REMARK    8  A    between atoms: C_14  and  O_15
REMARK                            x       y       z     vdW  Elec       q    Type
REMARK                         _______ _______ _______ _____ _____    ______ ____
ROOT
ATOM      1  C   UNL     1       6.209   5.234  19.289  0.00  0.00    +0.000 C 
ENDROOT
BRANCH   1   2
ATOM      2  C   UNL     1       4.810   4.656  19.297  0.00  0.00    +0.000 C 
ATOM      3  C   UNL     1       4.558   3.337  19.439  0.00  0.00    +0.000 C 
ATOM      4  C   UNL     1       3.243   2.731  19.424  0.00  0.00    +0.000 C 
ATOM      5  C   UNL     1       2.107   3.347  19.802  0.00  0.00    +0.000 C 
ATOM      6  S   UNL     1       2.135   5.003  20.374  0.00  0.00    +0.000 S 
ATOM      7  S   UNL     1       3.489   5.781  19.026  0.00  0.00    +0.000 S 
BRANCH   5   8
ATOM      8  C   UNL     1       0.792   2.613  19.852  0.00  0.00    +0.000 C 
BRANCH   8   9
ATOM      9  O   UNL     1       0.264   2.431  18.545  0.00  0.00    +0.000 OA
ATOM     10  H   UNL     1      -0.699   2.564  18.606  0.00  0.00    +0.000 HD
ENDBRANCH   8   9
ENDBRANCH   5   8
ENDBRANCH   1   2
BRANCH   1  11
ATOM     11  O   UNL     1       7.093   4.380  18.555  0.00  0.00    +0.000 OA
BRANCH  11  12
ATOM     12  C   UNL     1       7.379   4.884  17.256  0.00  0.00    +0.000 C 
BRANCH  12  18
ATOM     13  C   UNL     1       7.690   5.265  13.529  0.00  0.00    +0.000 C 
ATOM     14  C   UNL     1       6.476   4.467  14.004  0.00  0.00    +0.000 C 
ATOM     15  C   UNL     1       6.021   3.487  12.934  0.00  0.00    +0.000 C 
ATOM     16  O   UNL     1       5.399   5.352  14.308  0.00  0.00    +0.000 OA
ATOM     17  C   UNL     1       5.527   5.639  15.698  0.00  0.00    +0.000 C 
ATOM     18  C   UNL     1       6.279   4.458  16.285  0.00  0.00    +0.000 C 
ATOM     19  O   UNL     1       6.850   3.748  15.181  0.00  0.00    +0.000 OA
ENDBRANCH  12  18
ENDBRANCH  11  12
ENDBRANCH   1  11
TORSDOF 6
ENDMDL
MODEL 4
REMARK VINA RESULT:      -5.7      2.749      6.580
REMARK  Name = 
REMARK  8 active torsions:
REMARK  status: ('A' for Active; 'I' for Inactive)
REMARK    1  A    between atoms: C_1  and  C_2
REMARK    2  A    between atoms: C_2  and  C_3
REMARK    3  A    between atoms: C_6  and  C_7
REMARK    4  A    between atoms: C_7  and  O_8
REMARK    5  A    between atoms: O_8  and  C_9
REMARK    6  A    between atoms: C_9  and  C_10
REMARK    7  A    between atoms: C_13  and  C_14
REMARK    8  A    between atoms: C_14  and  O_15
REMARK                            x       y       z     vdW  Elec       q    Type
REMARK                         _______ _______ _______ _____ _____    ______ ____
ROOT
ATOM      1  C   UNL     1       5.085   4.302  15.919  0.00  0.00    +0.000 C 
ENDROOT
BRANCH   1   2
ATOM      2  C   UNL     1       6.088   5.251  16.537  0.00  0.00    +0.000 C 
ATOM      3  C   UNL     1       5.985   6.594  16.448  0.00  0.00    +0.000 C 
ATOM      4  C   UNL     1       6.931   7.544  16.996  0.00  0.00    +0.000 C 
ATOM      5  C   UNL     1       7.705   7.324  18.075  0.00  0.00    +0.000 C 
ATOM      6  S   UNL     1       7.619   5.804  18.944  0.00  0.00    +0.000 S 
ATOM      7  S   UNL     1       7.477   4.526  17.330  0.00  0.00    +0.000 S 
BRANCH   5   8
ATOM      8  C   UNL     1       8.591   8.403  18.642  0.00  0.00    +0.000 C 
BRANCH   8   9
ATOM      9  O   UNL     1       8.294   9.662  18.052  0.00  0.00    +0.000 OA
ATOM     10  H   UNL     1       8.641  10.346  18.651  0.00  0.00    +0.000 HD
ENDBRANCH   8   9
ENDBRANCH   5   8
ENDBRANCH   1   2
BRANCH   1  11
ATOM     11  O   UNL     1       4.435   3.535  16.938  0.00  0.00    +0.000 OA
BRANCH  11  12
ATOM     12  C   UNL     1       3.344   4.231  17.527  0.00  0.00    +0.000 C 
BRANCH  12  18
ATOM     13  C   UNL     1       0.659   3.168  19.935  0.00  0.00    +0.000 C 
ATOM     14  C   UNL     1       2.021   3.462  20.564  0.00  0.00    +0.000 C 
ATOM     15  C   UNL     1       2.197   2.685  21.860  0.00  0.00    +0.000 C 
ATOM     16  O   UNL     1       2.140   4.856  20.843  0.00  0.00    +0.000 OA
ATOM     17  C   UNL     1       2.755   5.421  19.687  0.00  0.00    +0.000 C 
ATOM     18  C   UNL     1       3.524   4.281  19.044  0.00  0.00    +0.000 C 
ATOM     19  O   UNL     1       3.034   3.073  19.634  0.00  0.00    +0.000 OA
ENDBRANCH  12  18
ENDBRANCH  11  12
ENDBRANCH   1  11
TORSDOF 6
ENDMDL
MODEL 5
REMARK VINA RESULT:      -5.7      1.742      2.971
REMARK  Name = 
REMARK  8 active torsions:
REMARK  status: ('A' for Active; 'I' for Inactive)
REMARK    1  A    between atoms: C_1  and  C_2
REMARK    2  A    between atoms: C_2  and  C_3
REMARK    3  A    between atoms: C_6  and  C_7
REMARK    4  A    between atoms: C_7  and  O_8
REMARK    5  A    between atoms: O_8  and  C_9
REMARK    6  A    between atoms: C_9  and  C_10
REMARK    7  A    between atoms: C_13  and  C_14
REMARK    8  A    between atoms: C_14  and  O_15
REMARK                            x       y       z     vdW  Elec       q    Type
REMARK                         _______ _______ _______ _____ _____    ______ ____
ROOT
ATOM      1  C   UNL     1       5.278   3.165  16.784  0.00  0.00    +0.000 C 
ENDROOT
BRANCH   1   2
ATOM      2  C   UNL     1       4.152   3.071  17.789  0.00  0.00    +0.000 C 
ATOM      3  C   UNL     1       4.331   2.653  19.061  0.00  0.00    +0.000 C 
ATOM      4  C   UNL     1       3.284   2.517  20.052  0.00  0.00    +0.000 C 
ATOM      5  C   UNL     1       2.151   3.243  20.079  0.00  0.00    +0.000 C 
ATOM      6  S   UNL     1       1.844   4.470  18.865  0.00  0.00    +0.000 S 
ATOM      7  S   UNL     1       2.540   3.455  17.208  0.00  0.00    +0.000 S 
BRANCH   5   8
ATOM      8  C   UNL     1       1.157   3.110  21.203  0.00  0.00    +0.000 C 
BRANCH   8   9
ATOM      9  O   UNL     1       1.787   2.619  22.380  0.00  0.00    +0.000 OA
ATOM     10  H   UNL     1       2.683   2.336  22.126  0.00  0.00    +0.000 HD
ENDBRANCH   8   9
ENDBRANCH   5   8
ENDBRANCH   1   2
BRANCH   1  11
ATOM     11  O   UNL     1       4.913   4.041  15.712  0.00  0.00    +0.000 OA
BRANCH  11  12
ATOM     12  C   UNL     1       6.045   4.621  15.076  0.00  0.00    +0.000 C 
BRANCH  12  18
ATOM     13  C   UNL     1       7.228   5.788  18.448  0.00  0.00    +0.000 C 
ATOM     14  C   UNL     1       7.047   6.889  17.403  0.00  0.00    +0.000 C 
ATOM     15  C   UNL     1       7.948   8.076  17.706  0.00  0.00    +0.000 C 
ATOM     16  O   UNL     1       5.690   7.332  17.390  0.00  0.00    +0.000 OA
ATOM     17  C   UNL     1       5.043   6.536  16.400  0.00  0.00    +0.000 C 
ATOM     18  C   UNL     1       6.145   6.098  15.452  0.00  0.00    +0.000 C 
ATOM     19  O   UNL     1       7.384   6.348  16.124  0.00  0.00    +0.000 OA
ENDBRANCH  12  18
ENDBRANCH  11  12
ENDBRANCH   1  11
TORSDOF 6
ENDMDL
MODEL 6
REMARK VINA RESULT:      -5.7      2.984      6.573
REMARK  Name = 
REMARK  8 active torsions:
REMARK  status: ('A' for Active; 'I' for Inactive)
REMARK    1  A    between atoms: C_1  and  C_2
REMARK    2  A    between atoms: C_2  and  C_3
REMARK    3  A    between atoms: C_6  and  C_7
REMARK    4  A    between atoms: C_7  and  O_8
REMARK    5  A    between atoms: O_8  and  C_9
REMARK    6  A    between atoms: C_9  and  C_10
REMARK    7  A    between atoms: C_13  and  C_14
REMARK    8  A    between atoms: C_14  and  O_15
REMARK                            x       y       z     vdW  Elec       q    Type
REMARK                         _______ _______ _______ _____ _____    ______ ____
ROOT
ATOM      1  C   UNL     1       4.702   4.059  16.590  0.00  0.00    +0.000 C 
ENDROOT
BRANCH   1   2
ATOM      2  C   UNL     1       5.712   5.155  16.851  0.00  0.00    +0.000 C 
ATOM      3  C   UNL     1       5.434   6.467  16.691  0.00  0.00    +0.000 C 
ATOM      4  C   UNL     1       6.371   7.551  16.898  0.00  0.00    +0.000 C 
ATOM      5  C   UNL     1       7.413   7.516  17.751  0.00  0.00    +0.000 C 
ATOM      6  S   UNL     1       7.725   6.092  18.724  0.00  0.00    +0.000 S 
ATOM      7  S   UNL     1       7.330   4.647  17.305  0.00  0.00    +0.000 S 
BRANCH   5   8
ATOM      8  C   UNL     1       8.281   8.725  17.982  0.00  0.00    +0.000 C 
BRANCH   8   9
ATOM      9  O   UNL     1       8.981   8.616  19.215  0.00  0.00    +0.000 OA
ATOM     10  H   UNL     1       8.424   8.088  19.814  0.00  0.00    +0.000 HD
ENDBRANCH   8   9
ENDBRANCH   5   8
ENDBRANCH   1   2
BRANCH   1  11
ATOM     11  O   UNL     1       3.396   4.483  16.994  0.00  0.00    +0.000 OA
BRANCH  11  12
ATOM     12  C   UNL     1       2.459   3.412  17.010  0.00  0.00    +0.000 C 
BRANCH  12  18
ATOM     13  C   UNL     1       3.885   2.434  20.348  0.00  0.00    +0.000 C 
ATOM     14  C   UNL     1       2.500   3.079  20.394  0.00  0.00    +0.000 C 
ATOM     15  C   UNL     1       2.263   3.758  21.735  0.00  0.00    +0.000 C 
ATOM     16  O   UNL     1       1.493   2.087  20.195  0.00  0.00    +0.000 OA
ATOM     17  C   UNL     1       1.244   2.079  18.792  0.00  0.00    +0.000 C 
ATOM     18  C   UNL     1       1.647   3.459  18.303  0.00  0.00    +0.000 C 
ATOM     19  O   UNL     1       2.427   4.050  19.348  0.00  0.00    +0.000 OA
ENDBRANCH  12  18
ENDBRANCH  11  12
ENDBRANCH   1  11
TORSDOF 6
ENDMDL
MODEL 7
REMARK VINA RESULT:      -5.6      2.362      5.679
REMARK  Name = 
REMARK  8 active torsions:
REMARK  status: ('A' for Active; 'I' for Inactive)
REMARK    1  A    between atoms: C_1  and  C_2
REMARK    2  A    between atoms: C_2  and  C_3
REMARK    3  A    between atoms: C_6  and  C_7
REMARK    4  A    between atoms: C_7  and  O_8
REMARK    5  A    between atoms: O_8  and  C_9
REMARK    6  A    between atoms: C_9  and  C_10
REMARK    7  A    between atoms: C_13  and  C_14
REMARK    8  A    between atoms: C_14  and  O_15
REMARK                            x       y       z     vdW  Elec       q    Type
REMARK                         _______ _______ _______ _____ _____    ______ ____
ROOT
ATOM      1  C   UNL     1       2.354   6.370  19.800  0.00  0.00    +0.000 C 
ENDROOT
BRANCH   1   2
ATOM      2  C   UNL     1       3.660   6.261  19.045  0.00  0.00    +0.000 C 
ATOM      3  C   UNL     1       4.682   5.476  19.449  0.00  0.00    +0.000 C 
ATOM      4  C   UNL     1       5.961   5.358  18.781  0.00  0.00    +0.000 C 
ATOM      5  C   UNL     1       6.159   5.538  17.461  0.00  0.00    +0.000 C 
ATOM      6  S   UNL     1       4.822   5.941  16.402  0.00  0.00    +0.000 S 
ATOM      7  S   UNL     1       3.841   7.280  17.627  0.00  0.00    +0.000 S 
BRANCH   5   8
ATOM      8  C   UNL     1       7.505   5.297  16.828  0.00  0.00    +0.000 C 
BRANCH   8   9
ATOM      9  O   UNL     1       8.088   4.098  17.319  0.00  0.00    +0.000 OA
ATOM     10  H   UNL     1       9.021   4.295  17.518  0.00  0.00    +0.000 HD
ENDBRANCH   8   9
ENDBRANCH   5   8
ENDBRANCH   1   2
BRANCH   1  11
ATOM     11  O   UNL     1       2.220   5.281  20.720  0.00  0.00    +0.000 OA
BRANCH  11  12
ATOM     12  C   UNL     1       1.055   4.503  20.473  0.00  0.00    +0.000 C 
BRANCH  12  18
ATOM     13  C   UNL     1       2.649   3.275  17.297  0.00  0.00    +0.000 C 
ATOM     14  C   UNL     1       2.605   2.261  18.439  0.00  0.00    +0.000 C 
ATOM     15  C   UNL     1       3.728   1.243  18.302  0.00  0.00    +0.000 C 
ATOM     16  O   UNL     1       1.355   1.573  18.434  0.00  0.00    +0.000 OA
ATOM     17  C   UNL     1       0.510   2.319  19.306  0.00  0.00    +0.000 C 
ATOM     18  C   UNL     1       1.449   3.043  20.255  0.00  0.00    +0.000 C 
ATOM     19  O   UNL     1       2.754   2.971  19.670  0.00  0.00    +0.000 OA
ENDBRANCH  12  18
ENDBRANCH  11  12
ENDBRANCH   1  11
TORSDOF 6
ENDMDL
MODEL 8
REMARK VINA RESULT:      -5.5      4.340      5.322
REMARK  Name = 
REMARK  8 active torsions:
REMARK  status: ('A' for Active; 'I' for Inactive)
REMARK    1  A    between atoms: C_1  and  C_2
REMARK    2  A    between atoms: C_2  and  C_3
REMARK    3  A    between atoms: C_6  and  C_7
REMARK    4  A    between atoms: C_7  and  O_8
REMARK    5  A    between atoms: O_8  and  C_9
REMARK    6  A    between atoms: C_9  and  C_10
REMARK    7  A    between atoms: C_13  and  C_14
REMARK    8  A    between atoms: C_14  and  O_15
REMARK                            x       y       z     vdW  Elec       q    Type
REMARK                         _______ _______ _______ _____ _____    ______ ____
ROOT
ATOM      1  C   UNL     1       2.277   8.436  18.186  0.00  0.00    +0.000 C 
ENDROOT
BRANCH   1   2
ATOM      2  C   UNL     1       1.409   8.900  19.336  0.00  0.00    +0.000 C 
ATOM      3  C   UNL     1       1.357   8.261  20.524  0.00  0.00    +0.000 C 
ATOM      4  C   UNL     1       0.523   8.646  21.644  0.00  0.00    +0.000 C 
ATOM      5  C   UNL     1       0.115   9.902  21.903  0.00  0.00    +0.000 C 
ATOM      6  S   UNL     1       0.588  11.230  20.863  0.00  0.00    +0.000 S 
ATOM      7  S   UNL     1       0.380  10.291  19.037  0.00  0.00    +0.000 S 
BRANCH   5   8
ATOM      8  C   UNL     1      -0.669  10.234  23.147  0.00  0.00    +0.000 C 
BRANCH   8   9
ATOM      9  O   UNL     1      -1.611  11.267  22.891  0.00  0.00    +0.000 OA
ATOM     10  H   UNL     1      -2.081  11.027  22.072  0.00  0.00    +0.000 HD
ENDBRANCH   8   9
ENDBRANCH   5   8
ENDBRANCH   1   2
BRANCH   1  11
ATOM     11  O   UNL     1       3.024   7.276  18.567  0.00  0.00    +0.000 OA
BRANCH  11  12
ATOM     12  C   UNL     1       3.875   6.813  17.525  0.00  0.00    +0.000 C 
BRANCH  12  18
ATOM     13  C   UNL     1       1.530   4.056  18.543  0.00  0.00    +0.000 C 
ATOM     14  C   UNL     1       2.968   3.620  18.265  0.00  0.00    +0.000 C 
ATOM     15  C   UNL     1       3.019   2.160  17.841  0.00  0.00    +0.000 C 
ATOM     16  O   UNL     1       3.764   3.786  19.439  0.00  0.00    +0.000 OA
ATOM     17  C   UNL     1       4.330   5.090  19.328  0.00  0.00    +0.000 C 
ATOM     18  C   UNL     1       4.351   5.395  17.841  0.00  0.00    +0.000 C 
ATOM     19  O   UNL     1       3.487   4.440  17.217  0.00  0.00    +0.000 OA
ENDBRANCH  12  18
ENDBRANCH  11  12
ENDBRANCH   1  11
TORSDOF 6
ENDMDL
MODEL 9
REMARK VINA RESULT:      -5.5      2.395      6.017
REMARK  Name = 
REMARK  8 active torsions:
REMARK  status: ('A' for Active; 'I' for Inactive)
REMARK    1  A    between atoms: C_1  and  C_2
REMARK    2  A    between atoms: C_2  and  C_3
REMARK    3  A    between atoms: C_6  and  C_7
REMARK    4  A    between atoms: C_7  and  O_8
REMARK    5  A    between atoms: O_8  and  C_9
REMARK    6  A    between atoms: C_9  and  C_10
REMARK    7  A    between atoms: C_13  and  C_14
REMARK    8  A    between atoms: C_14  and  O_15
REMARK                            x       y       z     vdW  Elec       q    Type
REMARK                         _______ _______ _______ _____ _____    ______ ____
ROOT
ATOM      1  C   UNL     1       3.155   6.678  19.195  0.00  0.00    +0.000 C 
ENDROOT
BRANCH   1   2
ATOM      2  C   UNL     1       4.255   6.151  18.299  0.00  0.00    +0.000 C 
ATOM      3  C   UNL     1       4.235   6.277  16.955  0.00  0.00    +0.000 C 
ATOM      4  C   UNL     1       5.246   5.766  16.052  0.00  0.00    +0.000 C 
ATOM      5  C   UNL     1       6.543   5.592  16.368  0.00  0.00    +0.000 C 
ATOM      6  S   UNL     1       7.137   5.995  17.967  0.00  0.00    +0.000 S 
ATOM      7  S   UNL     1       5.558   5.272  19.081  0.00  0.00    +0.000 S 
BRANCH   5   8
ATOM      8  C   UNL     1       7.551   5.150  15.339  0.00  0.00    +0.000 C 
BRANCH   8   9
ATOM      9  O   UNL     1       7.004   5.227  14.029  0.00  0.00    +0.000 OA
ATOM     10  H   UNL     1       6.918   4.314  13.702  0.00  0.00    +0.000 HD
ENDBRANCH   8   9
ENDBRANCH   5   8
ENDBRANCH   1   2
BRANCH   1  11
ATOM     11  O   UNL     1       2.116   5.703  19.328  0.00  0.00    +0.000 OA
BRANCH  11  12
ATOM     12  C   UNL     1       2.020   5.190  20.652  0.00  0.00    +0.000 C 
BRANCH  12  18
ATOM     13  C   UNL     1       2.448   3.239  17.467  0.00  0.00    +0.000 C 
ATOM     14  C   UNL     1       2.614   2.432  18.754  0.00  0.00    +0.000 C 
ATOM     15  C   UNL     1       3.510   1.224  18.523  0.00  0.00    +0.000 C 
ATOM     16  O   UNL     1       1.341   1.980  19.214  0.00  0.00    +0.000 OA
ATOM     17  C   UNL     1       0.888   2.985  20.118  0.00  0.00    +0.000 C 
ATOM     18  C   UNL     1       2.147   3.668  20.624  0.00  0.00    +0.000 C 
ATOM     19  O   UNL     1       3.204   3.282  19.739  0.00  0.00    +0.000 OA
ENDBRANCH  12  18
ENDBRANCH  11  12
ENDBRANCH   1  11
TORSDOF 6
ENDMDL
