MODEL 1
REMARK VINA RESULT:      -8.3      0.000      0.000
REMARK  Name = 
REMARK  7 active torsions:
REMARK  status: ('A' for Active; 'I' for Inactive)
REMARK    1  A    between atoms: C_1  and  O_2
REMARK    2  A    between atoms: O_2  and  C_3
REMARK    3  A    between atoms: C_6  and  C_7
REMARK    4  A    between atoms: C_7  and  N_8
REMARK    5  A    between atoms: C_9  and  C_11
REMARK    6  A    between atoms: C_11  and  C_12
REMARK    7  A    between atoms: C_12  and  N_13
REMARK                            x       y       z     vdW  Elec       q    Type
REMARK                         _______ _______ _______ _____ _____    ______ ____
ROOT
ATOM      1  N   UNL     1       8.242   9.588  17.852  0.00  0.00    +0.000 N 
ATOM      2  C   UNL     1       8.982  10.462  18.639  0.00  0.00    +0.000 C 
ATOM      3  O   UNL     1       9.504  10.092  19.688  0.00  0.00    +0.000 OA
ATOM      4  N   UNL     1       9.467  11.532  17.884  0.00  0.00    +0.000 N 
ATOM      5  C   UNL     1      10.944  11.563  17.749  0.00  0.00    +0.000 C 
ATOM      6  C   UNL     1      11.295  12.978  17.339  0.00  0.00    +0.000 C 
ATOM      7  N   UNL     1      10.197  13.651  17.991  0.00  0.00    +0.000 N 
ATOM      8  C   UNL     1       9.111  12.854  18.165  0.00  0.00    +0.000 A 
ATOM      9  N   UNL     1       8.035  13.603  18.335  0.00  0.00    +0.000 NA
ATOM     10  C   UNL     1       8.526  14.925  18.288  0.00  0.00    +0.000 A 
ATOM     11  C   UNL     1       7.892  16.181  18.251  0.00  0.00    +0.000 A 
ATOM     12  C   UNL     1       8.679  17.357  18.197  0.00  0.00    +0.000 A 
ATOM     13  C   UNL     1      10.076  17.306  18.249  0.00  0.00    +0.000 A 
ATOM     14  C   UNL     1      10.737  16.081  18.263  0.00  0.00    +0.000 A 
ATOM     15  C   UNL     1       9.927  14.946  18.219  0.00  0.00    +0.000 A 
ATOM     16  H   UNL     1       7.498  10.044  17.339  0.00  0.00    +0.000 HD
ENDROOT
BRANCH   1  17
ATOM     17  C   UNL     1       8.083   8.167  18.179  0.00  0.00    +0.000 C 
BRANCH  17  18
ATOM     18  C   UNL     1       7.588   7.307  17.002  0.00  0.00    +0.000 C 
BRANCH  18  20
ATOM     19  N   UNL     1       5.940   5.497  16.608  0.00  0.00    +0.000 N 
ATOM     20  C   UNL     1       7.086   5.884  17.258  0.00  0.00    +0.000 C 
ATOM     21  O   UNL     1       7.705   5.124  17.999  0.00  0.00    +0.000 OA
ATOM     22  H   UNL     1       5.390   6.223  16.193  0.00  0.00    +0.000 HD
BRANCH  19  23
ATOM     23  C   UNL     1       5.359   4.173  16.787  0.00  0.00    +0.000 C 
BRANCH  23  27
ATOM     24  C   UNL     1       2.097   3.828  19.644  0.00  0.00    +0.000 A 
ATOM     25  C   UNL     1       3.306   3.192  19.885  0.00  0.00    +0.000 A 
ATOM     26  C   UNL     1       4.388   3.372  19.021  0.00  0.00    +0.000 A 
ATOM     27  C   UNL     1       4.260   4.101  17.833  0.00  0.00    +0.000 A 
ATOM     28  C   UNL     1       3.043   4.773  17.621  0.00  0.00    +0.000 A 
ATOM     29  C   UNL     1       1.973   4.649  18.525  0.00  0.00    +0.000 A 
BRANCH  24  31
ATOM     30  C   UNL     1       1.491   2.716  21.620  0.00  0.00    +0.000 C 
ATOM     31  O   UNL     1       1.095   3.525  20.520  0.00  0.00    +0.000 OA
ENDBRANCH  24  31
ENDBRANCH  23  27
ENDBRANCH  19  23
ENDBRANCH  18  20
ENDBRANCH  17  18
ENDBRANCH   1  17
TORSDOF 6
ENDMDL
MODEL 2
REMARK VINA RESULT:      -8.2      1.303      1.706
REMARK  Name = 
REMARK  7 active torsions:
REMARK  status: ('A' for Active; 'I' for Inactive)
REMARK    1  A    between atoms: C_1  and  O_2
REMARK    2  A    between atoms: O_2  and  C_3
REMARK    3  A    between atoms: C_6  and  C_7
REMARK    4  A    between atoms: C_7  and  N_8
REMARK    5  A    between atoms: C_9  and  C_11
REMARK    6  A    between atoms: C_11  and  C_12
REMARK    7  A    between atoms: C_12  and  N_13
REMARK                            x       y       z     vdW  Elec       q    Type
REMARK                         _______ _______ _______ _____ _____    ______ ____
ROOT
ATOM      1  N   UNL     1       8.904  10.619  17.925  0.00  0.00    +0.000 N 
ATOM      2  C   UNL     1       9.760  11.451  18.637  0.00  0.00    +0.000 C 
ATOM      3  O   UNL     1      10.255  11.095  19.704  0.00  0.00    +0.000 OA
ATOM      4  N   UNL     1      10.355  12.397  17.800  0.00  0.00    +0.000 N 
ATOM      5  C   UNL     1      11.823  12.238  17.646  0.00  0.00    +0.000 C 
ATOM      6  C   UNL     1      12.333  13.567  17.130  0.00  0.00    +0.000 C 
ATOM      7  N   UNL     1      11.339  14.413  17.743  0.00  0.00    +0.000 N 
ATOM      8  C   UNL     1      10.168  13.769  17.988  0.00  0.00    +0.000 A 
ATOM      9  N   UNL     1       9.195  14.654  18.116  0.00  0.00    +0.000 NA
ATOM     10  C   UNL     1       9.840  15.900  17.966  0.00  0.00    +0.000 A 
ATOM     11  C   UNL     1       9.362  17.217  17.845  0.00  0.00    +0.000 A 
ATOM     12  C   UNL     1      10.285  18.282  17.696  0.00  0.00    +0.000 A 
ATOM     13  C   UNL     1      11.666  18.065  17.735  0.00  0.00    +0.000 A 
ATOM     14  C   UNL     1      12.174  16.773  17.831  0.00  0.00    +0.000 A 
ATOM     15  C   UNL     1      11.232  15.745  17.880  0.00  0.00    +0.000 A 
ATOM     16  H   UNL     1       8.210  11.126  17.389  0.00  0.00    +0.000 HD
ENDROOT
BRANCH   1  17
ATOM     17  C   UNL     1       8.581   9.256  18.357  0.00  0.00    +0.000 C 
BRANCH  17  18
ATOM     18  C   UNL     1       7.579   8.531  17.440  0.00  0.00    +0.000 C 
BRANCH  18  20
ATOM     19  N   UNL     1       6.725   6.371  16.575  0.00  0.00    +0.000 N 
ATOM     20  C   UNL     1       7.342   7.028  17.609  0.00  0.00    +0.000 C 
ATOM     21  O   UNL     1       7.716   6.445  18.624  0.00  0.00    +0.000 OA
ATOM     22  H   UNL     1       6.273   6.938  15.885  0.00  0.00    +0.000 HD
BRANCH  19  23
ATOM     23  C   UNL     1       6.433   4.945  16.630  0.00  0.00    +0.000 C 
BRANCH  23  27
ATOM     24  C   UNL     1       2.571   3.956  18.370  0.00  0.00    +0.000 A 
ATOM     25  C   UNL     1       2.821   5.240  17.911  0.00  0.00    +0.000 A 
ATOM     26  C   UNL     1       4.022   5.543  17.268  0.00  0.00    +0.000 A 
ATOM     27  C   UNL     1       5.053   4.602  17.165  0.00  0.00    +0.000 A 
ATOM     28  C   UNL     1       4.772   3.294  17.599  0.00  0.00    +0.000 A 
ATOM     29  C   UNL     1       3.536   2.969  18.186  0.00  0.00    +0.000 A 
BRANCH  24  31
ATOM     30  C   UNL     1       0.758   2.540  18.834  0.00  0.00    +0.000 C 
ATOM     31  O   UNL     1       1.392   3.796  19.040  0.00  0.00    +0.000 OA
ENDBRANCH  24  31
ENDBRANCH  23  27
ENDBRANCH  19  23
ENDBRANCH  18  20
ENDBRANCH  17  18
ENDBRANCH   1  17
TORSDOF 6
ENDMDL
MODEL 3
REMARK VINA RESULT:      -8.0      1.237      1.387
REMARK  Name = 
REMARK  7 active torsions:
REMARK  status: ('A' for Active; 'I' for Inactive)
REMARK    1  A    between atoms: C_1  and  O_2
REMARK    2  A    between atoms: O_2  and  C_3
REMARK    3  A    between atoms: C_6  and  C_7
REMARK    4  A    between atoms: C_7  and  N_8
REMARK    5  A    between atoms: C_9  and  C_11
REMARK    6  A    between atoms: C_11  and  C_12
REMARK    7  A    between atoms: C_12  and  N_13
REMARK                            x       y       z     vdW  Elec       q    Type
REMARK                         _______ _______ _______ _____ _____    ______ ____
ROOT
ATOM      1  N   UNL     1       8.166   9.261  17.879  0.00  0.00    +0.000 N 
ATOM      2  C   UNL     1       8.849  10.164  18.686  0.00  0.00    +0.000 C 
ATOM      3  O   UNL     1       9.283   9.835  19.787  0.00  0.00    +0.000 OA
ATOM      4  N   UNL     1       9.401  11.198  17.928  0.00  0.00    +0.000 N 
ATOM      5  C   UNL     1      10.885  11.216  17.910  0.00  0.00    +0.000 C 
ATOM      6  C   UNL     1      11.279  12.610  17.471  0.00  0.00    +0.000 C 
ATOM      7  N   UNL     1      10.140  13.316  18.005  0.00  0.00    +0.000 N 
ATOM      8  C   UNL     1       9.036  12.533  18.125  0.00  0.00    +0.000 A 
ATOM      9  N   UNL     1       7.957  13.295  18.178  0.00  0.00    +0.000 NA
ATOM     10  C   UNL     1       8.462  14.611  18.116  0.00  0.00    +0.000 A 
ATOM     11  C   UNL     1       7.843  15.867  17.977  0.00  0.00    +0.000 A 
ATOM     12  C   UNL     1       8.643  17.035  17.937  0.00  0.00    +0.000 A 
ATOM     13  C   UNL     1      10.031  16.980  18.101  0.00  0.00    +0.000 A 
ATOM     14  C   UNL     1      10.678  15.753  18.218  0.00  0.00    +0.000 A 
ATOM     15  C   UNL     1       9.864  14.621  18.157  0.00  0.00    +0.000 A 
ATOM     16  H   UNL     1       7.469   9.700  17.291  0.00  0.00    +0.000 HD
ENDROOT
BRANCH   1  17
ATOM     17  C   UNL     1       7.969   7.856  18.252  0.00  0.00    +0.000 C 
BRANCH  17  18
ATOM     18  C   UNL     1       7.452   6.973  17.102  0.00  0.00    +0.000 C 
BRANCH  18  20
ATOM     19  N   UNL     1       5.082   6.997  17.827  0.00  0.00    +0.000 N 
ATOM     20  C   UNL     1       5.958   6.953  16.771  0.00  0.00    +0.000 C 
ATOM     21  O   UNL     1       5.575   6.921  15.604  0.00  0.00    +0.000 OA
ATOM     22  H   UNL     1       5.459   6.815  18.735  0.00  0.00    +0.000 HD
BRANCH  19  23
ATOM     23  C   UNL     1       3.638   6.967  17.634  0.00  0.00    +0.000 C 
BRANCH  23  27
ATOM     24  C   UNL     1       1.805   3.566  19.633  0.00  0.00    +0.000 A 
ATOM     25  C   UNL     1       2.112   4.713  20.348  0.00  0.00    +0.000 A 
ATOM     26  C   UNL     1       2.615   5.843  19.699  0.00  0.00    +0.000 A 
ATOM     27  C   UNL     1       2.930   5.820  18.335  0.00  0.00    +0.000 A 
ATOM     28  C   UNL     1       2.576   4.666  17.615  0.00  0.00    +0.000 A 
ATOM     29  C   UNL     1       2.006   3.551  18.255  0.00  0.00    +0.000 A 
BRANCH  24  31
ATOM     30  C   UNL     1       1.663   2.615  21.774  0.00  0.00    +0.000 C 
ATOM     31  O   UNL     1       1.383   2.507  20.384  0.00  0.00    +0.000 OA
ENDBRANCH  24  31
ENDBRANCH  23  27
ENDBRANCH  19  23
ENDBRANCH  18  20
ENDBRANCH  17  18
ENDBRANCH   1  17
TORSDOF 6
ENDMDL
MODEL 4
REMARK VINA RESULT:      -8.0      2.203     11.150
REMARK  Name = 
REMARK  7 active torsions:
REMARK  status: ('A' for Active; 'I' for Inactive)
REMARK    1  A    between atoms: C_1  and  O_2
REMARK    2  A    between atoms: O_2  and  C_3
REMARK    3  A    between atoms: C_6  and  C_7
REMARK    4  A    between atoms: C_7  and  N_8
REMARK    5  A    between atoms: C_9  and  C_11
REMARK    6  A    between atoms: C_11  and  C_12
REMARK    7  A    between atoms: C_12  and  N_13
REMARK                            x       y       z     vdW  Elec       q    Type
REMARK                         _______ _______ _______ _____ _____    ______ ____
ROOT
ATOM      1  N   UNL     1       7.269   7.079  18.028  0.00  0.00    +0.000 N 
ATOM      2  C   UNL     1       6.047   6.793  17.430  0.00  0.00    +0.000 C 
ATOM      3  O   UNL     1       5.668   7.399  16.430  0.00  0.00    +0.000 OA
ATOM      4  N   UNL     1       5.624   5.501  17.743  0.00  0.00    +0.000 N 
ATOM      5  C   UNL     1       5.577   4.576  16.583  0.00  0.00    +0.000 C 
ATOM      6  C   UNL     1       4.681   3.430  17.000  0.00  0.00    +0.000 C 
ATOM      7  N   UNL     1       3.829   4.163  17.905  0.00  0.00    +0.000 N 
ATOM      8  C   UNL     1       4.431   5.261  18.431  0.00  0.00    +0.000 A 
ATOM      9  N   UNL     1       3.809   5.616  19.542  0.00  0.00    +0.000 NA
ATOM     10  C   UNL     1       2.756   4.685  19.660  0.00  0.00    +0.000 A 
ATOM     11  C   UNL     1       1.828   4.414  20.682  0.00  0.00    +0.000 A 
ATOM     12  C   UNL     1       0.874   3.383  20.500  0.00  0.00    +0.000 A 
ATOM     13  C   UNL     1       0.785   2.670  19.301  0.00  0.00    +0.000 A 
ATOM     14  C   UNL     1       1.701   2.896  18.277  0.00  0.00    +0.000 A 
ATOM     15  C   UNL     1       2.683   3.853  18.533  0.00  0.00    +0.000 A 
ATOM     16  H   UNL     1       7.270   6.923  19.029  0.00  0.00    +0.000 HD
ENDROOT
BRANCH   1  17
ATOM     17  C   UNL     1       8.207   8.066  17.484  0.00  0.00    +0.000 C 
BRANCH  17  18
ATOM     18  C   UNL     1       7.997   9.492  18.026  0.00  0.00    +0.000 C 
BRANCH  18  20
ATOM     19  N   UNL     1       9.952  11.005  17.845  0.00  0.00    +0.000 N 
ATOM     20  C   UNL     1       9.167  10.240  18.670  0.00  0.00    +0.000 C 
ATOM     21  O   UNL     1       9.365  10.168  19.881  0.00  0.00    +0.000 OA
ATOM     22  H   UNL     1       9.856  10.852  16.861  0.00  0.00    +0.000 HD
BRANCH  19  23
ATOM     23  C   UNL     1      11.102  11.748  18.344  0.00  0.00    +0.000 C 
BRANCH  23  27
ATOM     24  C   UNL     1       9.952  15.637  19.916  0.00  0.00    +0.000 A 
ATOM     25  C   UNL     1      10.668  14.750  20.705  0.00  0.00    +0.000 A 
ATOM     26  C   UNL     1      11.122  13.538  20.179  0.00  0.00    +0.000 A 
ATOM     27  C   UNL     1      10.776  13.129  18.886  0.00  0.00    +0.000 A 
ATOM     28  C   UNL     1      10.083  14.054  18.085  0.00  0.00    +0.000 A 
ATOM     29  C   UNL     1       9.685  15.304  18.591  0.00  0.00    +0.000 A 
BRANCH  24  31
ATOM     30  C   UNL     1       8.829  16.511  21.783  0.00  0.00    +0.000 C 
ATOM     31  O   UNL     1       9.506  16.757  20.557  0.00  0.00    +0.000 OA
ENDBRANCH  24  31
ENDBRANCH  23  27
ENDBRANCH  19  23
ENDBRANCH  18  20
ENDBRANCH  17  18
ENDBRANCH   1  17
TORSDOF 6
ENDMDL
MODEL 5
REMARK VINA RESULT:      -7.8      5.247      8.638
REMARK  Name = 
REMARK  7 active torsions:
REMARK  status: ('A' for Active; 'I' for Inactive)
REMARK    1  A    between atoms: C_1  and  O_2
REMARK    2  A    between atoms: O_2  and  C_3
REMARK    3  A    between atoms: C_6  and  C_7
REMARK    4  A    between atoms: C_7  and  N_8
REMARK    5  A    between atoms: C_9  and  C_11
REMARK    6  A    between atoms: C_11  and  C_12
REMARK    7  A    between atoms: C_12  and  N_13
REMARK                            x       y       z     vdW  Elec       q    Type
REMARK                         _______ _______ _______ _____ _____    ______ ____
ROOT
ATOM      1  N   UNL     1       0.778   4.212  20.369  0.00  0.00    +0.000 N 
ATOM      2  C   UNL     1       1.586   5.262  20.789  0.00  0.00    +0.000 C 
ATOM      3  O   UNL     1       2.713   5.062  21.237  0.00  0.00    +0.000 OA
ATOM      4  N   UNL     1       1.212   6.460  20.178  0.00  0.00    +0.000 N 
ATOM      5  C   UNL     1       2.229   7.016  19.250  0.00  0.00    +0.000 C 
ATOM      6  C   UNL     1       1.875   8.477  19.071  0.00  0.00    +0.000 C 
ATOM      7  N   UNL     1       1.276   8.696  20.365  0.00  0.00    +0.000 N 
ATOM      8  C   UNL     1       0.775   7.561  20.920  0.00  0.00    +0.000 A 
ATOM      9  N   UNL     1      -0.120   7.877  21.839  0.00  0.00    +0.000 NA
ATOM     10  C   UNL     1      -0.123   9.288  21.847  0.00  0.00    +0.000 A 
ATOM     11  C   UNL     1      -0.946  10.240  22.477  0.00  0.00    +0.000 A 
ATOM     12  C   UNL     1      -0.693  11.619  22.277  0.00  0.00    +0.000 A 
ATOM     13  C   UNL     1       0.397  12.062  21.522  0.00  0.00    +0.000 A 
ATOM     14  C   UNL     1       1.218  11.149  20.866  0.00  0.00    +0.000 A 
ATOM     15  C   UNL     1       0.878   9.804  21.011  0.00  0.00    +0.000 A 
ATOM     16  H   UNL     1      -0.210   4.395  20.491  0.00  0.00    +0.000 HD
ENDROOT
BRANCH   1  17
ATOM     17  C   UNL     1       1.227   2.816  20.374  0.00  0.00    +0.000 C 
BRANCH  17  18
ATOM     18  C   UNL     1       1.550   2.259  18.975  0.00  0.00    +0.000 C 
BRANCH  18  20
ATOM     19  N   UNL     1       3.455   3.058  17.604  0.00  0.00    +0.000 N 
ATOM     20  C   UNL     1       2.121   3.188  17.901  0.00  0.00    +0.000 C 
ATOM     21  O   UNL     1       1.398   3.994  17.321  0.00  0.00    +0.000 OA
ATOM     22  H   UNL     1       4.012   2.535  18.250  0.00  0.00    +0.000 HD
BRANCH  19  23
ATOM     23  C   UNL     1       4.111   3.898  16.611  0.00  0.00    +0.000 C 
BRANCH  23  27
ATOM     24  C   UNL     1       7.203   6.587  18.071  0.00  0.00    +0.000 A 
ATOM     25  C   UNL     1       6.098   7.092  17.403  0.00  0.00    +0.000 A 
ATOM     26  C   UNL     1       5.057   6.248  17.013  0.00  0.00    +0.000 A 
ATOM     27  C   UNL     1       5.141   4.860  17.178  0.00  0.00    +0.000 A 
ATOM     28  C   UNL     1       6.247   4.366  17.891  0.00  0.00    +0.000 A 
ATOM     29  C   UNL     1       7.266   5.223  18.346  0.00  0.00    +0.000 A 
BRANCH  24  31
ATOM     30  C   UNL     1       8.009   8.763  17.724  0.00  0.00    +0.000 C 
ATOM     31  O   UNL     1       8.185   7.495  18.343  0.00  0.00    +0.000 OA
ENDBRANCH  24  31
ENDBRANCH  23  27
ENDBRANCH  19  23
ENDBRANCH  18  20
ENDBRANCH  17  18
ENDBRANCH   1  17
TORSDOF 6
ENDMDL
MODEL 6
REMARK VINA RESULT:      -7.8      2.627      3.154
REMARK  Name = 
REMARK  7 active torsions:
REMARK  status: ('A' for Active; 'I' for Inactive)
REMARK    1  A    between atoms: C_1  and  O_2
REMARK    2  A    between atoms: O_2  and  C_3
REMARK    3  A    between atoms: C_6  and  C_7
REMARK    4  A    between atoms: C_7  and  N_8
REMARK    5  A    between atoms: C_9  and  C_11
REMARK    6  A    between atoms: C_11  and  C_12
REMARK    7  A    between atoms: C_12  and  N_13
REMARK                            x       y       z     vdW  Elec       q    Type
REMARK                         _______ _______ _______ _____ _____    ______ ____
ROOT
ATOM      1  N   UNL     1       8.109   9.471  17.769  0.00  0.00    +0.000 N 
ATOM      2  C   UNL     1       8.850  10.331  18.571  0.00  0.00    +0.000 C 
ATOM      3  O   UNL     1       9.323   9.957  19.642  0.00  0.00    +0.000 OA
ATOM      4  N   UNL     1       9.397  11.373  17.820  0.00  0.00    +0.000 N 
ATOM      5  C   UNL     1      10.879  11.354  17.737  0.00  0.00    +0.000 C 
ATOM      6  C   UNL     1      11.291  12.750  17.322  0.00  0.00    +0.000 C 
ATOM      7  N   UNL     1      10.195  13.468  17.927  0.00  0.00    +0.000 N 
ATOM      8  C   UNL     1       9.077  12.710  18.072  0.00  0.00    +0.000 A 
ATOM      9  N   UNL     1       8.022  13.497  18.196  0.00  0.00    +0.000 NA
ATOM     10  C   UNL     1       8.559  14.802  18.150  0.00  0.00    +0.000 A 
ATOM     11  C   UNL     1       7.969  16.077  18.076  0.00  0.00    +0.000 A 
ATOM     12  C   UNL     1       8.798  17.225  18.035  0.00  0.00    +0.000 A 
ATOM     13  C   UNL     1      10.189  17.129  18.136  0.00  0.00    +0.000 A 
ATOM     14  C   UNL     1      10.807  15.882  18.188  0.00  0.00    +0.000 A 
ATOM     15  C   UNL     1       9.961  14.775  18.130  0.00  0.00    +0.000 A 
ATOM     16  H   UNL     1       7.399   9.945  17.225  0.00  0.00    +0.000 HD
ENDROOT
BRANCH   1  17
ATOM     17  C   UNL     1       7.890   8.061  18.108  0.00  0.00    +0.000 C 
BRANCH  17  18
ATOM     18  C   UNL     1       7.499   7.183  16.905  0.00  0.00    +0.000 C 
BRANCH  18  20
ATOM     19  N   UNL     1       5.277   6.628  17.853  0.00  0.00    +0.000 N 
ATOM     20  C   UNL     1       6.042   6.752  16.720  0.00  0.00    +0.000 C 
ATOM     21  O   UNL     1       5.586   6.552  15.597  0.00  0.00    +0.000 OA
ATOM     22  H   UNL     1       5.763   6.606  18.727  0.00  0.00    +0.000 HD
BRANCH  19  23
ATOM     23  C   UNL     1       3.883   6.208  17.800  0.00  0.00    +0.000 C 
BRANCH  23  27
ATOM     24  C   UNL     1       1.234   9.140  19.620  0.00  0.00    +0.000 A 
ATOM     25  C   UNL     1       1.685   9.318  18.321  0.00  0.00    +0.000 A 
ATOM     26  C   UNL     1       2.460   8.339  17.697  0.00  0.00    +0.000 A 
ATOM     27  C   UNL     1       2.899   7.205  18.390  0.00  0.00    +0.000 A 
ATOM     28  C   UNL     1       2.403   7.017  19.692  0.00  0.00    +0.000 A 
ATOM     29  C   UNL     1       1.566   7.970  20.299  0.00  0.00    +0.000 A 
BRANCH  24  31
ATOM     30  C   UNL     1       1.053  11.473  19.798  0.00  0.00    +0.000 C 
ATOM     31  O   UNL     1       0.542  10.192  20.146  0.00  0.00    +0.000 OA
ENDBRANCH  24  31
ENDBRANCH  23  27
ENDBRANCH  19  23
ENDBRANCH  18  20
ENDBRANCH  17  18
ENDBRANCH   1  17
TORSDOF 6
ENDMDL
MODEL 7
REMARK VINA RESULT:      -7.8      2.915     10.958
REMARK  Name = 
REMARK  7 active torsions:
REMARK  status: ('A' for Active; 'I' for Inactive)
REMARK    1  A    between atoms: C_1  and  O_2
REMARK    2  A    between atoms: O_2  and  C_3
REMARK    3  A    between atoms: C_6  and  C_7
REMARK    4  A    between atoms: C_7  and  N_8
REMARK    5  A    between atoms: C_9  and  C_11
REMARK    6  A    between atoms: C_11  and  C_12
REMARK    7  A    between atoms: C_12  and  N_13
REMARK                            x       y       z     vdW  Elec       q    Type
REMARK                         _______ _______ _______ _____ _____    ______ ____
ROOT
ATOM      1  N   UNL     1       7.242   7.230  18.034  0.00  0.00    +0.000 N 
ATOM      2  C   UNL     1       6.102   6.831  17.348  0.00  0.00    +0.000 C 
ATOM      3  O   UNL     1       5.812   7.313  16.255  0.00  0.00    +0.000 OA
ATOM      4  N   UNL     1       5.690   5.560  17.752  0.00  0.00    +0.000 N 
ATOM      5  C   UNL     1       5.798   4.520  16.700  0.00  0.00    +0.000 C 
ATOM      6  C   UNL     1       4.899   3.385  17.143  0.00  0.00    +0.000 C 
ATOM      7  N   UNL     1       3.933   4.169  17.871  0.00  0.00    +0.000 N 
ATOM      8  C   UNL     1       4.438   5.342  18.335  0.00  0.00    +0.000 A 
ATOM      9  N   UNL     1       3.690   5.782  19.331  0.00  0.00    +0.000 NA
ATOM     10  C   UNL     1       2.661   4.823  19.440  0.00  0.00    +0.000 A 
ATOM     11  C   UNL     1       1.638   4.619  20.384  0.00  0.00    +0.000 A 
ATOM     12  C   UNL     1       0.743   3.534  20.217  0.00  0.00    +0.000 A 
ATOM     13  C   UNL     1       0.807   2.697  19.098  0.00  0.00    +0.000 A 
ATOM     14  C   UNL     1       1.819   2.856  18.156  0.00  0.00    +0.000 A 
ATOM     15  C   UNL     1       2.736   3.876  18.407  0.00  0.00    +0.000 A 
ATOM     16  H   UNL     1       7.141   7.179  19.040  0.00  0.00    +0.000 HD
ENDROOT
BRANCH   1  17
ATOM     17  C   UNL     1       8.201   8.196  17.486  0.00  0.00    +0.000 C 
BRANCH  17  18
ATOM     18  C   UNL     1       7.944   9.648  17.926  0.00  0.00    +0.000 C 
BRANCH  18  20
ATOM     19  N   UNL     1       9.312  10.502  19.809  0.00  0.00    +0.000 N 
ATOM     20  C   UNL     1       9.102  10.500  18.453  0.00  0.00    +0.000 C 
ATOM     21  O   UNL     1       9.818  11.131  17.679  0.00  0.00    +0.000 OA
ATOM     22  H   UNL     1       8.577  10.138  20.381  0.00  0.00    +0.000 HD
BRANCH  19  23
ATOM     23  C   UNL     1      10.374  11.287  20.425  0.00  0.00    +0.000 C 
BRANCH  23  27
ATOM     24  C   UNL     1       9.118  14.650  22.882  0.00  0.00    +0.000 A 
ATOM     25  C   UNL     1      10.015  14.842  21.842  0.00  0.00    +0.000 A 
ATOM     26  C   UNL     1      10.353  13.788  20.991  0.00  0.00    +0.000 A 
ATOM     27  C   UNL     1       9.891  12.487  21.222  0.00  0.00    +0.000 A 
ATOM     28  C   UNL     1       8.952  12.314  22.254  0.00  0.00    +0.000 A 
ATOM     29  C   UNL     1       8.558  13.389  23.071  0.00  0.00    +0.000 A 
BRANCH  24  31
ATOM     30  C   UNL     1       8.998  16.990  23.021  0.00  0.00    +0.000 C 
ATOM     31  O   UNL     1       8.916  15.735  23.685  0.00  0.00    +0.000 OA
ENDBRANCH  24  31
ENDBRANCH  23  27
ENDBRANCH  19  23
ENDBRANCH  18  20
ENDBRANCH  17  18
ENDBRANCH   1  17
TORSDOF 6
ENDMDL
MODEL 8
REMARK VINA RESULT:      -7.7      5.435      7.968
REMARK  Name = 
REMARK  7 active torsions:
REMARK  status: ('A' for Active; 'I' for Inactive)
REMARK    1  A    between atoms: C_1  and  O_2
REMARK    2  A    between atoms: O_2  and  C_3
REMARK    3  A    between atoms: C_6  and  C_7
REMARK    4  A    between atoms: C_7  and  N_8
REMARK    5  A    between atoms: C_9  and  C_11
REMARK    6  A    between atoms: C_11  and  C_12
REMARK    7  A    between atoms: C_12  and  N_13
REMARK                            x       y       z     vdW  Elec       q    Type
REMARK                         _______ _______ _______ _____ _____    ______ ____
ROOT
ATOM      1  N   UNL     1       1.192   4.576  20.680  0.00  0.00    +0.000 N 
ATOM      2  C   UNL     1       2.138   5.566  20.443  0.00  0.00    +0.000 C 
ATOM      3  O   UNL     1       3.335   5.366  20.642  0.00  0.00    +0.000 OA
ATOM      4  N   UNL     1       1.666   6.505  19.525  0.00  0.00    +0.000 N 
ATOM      5  C   UNL     1       2.399   6.520  18.235  0.00  0.00    +0.000 C 
ATOM      6  C   UNL     1       2.084   7.854  17.592  0.00  0.00    +0.000 C 
ATOM      7  N   UNL     1       1.894   8.617  18.802  0.00  0.00    +0.000 N 
ATOM      8  C   UNL     1       1.517   7.853  19.860  0.00  0.00    +0.000 A 
ATOM      9  N   UNL     1       0.940   8.617  20.773  0.00  0.00    +0.000 NA
ATOM     10  C   UNL     1       1.011   9.917  20.228  0.00  0.00    +0.000 A 
ATOM     11  C   UNL     1       0.454  11.149  20.617  0.00  0.00    +0.000 A 
ATOM     12  C   UNL     1       0.708  12.304  19.839  0.00  0.00    +0.000 A 
ATOM     13  C   UNL     1       1.557  12.267  18.728  0.00  0.00    +0.000 A 
ATOM     14  C   UNL     1       2.107  11.062  18.301  0.00  0.00    +0.000 A 
ATOM     15  C   UNL     1       1.756   9.931  19.039  0.00  0.00    +0.000 A 
ATOM     16  H   UNL     1       0.291   4.944  20.960  0.00  0.00    +0.000 HD
ENDROOT
BRANCH   1  17
ATOM     17  C   UNL     1       1.551   3.224  21.120  0.00  0.00    +0.000 C 
BRANCH  17  18
ATOM     18  C   UNL     1       1.719   2.217  19.968  0.00  0.00    +0.000 C 
BRANCH  18  20
ATOM     19  N   UNL     1       3.246   2.633  18.060  0.00  0.00    +0.000 N 
ATOM     20  C   UNL     1       1.965   2.724  18.545  0.00  0.00    +0.000 C 
ATOM     21  O   UNL     1       1.040   3.168  17.869  0.00  0.00    +0.000 OA
ATOM     22  H   UNL     1       3.970   2.456  18.728  0.00  0.00    +0.000 HD
BRANCH  19  23
ATOM     23  C   UNL     1       3.602   3.098  16.726  0.00  0.00    +0.000 C 
BRANCH  23  27
ATOM     24  C   UNL     1       6.909   5.916  16.516  0.00  0.00    +0.000 A 
ATOM     25  C   UNL     1       6.381   5.550  17.745  0.00  0.00    +0.000 A 
ATOM     26  C   UNL     1       5.383   4.578  17.828  0.00  0.00    +0.000 A 
ATOM     27  C   UNL     1       4.804   4.025  16.680  0.00  0.00    +0.000 A 
ATOM     28  C   UNL     1       5.375   4.375  15.443  0.00  0.00    +0.000 A 
ATOM     29  C   UNL     1       6.428   5.304  15.361  0.00  0.00    +0.000 A 
BRANCH  24  31
ATOM     30  C   UNL     1       7.682   7.824  17.644  0.00  0.00    +0.000 C 
ATOM     31  O   UNL     1       7.832   6.922  16.554  0.00  0.00    +0.000 OA
ENDBRANCH  24  31
ENDBRANCH  23  27
ENDBRANCH  19  23
ENDBRANCH  18  20
ENDBRANCH  17  18
ENDBRANCH   1  17
TORSDOF 6
ENDMDL
MODEL 9
REMARK VINA RESULT:      -7.6      2.341     11.134
REMARK  Name = 
REMARK  7 active torsions:
REMARK  status: ('A' for Active; 'I' for Inactive)
REMARK    1  A    between atoms: C_1  and  O_2
REMARK    2  A    between atoms: O_2  and  C_3
REMARK    3  A    between atoms: C_6  and  C_7
REMARK    4  A    between atoms: C_7  and  N_8
REMARK    5  A    between atoms: C_9  and  C_11
REMARK    6  A    between atoms: C_11  and  C_12
REMARK    7  A    between atoms: C_12  and  N_13
REMARK                            x       y       z     vdW  Elec       q    Type
REMARK                         _______ _______ _______ _____ _____    ______ ____
ROOT
ATOM      1  N   UNL     1       7.247   7.050  18.013  0.00  0.00    +0.000 N 
ATOM      2  C   UNL     1       6.051   6.720  17.385  0.00  0.00    +0.000 C 
ATOM      3  O   UNL     1       5.707   7.266  16.339  0.00  0.00    +0.000 OA
ATOM      4  N   UNL     1       5.625   5.443  17.753  0.00  0.00    +0.000 N 
ATOM      5  C   UNL     1       5.630   4.455  16.645  0.00  0.00    +0.000 C 
ATOM      6  C   UNL     1       4.726   3.325  17.090  0.00  0.00    +0.000 C 
ATOM      7  N   UNL     1       3.835   4.100  17.920  0.00  0.00    +0.000 N 
ATOM      8  C   UNL     1       4.408   5.231  18.407  0.00  0.00    +0.000 A 
ATOM      9  N   UNL     1       3.741   5.642  19.471  0.00  0.00    +0.000 NA
ATOM     10  C   UNL     1       2.690   4.709  19.600  0.00  0.00    +0.000 A 
ATOM     11  C   UNL     1       1.725   4.486  20.599  0.00  0.00    +0.000 A 
ATOM     12  C   UNL     1       0.786   3.438  20.439  0.00  0.00    +0.000 A 
ATOM     13  C   UNL     1       0.749   2.659  19.278  0.00  0.00    +0.000 A 
ATOM     14  C   UNL     1       1.703   2.836  18.280  0.00  0.00    +0.000 A 
ATOM     15  C   UNL     1       2.667   3.815  18.519  0.00  0.00    +0.000 A 
ATOM     16  H   UNL     1       7.210   6.949  19.020  0.00  0.00    +0.000 HD
ENDROOT
BRANCH   1  17
ATOM     17  C   UNL     1       8.199   8.014  17.451  0.00  0.00    +0.000 C 
BRANCH  17  18
ATOM     18  C   UNL     1       7.909   9.475  17.838  0.00  0.00    +0.000 C 
BRANCH  18  20
ATOM     19  N   UNL     1       9.397  11.455  17.939  0.00  0.00    +0.000 N 
ATOM     20  C   UNL     1       8.982  10.300  18.553  0.00  0.00    +0.000 C 
ATOM     21  O   UNL     1       9.427   9.941  19.641  0.00  0.00    +0.000 OA
ATOM     22  H   UNL     1       9.146  11.571  16.978  0.00  0.00    +0.000 HD
BRANCH  19  23
ATOM     23  C   UNL     1      10.424  12.311  18.518  0.00  0.00    +0.000 C 
BRANCH  23  27
ATOM     24  C   UNL     1       9.081  15.439  21.227  0.00  0.00    +0.000 A 
ATOM     25  C   UNL     1       8.279  15.040  20.169  0.00  0.00    +0.000 A 
ATOM     26  C   UNL     1       8.659  13.975  19.350  0.00  0.00    +0.000 A 
ATOM     27  C   UNL     1       9.904  13.351  19.495  0.00  0.00    +0.000 A 
ATOM     28  C   UNL     1      10.690  13.738  20.595  0.00  0.00    +0.000 A 
ATOM     29  C   UNL     1      10.278  14.765  21.463  0.00  0.00    +0.000 A 
BRANCH  24  31
ATOM     30  C   UNL     1       9.587  17.583  22.036  0.00  0.00    +0.000 C 
ATOM     31  O   UNL     1       8.638  16.531  21.915  0.00  0.00    +0.000 OA
ENDBRANCH  24  31
ENDBRANCH  23  27
ENDBRANCH  19  23
ENDBRANCH  18  20
ENDBRANCH  17  18
ENDBRANCH   1  17
TORSDOF 6
ENDMDL
