MODEL 1
REMARK VINA RESULT:      -6.6      0.000      0.000
REMARK  Name = 
REMARK  6 active torsions:
REMARK  status: ('A' for Active; 'I' for Inactive)
REMARK    1  A    between atoms: C_1  and  C_2
REMARK    2  A    between atoms: C_2  and  O_3
REMARK    3  A    between atoms: O_3  and  C_4
REMARK    4  A    between atoms: C_9  and  C_10
REMARK    5  A    between atoms: C_13  and  C_14
REMARK    6  A    between atoms: C_14  and  O_16
REMARK                            x       y       z     vdW  Elec       q    Type
REMARK                         _______ _______ _______ _____ _____    ______ ____
ROOT
ATOM      1  C   UNL     1       2.673   5.009  19.761  0.00  0.00    +0.000 A 
ATOM      2  C   UNL     1       1.840   4.710  20.856  0.00  0.00    +0.000 A 
ATOM      3  C   UNL     1       1.275   3.445  21.011  0.00  0.00    +0.000 A 
ATOM      4  C   UNL     1       1.535   2.456  20.072  0.00  0.00    +0.000 A 
ATOM      5  C   UNL     1       2.389   2.728  18.999  0.00  0.00    +0.000 A 
ATOM      6  C   UNL     1       2.995   3.992  18.839  0.00  0.00    +0.000 A 
ENDROOT
BRANCH   6   7
ATOM      7  C   UNL     1       3.954   4.158  17.751  0.00  0.00    +0.000 A 
ATOM      8  C   UNL     1       3.907   3.964  16.385  0.00  0.00    +0.000 A 
ATOM      9  C   UNL     1       5.232   4.102  15.910  0.00  0.00    +0.000 A 
ATOM     10  C   UNL     1       5.996   4.497  16.986  0.00  0.00    +0.000 A 
ATOM     11  O   UNL     1       5.216   4.544  18.113  0.00  0.00    +0.000 OA
BRANCH  10  12
ATOM     12  C   UNL     1       7.395   4.828  17.091  0.00  0.00    +0.000 C 
ATOM     13  O   UNL     1       8.248   4.170  17.677  0.00  0.00    +0.000 OA
BRANCH  12  14
ATOM     14  O   UNL     1       7.680   5.982  16.436  0.00  0.00    +0.000 OA
ATOM     15  H   UNL     1       8.641   6.160  16.483  0.00  0.00    +0.000 HD
ENDBRANCH  12  14
ENDBRANCH  10  12
ENDBRANCH   6   7
BRANCH   1  16
ATOM     16  O   UNL     1       3.115   6.306  19.780  0.00  0.00    +0.000 OA
BRANCH  16  18
ATOM     17  C   UNL     1       2.978   7.705  17.816  0.00  0.00    +0.000 C 
ATOM     18  C   UNL     1       2.329   7.302  19.124  0.00  0.00    +0.000 C 
ENDBRANCH  16  18
ENDBRANCH   1  16
TORSDOF 5
ENDMDL
MODEL 2
REMARK VINA RESULT:      -6.6      1.344      1.667
REMARK  Name = 
REMARK  6 active torsions:
REMARK  status: ('A' for Active; 'I' for Inactive)
REMARK    1  A    between atoms: C_1  and  C_2
REMARK    2  A    between atoms: C_2  and  O_3
REMARK    3  A    between atoms: O_3  and  C_4
REMARK    4  A    between atoms: C_9  and  C_10
REMARK    5  A    between atoms: C_13  and  C_14
REMARK    6  A    between atoms: C_14  and  O_16
REMARK                            x       y       z     vdW  Elec       q    Type
REMARK                         _______ _______ _______ _____ _____    ______ ____
ROOT
ATOM      1  C   UNL     1       2.075   4.911  19.807  0.00  0.00    +0.000 A 
ATOM      2  C   UNL     1       1.009   4.132  20.295  0.00  0.00    +0.000 A 
ATOM      3  C   UNL     1       0.610   2.964  19.647  0.00  0.00    +0.000 A 
ATOM      4  C   UNL     1       1.271   2.555  18.498  0.00  0.00    +0.000 A 
ATOM      5  C   UNL     1       2.355   3.299  18.021  0.00  0.00    +0.000 A 
ATOM      6  C   UNL     1       2.795   4.467  18.678  0.00  0.00    +0.000 A 
ENDROOT
BRANCH   6   7
ATOM      7  C   UNL     1       3.997   5.126  18.174  0.00  0.00    +0.000 A 
ATOM      8  C   UNL     1       4.232   6.161  17.291  0.00  0.00    +0.000 A 
ATOM      9  C   UNL     1       5.627   6.186  17.059  0.00  0.00    +0.000 A 
ATOM     10  C   UNL     1       6.183   5.254  17.906  0.00  0.00    +0.000 A 
ATOM     11  O   UNL     1       5.191   4.609  18.599  0.00  0.00    +0.000 OA
BRANCH  10  12
ATOM     12  C   UNL     1       7.555   4.876  18.139  0.00  0.00    +0.000 C 
ATOM     13  O   UNL     1       8.215   5.144  19.138  0.00  0.00    +0.000 OA
BRANCH  12  14
ATOM     14  O   UNL     1       8.053   4.155  17.103  0.00  0.00    +0.000 OA
ATOM     15  H   UNL     1       9.030   4.147  17.145  0.00  0.00    +0.000 HD
ENDBRANCH  12  14
ENDBRANCH  10  12
ENDBRANCH   6   7
BRANCH   1  16
ATOM     16  O   UNL     1       2.303   6.024  20.573  0.00  0.00    +0.000 OA
BRANCH  16  18
ATOM     17  C   UNL     1       1.209   8.116  21.087  0.00  0.00    +0.000 C 
ATOM     18  C   UNL     1       1.943   7.301  20.042  0.00  0.00    +0.000 C 
ENDBRANCH  16  18
ENDBRANCH   1  16
TORSDOF 5
ENDMDL
MODEL 3
REMARK VINA RESULT:      -6.6      1.587      2.076
REMARK  Name = 
REMARK  6 active torsions:
REMARK  status: ('A' for Active; 'I' for Inactive)
REMARK    1  A    between atoms: C_1  and  C_2
REMARK    2  A    between atoms: C_2  and  O_3
REMARK    3  A    between atoms: O_3  and  C_4
REMARK    4  A    between atoms: C_9  and  C_10
REMARK    5  A    between atoms: C_13  and  C_14
REMARK    6  A    between atoms: C_14  and  O_16
REMARK                            x       y       z     vdW  Elec       q    Type
REMARK                         _______ _______ _______ _____ _____    ______ ____
ROOT
ATOM      1  C   UNL     1       2.669   4.597  18.306  0.00  0.00    +0.000 A 
ATOM      2  C   UNL     1       1.473   4.183  18.921  0.00  0.00    +0.000 A 
ATOM      3  C   UNL     1       1.303   2.873  19.368  0.00  0.00    +0.000 A 
ATOM      4  C   UNL     1       2.331   1.954  19.208  0.00  0.00    +0.000 A 
ATOM      5  C   UNL     1       3.539   2.360  18.633  0.00  0.00    +0.000 A 
ATOM      6  C   UNL     1       3.742   3.687  18.200  0.00  0.00    +0.000 A 
ENDROOT
BRANCH   6   7
ATOM      7  C   UNL     1       5.067   4.051  17.706  0.00  0.00    +0.000 A 
ATOM      8  C   UNL     1       6.220   4.528  18.298  0.00  0.00    +0.000 A 
ATOM      9  C   UNL     1       7.096   4.885  17.246  0.00  0.00    +0.000 A 
ATOM     10  C   UNL     1       6.488   4.490  16.076  0.00  0.00    +0.000 A 
ATOM     11  O   UNL     1       5.250   3.968  16.352  0.00  0.00    +0.000 OA
BRANCH  10  12
ATOM     12  C   UNL     1       6.927   4.555  14.704  0.00  0.00    +0.000 C 
ATOM     13  O   UNL     1       7.679   5.399  14.230  0.00  0.00    +0.000 OA
BRANCH  12  14
ATOM     14  O   UNL     1       6.410   3.537  13.971  0.00  0.00    +0.000 OA
ATOM     15  H   UNL     1       7.127   3.081  13.487  0.00  0.00    +0.000 HD
ENDBRANCH  12  14
ENDBRANCH  10  12
ENDBRANCH   6   7
BRANCH   1  16
ATOM     16  O   UNL     1       2.634   5.912  17.924  0.00  0.00    +0.000 OA
BRANCH  16  18
ATOM     17  C   UNL     1       2.220   8.259  18.322  0.00  0.00    +0.000 C 
ATOM     18  C   UNL     1       2.538   6.913  18.940  0.00  0.00    +0.000 C 
ENDBRANCH  16  18
ENDBRANCH   1  16
TORSDOF 5
ENDMDL
MODEL 4
REMARK VINA RESULT:      -6.6      1.190      3.156
REMARK  Name = 
REMARK  6 active torsions:
REMARK  status: ('A' for Active; 'I' for Inactive)
REMARK    1  A    between atoms: C_1  and  C_2
REMARK    2  A    between atoms: C_2  and  O_3
REMARK    3  A    between atoms: O_3  and  C_4
REMARK    4  A    between atoms: C_9  and  C_10
REMARK    5  A    between atoms: C_13  and  C_14
REMARK    6  A    between atoms: C_14  and  O_16
REMARK                            x       y       z     vdW  Elec       q    Type
REMARK                         _______ _______ _______ _____ _____    ______ ____
ROOT
ATOM      1  C   UNL     1       2.605   6.280  19.718  0.00  0.00    +0.000 A 
ATOM      2  C   UNL     1       1.776   7.248  20.312  0.00  0.00    +0.000 A 
ATOM      3  C   UNL     1       1.529   8.471  19.690  0.00  0.00    +0.000 A 
ATOM      4  C   UNL     1       2.110   8.745  18.460  0.00  0.00    +0.000 A 
ATOM      5  C   UNL     1       2.907   7.779  17.840  0.00  0.00    +0.000 A 
ATOM      6  C   UNL     1       3.145   6.523  18.438  0.00  0.00    +0.000 A 
ENDROOT
BRANCH   6   7
ATOM      7  C   UNL     1       3.903   5.534  17.676  0.00  0.00    +0.000 A 
ATOM      8  C   UNL     1       3.612   4.290  17.152  0.00  0.00    +0.000 A 
ATOM      9  C   UNL     1       4.837   3.744  16.703  0.00  0.00    +0.000 A 
ATOM     10  C   UNL     1       5.787   4.730  16.857  0.00  0.00    +0.000 A 
ATOM     11  O   UNL     1       5.218   5.832  17.442  0.00  0.00    +0.000 OA
BRANCH  10  12
ATOM     12  C   UNL     1       7.190   4.760  16.529  0.00  0.00    +0.000 C 
ATOM     13  O   UNL     1       8.089   4.219  17.165  0.00  0.00    +0.000 OA
BRANCH  12  14
ATOM     14  O   UNL     1       7.418   5.466  15.393  0.00  0.00    +0.000 OA
ATOM     15  H   UNL     1       7.212   4.912  14.613  0.00  0.00    +0.000 HD
ENDBRANCH  12  14
ENDBRANCH  10  12
ENDBRANCH   6   7
BRANCH   1  16
ATOM     16  O   UNL     1       2.734   5.155  20.491  0.00  0.00    +0.000 OA
BRANCH  16  18
ATOM     17  C   UNL     1       1.887   3.178  21.591  0.00  0.00    +0.000 C 
ATOM     18  C   UNL     1       1.653   4.222  20.518  0.00  0.00    +0.000 C 
ENDBRANCH  16  18
ENDBRANCH   1  16
TORSDOF 5
ENDMDL
MODEL 5
REMARK VINA RESULT:      -6.6      2.006      5.462
REMARK  Name = 
REMARK  6 active torsions:
REMARK  status: ('A' for Active; 'I' for Inactive)
REMARK    1  A    between atoms: C_1  and  C_2
REMARK    2  A    between atoms: C_2  and  O_3
REMARK    3  A    between atoms: O_3  and  C_4
REMARK    4  A    between atoms: C_9  and  C_10
REMARK    5  A    between atoms: C_13  and  C_14
REMARK    6  A    between atoms: C_14  and  O_16
REMARK                            x       y       z     vdW  Elec       q    Type
REMARK                         _______ _______ _______ _____ _____    ______ ____
ROOT
ATOM      1  C   UNL     1       6.298   4.648  17.897  0.00  0.00    +0.000 A 
ATOM      2  C   UNL     1       7.249   4.531  16.867  0.00  0.00    +0.000 A 
ATOM      3  C   UNL     1       6.864   4.281  15.551  0.00  0.00    +0.000 A 
ATOM      4  C   UNL     1       5.518   4.143  15.243  0.00  0.00    +0.000 A 
ATOM      5  C   UNL     1       4.559   4.293  16.249  0.00  0.00    +0.000 A 
ATOM      6  C   UNL     1       4.925   4.576  17.582  0.00  0.00    +0.000 A 
ENDROOT
BRANCH   6   7
ATOM      7  C   UNL     1       3.858   4.819  18.548  0.00  0.00    +0.000 A 
ATOM      8  C   UNL     1       3.156   5.939  18.949  0.00  0.00    +0.000 A 
ATOM      9  C   UNL     1       2.394   5.555  20.078  0.00  0.00    +0.000 A 
ATOM     10  C   UNL     1       2.571   4.198  20.229  0.00  0.00    +0.000 A 
ATOM     11  O   UNL     1       3.457   3.740  19.288  0.00  0.00    +0.000 OA
BRANCH  10  12
ATOM     12  C   UNL     1       2.011   3.264  21.174  0.00  0.00    +0.000 C 
ATOM     13  O   UNL     1       2.608   2.744  22.111  0.00  0.00    +0.000 OA
BRANCH  12  14
ATOM     14  O   UNL     1       0.701   3.022  20.913  0.00  0.00    +0.000 OA
ATOM     15  H   UNL     1       0.264   2.669  21.714  0.00  0.00    +0.000 HD
ENDBRANCH  12  14
ENDBRANCH  10  12
ENDBRANCH   6   7
BRANCH   1  16
ATOM     16  O   UNL     1       6.875   4.879  19.119  0.00  0.00    +0.000 OA
BRANCH  16  18
ATOM     17  C   UNL     1       7.746   7.010  18.388  0.00  0.00    +0.000 C 
ATOM     18  C   UNL     1       8.008   5.747  19.182  0.00  0.00    +0.000 C 
ENDBRANCH  16  18
ENDBRANCH   1  16
TORSDOF 5
ENDMDL
MODEL 6
REMARK VINA RESULT:      -6.5      2.889      4.299
REMARK  Name = 
REMARK  6 active torsions:
REMARK  status: ('A' for Active; 'I' for Inactive)
REMARK    1  A    between atoms: C_1  and  C_2
REMARK    2  A    between atoms: C_2  and  O_3
REMARK    3  A    between atoms: O_3  and  C_4
REMARK    4  A    between atoms: C_9  and  C_10
REMARK    5  A    between atoms: C_13  and  C_14
REMARK    6  A    between atoms: C_14  and  O_16
REMARK                            x       y       z     vdW  Elec       q    Type
REMARK                         _______ _______ _______ _____ _____    ______ ____
ROOT
ATOM      1  C   UNL     1       5.969   4.512  18.156  0.00  0.00    +0.000 A 
ATOM      2  C   UNL     1       5.208   4.405  19.336  0.00  0.00    +0.000 A 
ATOM      3  C   UNL     1       3.818   4.307  19.295  0.00  0.00    +0.000 A 
ATOM      4  C   UNL     1       3.165   4.315  18.071  0.00  0.00    +0.000 A 
ATOM      5  C   UNL     1       3.909   4.384  16.889  0.00  0.00    +0.000 A 
ATOM      6  C   UNL     1       5.318   4.453  16.906  0.00  0.00    +0.000 A 
ENDROOT
BRANCH   6   7
ATOM      7  C   UNL     1       6.021   4.417  15.627  0.00  0.00    +0.000 A 
ATOM      8  C   UNL     1       7.149   5.037  15.129  0.00  0.00    +0.000 A 
ATOM      9  C   UNL     1       7.191   4.749  13.745  0.00  0.00    +0.000 A 
ATOM     10  C   UNL     1       6.163   3.867  13.495  0.00  0.00    +0.000 A 
ATOM     11  O   UNL     1       5.450   3.651  14.647  0.00  0.00    +0.000 OA
BRANCH  10  12
ATOM     12  C   UNL     1       5.752   3.201  12.285  0.00  0.00    +0.000 C 
ATOM     13  O   UNL     1       4.675   3.345  11.715  0.00  0.00    +0.000 OA
BRANCH  12  14
ATOM     14  O   UNL     1       6.724   2.376  11.819  0.00  0.00    +0.000 OA
ATOM     15  H   UNL     1       6.329   1.695  11.238  0.00  0.00    +0.000 HD
ENDBRANCH  12  14
ENDBRANCH  10  12
ENDBRANCH   6   7
BRANCH   1  16
ATOM     16  O   UNL     1       7.312   4.612  18.407  0.00  0.00    +0.000 OA
BRANCH  16  18
ATOM     17  C   UNL     1       7.791   6.970  18.194  0.00  0.00    +0.000 C 
ATOM     18  C   UNL     1       7.789   5.762  19.108  0.00  0.00    +0.000 C 
ENDBRANCH  16  18
ENDBRANCH   1  16
TORSDOF 5
ENDMDL
MODEL 7
REMARK VINA RESULT:      -6.5      1.518      1.912
REMARK  Name = 
REMARK  6 active torsions:
REMARK  status: ('A' for Active; 'I' for Inactive)
REMARK    1  A    between atoms: C_1  and  C_2
REMARK    2  A    between atoms: C_2  and  O_3
REMARK    3  A    between atoms: O_3  and  C_4
REMARK    4  A    between atoms: C_9  and  C_10
REMARK    5  A    between atoms: C_13  and  C_14
REMARK    6  A    between atoms: C_14  and  O_16
REMARK                            x       y       z     vdW  Elec       q    Type
REMARK                         _______ _______ _______ _____ _____    ______ ____
ROOT
ATOM      1  C   UNL     1       2.481   4.568  18.964  0.00  0.00    +0.000 A 
ATOM      2  C   UNL     1       1.322   4.208  19.675  0.00  0.00    +0.000 A 
ATOM      3  C   UNL     1       1.352   3.218  20.657  0.00  0.00    +0.000 A 
ATOM      4  C   UNL     1       2.547   2.572  20.944  0.00  0.00    +0.000 A 
ATOM      5  C   UNL     1       3.714   2.944  20.271  0.00  0.00    +0.000 A 
ATOM      6  C   UNL     1       3.712   3.963  19.295  0.00  0.00    +0.000 A 
ENDROOT
BRANCH   6   7
ATOM      7  C   UNL     1       4.992   4.361  18.717  0.00  0.00    +0.000 A 
ATOM      8  C   UNL     1       6.097   5.039  19.191  0.00  0.00    +0.000 A 
ATOM      9  C   UNL     1       6.928   5.290  18.075  0.00  0.00    +0.000 A 
ATOM     10  C   UNL     1       6.353   4.645  17.003  0.00  0.00    +0.000 A 
ATOM     11  O   UNL     1       5.173   4.064  17.393  0.00  0.00    +0.000 OA
BRANCH  10  12
ATOM     12  C   UNL     1       6.774   4.514  15.631  0.00  0.00    +0.000 C 
ATOM     13  O   UNL     1       7.510   5.289  15.028  0.00  0.00    +0.000 OA
BRANCH  12  14
ATOM     14  O   UNL     1       6.263   3.394  15.060  0.00  0.00    +0.000 OA
ATOM     15  H   UNL     1       5.422   3.155  15.499  0.00  0.00    +0.000 HD
ENDBRANCH  12  14
ENDBRANCH  10  12
ENDBRANCH   6   7
BRANCH   1  16
ATOM     16  O   UNL     1       2.242   5.546  18.034  0.00  0.00    +0.000 OA
BRANCH  16  18
ATOM     17  C   UNL     1       3.559   7.529  17.622  0.00  0.00    +0.000 C 
ATOM     18  C   UNL     1       2.429   6.910  18.419  0.00  0.00    +0.000 C 
ENDBRANCH  16  18
ENDBRANCH   1  16
TORSDOF 5
ENDMDL
MODEL 8
REMARK VINA RESULT:      -6.5      1.259      1.730
REMARK  Name = 
REMARK  6 active torsions:
REMARK  status: ('A' for Active; 'I' for Inactive)
REMARK    1  A    between atoms: C_1  and  C_2
REMARK    2  A    between atoms: C_2  and  O_3
REMARK    3  A    between atoms: O_3  and  C_4
REMARK    4  A    between atoms: C_9  and  C_10
REMARK    5  A    between atoms: C_13  and  C_14
REMARK    6  A    between atoms: C_14  and  O_16
REMARK                            x       y       z     vdW  Elec       q    Type
REMARK                         _______ _______ _______ _____ _____    ______ ____
ROOT
ATOM      1  C   UNL     1       2.351   4.896  19.594  0.00  0.00    +0.000 A 
ATOM      2  C   UNL     1       1.412   4.030  20.184  0.00  0.00    +0.000 A 
ATOM      3  C   UNL     1       0.983   2.875  19.532  0.00  0.00    +0.000 A 
ATOM      4  C   UNL     1       1.487   2.566  18.277  0.00  0.00    +0.000 A 
ATOM      5  C   UNL     1       2.448   3.398  17.693  0.00  0.00    +0.000 A 
ATOM      6  C   UNL     1       2.919   4.555  18.348  0.00  0.00    +0.000 A 
ENDROOT
BRANCH   6   7
ATOM      7  C   UNL     1       3.997   5.310  17.715  0.00  0.00    +0.000 A 
ATOM      8  C   UNL     1       4.168   6.632  17.358  0.00  0.00    +0.000 A 
ATOM      9  C   UNL     1       5.353   6.693  16.587  0.00  0.00    +0.000 A 
ATOM     10  C   UNL     1       5.909   5.433  16.622  0.00  0.00    +0.000 A 
ATOM     11  O   UNL     1       5.089   4.585  17.321  0.00  0.00    +0.000 OA
BRANCH  10  12
ATOM     12  C   UNL     1       7.131   4.915  16.058  0.00  0.00    +0.000 C 
ATOM     13  O   UNL     1       7.548   5.131  14.925  0.00  0.00    +0.000 OA
BRANCH  12  14
ATOM     14  O   UNL     1       7.801   4.146  16.953  0.00  0.00    +0.000 OA
ATOM     15  H   UNL     1       7.192   3.857  17.662  0.00  0.00    +0.000 HD
ENDBRANCH  12  14
ENDBRANCH  10  12
ENDBRANCH   6   7
BRANCH   1  16
ATOM     16  O   UNL     1       2.632   5.980  20.384  0.00  0.00    +0.000 OA
BRANCH  16  18
ATOM     17  C   UNL     1       1.788   8.151  19.743  0.00  0.00    +0.000 C 
ATOM     18  C   UNL     1       1.595   6.934  20.623  0.00  0.00    +0.000 C 
ENDBRANCH  16  18
ENDBRANCH   1  16
TORSDOF 5
ENDMDL
MODEL 9
REMARK VINA RESULT:      -6.5      2.201      5.460
REMARK  Name = 
REMARK  6 active torsions:
REMARK  status: ('A' for Active; 'I' for Inactive)
REMARK    1  A    between atoms: C_1  and  C_2
REMARK    2  A    between atoms: C_2  and  O_3
REMARK    3  A    between atoms: O_3  and  C_4
REMARK    4  A    between atoms: C_9  and  C_10
REMARK    5  A    between atoms: C_13  and  C_14
REMARK    6  A    between atoms: C_14  and  O_16
REMARK                            x       y       z     vdW  Elec       q    Type
REMARK                         _______ _______ _______ _____ _____    ______ ____
ROOT
ATOM      1  C   UNL     1       5.741   5.663  17.208  0.00  0.00    +0.000 A 
ATOM      2  C   UNL     1       6.882   6.475  17.070  0.00  0.00    +0.000 A 
ATOM      3  C   UNL     1       7.793   6.629  18.114  0.00  0.00    +0.000 A 
ATOM      4  C   UNL     1       7.577   5.971  19.317  0.00  0.00    +0.000 A 
ATOM      5  C   UNL     1       6.468   5.132  19.457  0.00  0.00    +0.000 A 
ATOM      6  C   UNL     1       5.550   4.938  18.404  0.00  0.00    +0.000 A 
ENDROOT
BRANCH   6   7
ATOM      7  C   UNL     1       4.478   3.967  18.599  0.00  0.00    +0.000 A 
ATOM      8  C   UNL     1       3.902   2.993  17.807  0.00  0.00    +0.000 A 
ATOM      9  C   UNL     1       2.762   2.528  18.503  0.00  0.00    +0.000 A 
ATOM     10  C   UNL     1       2.773   3.146  19.734  0.00  0.00    +0.000 A 
ATOM     11  O   UNL     1       3.828   4.020  19.802  0.00  0.00    +0.000 OA
BRANCH  10  12
ATOM     12  C   UNL     1       1.891   3.026  20.869  0.00  0.00    +0.000 C 
ATOM     13  O   UNL     1       2.238   2.874  22.035  0.00  0.00    +0.000 OA
BRANCH  12  14
ATOM     14  O   UNL     1       0.590   3.117  20.495  0.00  0.00    +0.000 OA
ATOM     15  H   UNL     1       0.362   2.370  19.906  0.00  0.00    +0.000 HD
ENDBRANCH  12  14
ENDBRANCH  10  12
ENDBRANCH   6   7
BRANCH   1  16
ATOM     16  O   UNL     1       4.965   5.654  16.079  0.00  0.00    +0.000 OA
BRANCH  16  18
ATOM     17  C   UNL     1       5.997   3.862  14.830  0.00  0.00    +0.000 C 
ATOM     18  C   UNL     1       5.580   5.319  14.834  0.00  0.00    +0.000 C 
ENDBRANCH  16  18
ENDBRANCH   1  16
TORSDOF 5
ENDMDL
