MODEL 1
REMARK VINA RESULT:      -8.1      0.000      0.000
REMARK  Name = 
REMARK  7 active torsions:
REMARK  status: ('A' for Active; 'I' for Inactive)
REMARK    1  A    between atoms: C_1  and  C_2
REMARK    2  A    between atoms: C_6  and  C_7
REMARK    3  A    between atoms: N_9  and  C_10
REMARK    4  A    between atoms: C_14  and  C_15
REMARK    5  A    between atoms: C_18  and  C_19
REMARK    6  A    between atoms: N_21  and  C_22
REMARK    7  A    between atoms: C_22  and  C_23
REMARK                            x       y       z     vdW  Elec       q    Type
REMARK                         _______ _______ _______ _____ _____    ______ ____
ROOT
ATOM      1  C   UNL     1       3.502   2.698  19.258  0.00  0.00    +0.000 C 
ATOM      2  C   UNL     1       3.009   4.104  19.492  0.00  0.00    +0.000 A 
ATOM      3  C   UNL     1       2.040   4.291  20.490  0.00  0.00    +0.000 A 
ATOM      4  F   UNL     1       1.567   3.239  21.173  0.00  0.00    +0.000 F 
ATOM      5  C   UNL     1       1.548   5.544  20.819  0.00  0.00    +0.000 A 
ATOM      6  C   UNL     1       2.009   6.660  20.131  0.00  0.00    +0.000 A 
ATOM      7  C   UNL     1       2.977   6.499  19.123  0.00  0.00    +0.000 A 
ATOM      8  C   UNL     1       3.495   5.225  18.769  0.00  0.00    +0.000 A 
ENDROOT
BRANCH   8   9
ATOM      9  C   UNL     1       4.488   5.110  17.665  0.00  0.00    +0.000 A 
ATOM     10  C   UNL     1       5.774   5.647  17.731  0.00  0.00    +0.000 A 
ATOM     11  C   UNL     1       6.632   5.545  16.629  0.00  0.00    +0.000 A 
ATOM     12  C   UNL     1       6.205   4.890  15.475  0.00  0.00    +0.000 A 
ATOM     13  C   UNL     1       4.924   4.362  15.496  0.00  0.00    +0.000 A 
ATOM     14  N   UNL     1       4.069   4.471  16.546  0.00  0.00    +0.000 NA
BRANCH  12  15
ATOM     15  C   UNL     1       7.013   4.733  14.237  0.00  0.00    +0.000 C 
ATOM     16  O   UNL     1       7.995   5.450  14.054  0.00  0.00    +0.000 OA
ATOM     17  N   UNL     1       6.623   3.767  13.339  0.00  0.00    +0.000 N 
ATOM     18  H   UNL     1       5.800   3.206  13.485  0.00  0.00    +0.000 HD
BRANCH  17  19
ATOM     19  C   UNL     1       7.351   3.567  12.108  0.00  0.00    +0.000 C 
BRANCH  19  20
ATOM     20  C   UNL     1       6.489   2.835  11.130  0.00  0.00    +0.000 C 
ATOM     21  C   UNL     1       6.470   1.324  11.088  0.00  0.00    +0.000 C 
ATOM     22  C   UNL     1       5.277   2.074  11.608  0.00  0.00    +0.000 C 
ENDBRANCH  19  20
ENDBRANCH  17  19
ENDBRANCH  12  15
ENDBRANCH   8   9
BRANCH   6  23
ATOM     23  C   UNL     1       1.519   8.025  20.473  0.00  0.00    +0.000 C 
ATOM     24  O   UNL     1       1.308   8.837  19.579  0.00  0.00    +0.000 OA
ATOM     25  N   UNL     1       1.327   8.277  21.820  0.00  0.00    +0.000 N 
ATOM     26  H   UNL     1       1.373   7.513  22.481  0.00  0.00    +0.000 HD
BRANCH  25  27
ATOM     27  C   UNL     1       0.895   9.547  22.312  0.00  0.00    +0.000 C 
ATOM     28  C   UNL     1      -0.512  10.009  22.059  0.00  0.00    +0.000 C 
ATOM     29  C   UNL     1      -0.085   9.648  23.452  0.00  0.00    +0.000 C 
ENDBRANCH  25  27
ENDBRANCH   6  23
TORSDOF 6
ENDMDL
MODEL 2
REMARK VINA RESULT:      -8.0      2.929      9.049
REMARK  Name = 
REMARK  7 active torsions:
REMARK  status: ('A' for Active; 'I' for Inactive)
REMARK    1  A    between atoms: C_1  and  C_2
REMARK    2  A    between atoms: C_6  and  C_7
REMARK    3  A    between atoms: N_9  and  C_10
REMARK    4  A    between atoms: C_14  and  C_15
REMARK    5  A    between atoms: C_18  and  C_19
REMARK    6  A    between atoms: N_21  and  C_22
REMARK    7  A    between atoms: C_22  and  C_23
REMARK                            x       y       z     vdW  Elec       q    Type
REMARK                         _______ _______ _______ _____ _____    ______ ____
ROOT
ATOM      1  C   UNL     1       6.325   5.434  19.564  0.00  0.00    +0.000 C 
ATOM      2  C   UNL     1       6.339   5.314  18.061  0.00  0.00    +0.000 A 
ATOM      3  C   UNL     1       7.409   4.616  17.478  0.00  0.00    +0.000 A 
ATOM      4  F   UNL     1       8.382   4.110  18.251  0.00  0.00    +0.000 F 
ATOM      5  C   UNL     1       7.502   4.408  16.111  0.00  0.00    +0.000 A 
ATOM      6  C   UNL     1       6.516   4.920  15.276  0.00  0.00    +0.000 A 
ATOM      7  C   UNL     1       5.436   5.627  15.834  0.00  0.00    +0.000 A 
ATOM      8  C   UNL     1       5.321   5.852  17.232  0.00  0.00    +0.000 A 
ENDROOT
BRANCH   8   9
ATOM      9  C   UNL     1       4.176   6.644  17.763  0.00  0.00    +0.000 A 
ATOM     10  C   UNL     1       3.296   6.163  18.732  0.00  0.00    +0.000 A 
ATOM     11  C   UNL     1       2.210   6.947  19.142  0.00  0.00    +0.000 A 
ATOM     12  C   UNL     1       2.024   8.215  18.592  0.00  0.00    +0.000 A 
ATOM     13  C   UNL     1       2.954   8.631  17.653  0.00  0.00    +0.000 A 
ATOM     14  N   UNL     1       4.000   7.875  17.226  0.00  0.00    +0.000 NA
BRANCH  12  15
ATOM     15  C   UNL     1       0.903   9.132  18.929  0.00  0.00    +0.000 C 
ATOM     16  O   UNL     1       0.630   9.355  20.107  0.00  0.00    +0.000 OA
ATOM     17  N   UNL     1       0.214   9.708  17.888  0.00  0.00    +0.000 N 
ATOM     18  H   UNL     1       0.427   9.495  16.926  0.00  0.00    +0.000 HD
BRANCH  17  19
ATOM     19  C   UNL     1      -0.894  10.598  18.138  0.00  0.00    +0.000 C 
BRANCH  19  20
ATOM     20  C   UNL     1      -2.162   9.966  17.659  0.00  0.00    +0.000 C 
ATOM     21  C   UNL     1      -3.309  10.809  17.152  0.00  0.00    +0.000 C 
ATOM     22  C   UNL     1      -2.508   9.979  16.190  0.00  0.00    +0.000 C 
ENDBRANCH  19  20
ENDBRANCH  17  19
ENDBRANCH  12  15
ENDBRANCH   8   9
BRANCH   6  23
ATOM     23  C   UNL     1       6.571   4.697  13.803  0.00  0.00    +0.000 C 
ATOM     24  O   UNL     1       7.389   5.308  13.126  0.00  0.00    +0.000 OA
ATOM     25  N   UNL     1       5.665   3.779  13.299  0.00  0.00    +0.000 N 
ATOM     26  H   UNL     1       5.131   3.204  13.936  0.00  0.00    +0.000 HD
BRANCH  25  27
ATOM     27  C   UNL     1       5.568   3.481  11.904  0.00  0.00    +0.000 C 
ATOM     28  C   UNL     1       5.418   2.056  11.451  0.00  0.00    +0.000 C 
ATOM     29  C   UNL     1       4.271   3.012  11.298  0.00  0.00    +0.000 C 
ENDBRANCH  25  27
ENDBRANCH   6  23
TORSDOF 6
ENDMDL
MODEL 3
REMARK VINA RESULT:      -7.9      4.964      7.530
REMARK  Name = 
REMARK  7 active torsions:
REMARK  status: ('A' for Active; 'I' for Inactive)
REMARK    1  A    between atoms: C_1  and  C_2
REMARK    2  A    between atoms: C_6  and  C_7
REMARK    3  A    between atoms: N_9  and  C_10
REMARK    4  A    between atoms: C_14  and  C_15
REMARK    5  A    between atoms: C_18  and  C_19
REMARK    6  A    between atoms: N_21  and  C_22
REMARK    7  A    between atoms: C_22  and  C_23
REMARK                            x       y       z     vdW  Elec       q    Type
REMARK                         _______ _______ _______ _____ _____    ______ ____
ROOT
ATOM      1  C   UNL     1       7.617   5.222  14.853  0.00  0.00    +0.000 C 
ATOM      2  C   UNL     1       6.392   4.909  15.674  0.00  0.00    +0.000 A 
ATOM      3  C   UNL     1       5.527   3.914  15.190  0.00  0.00    +0.000 A 
ATOM      4  F   UNL     1       5.790   3.302  14.027  0.00  0.00    +0.000 F 
ATOM      5  C   UNL     1       4.394   3.516  15.883  0.00  0.00    +0.000 A 
ATOM      6  C   UNL     1       4.084   4.129  17.091  0.00  0.00    +0.000 A 
ATOM      7  C   UNL     1       4.931   5.131  17.595  0.00  0.00    +0.000 A 
ATOM      8  C   UNL     1       6.097   5.556  16.903  0.00  0.00    +0.000 A 
ENDROOT
BRANCH   8   9
ATOM      9  C   UNL     1       6.935   6.652  17.464  0.00  0.00    +0.000 A 
ATOM     10  C   UNL     1       7.850   6.463  18.500  0.00  0.00    +0.000 A 
ATOM     11  C   UNL     1       8.562   7.554  19.012  0.00  0.00    +0.000 A 
ATOM     12  C   UNL     1       8.368   8.824  18.471  0.00  0.00    +0.000 A 
ATOM     13  C   UNL     1       7.460   8.927  17.429  0.00  0.00    +0.000 A 
ATOM     14  N   UNL     1       6.743   7.883  16.935  0.00  0.00    +0.000 NA
BRANCH  12  15
ATOM     15  C   UNL     1       9.047  10.062  18.938  0.00  0.00    +0.000 C 
ATOM     16  O   UNL     1       9.376  10.169  20.118  0.00  0.00    +0.000 OA
ATOM     17  N   UNL     1       9.290  11.046  18.009  0.00  0.00    +0.000 N 
ATOM     18  H   UNL     1       8.989  10.960  17.052  0.00  0.00    +0.000 HD
BRANCH  17  19
ATOM     19  C   UNL     1       9.933  12.281  18.393  0.00  0.00    +0.000 C 
BRANCH  19  20
ATOM     20  C   UNL     1      11.411  12.156  18.203  0.00  0.00    +0.000 C 
ATOM     21  C   UNL     1      12.333  13.318  18.489  0.00  0.00    +0.000 C 
ATOM     22  C   UNL     1      12.329  12.124  19.400  0.00  0.00    +0.000 C 
ENDBRANCH  19  20
ENDBRANCH  17  19
ENDBRANCH  12  15
ENDBRANCH   8   9
BRANCH   6  23
ATOM     23  C   UNL     1       2.887   3.711  17.875  0.00  0.00    +0.000 C 
ATOM     24  O   UNL     1       1.773   3.780  17.367  0.00  0.00    +0.000 OA
ATOM     25  N   UNL     1       3.136   3.255  19.158  0.00  0.00    +0.000 N 
ATOM     26  H   UNL     1       4.088   3.081  19.449  0.00  0.00    +0.000 HD
BRANCH  25  27
ATOM     27  C   UNL     1       2.092   2.852  20.047  0.00  0.00    +0.000 C 
ATOM     28  C   UNL     1       2.308   2.914  21.533  0.00  0.00    +0.000 C 
ATOM     29  C   UNL     1       1.345   3.861  20.879  0.00  0.00    +0.000 C 
ENDBRANCH  25  27
ENDBRANCH   6  23
TORSDOF 6
ENDMDL
MODEL 4
REMARK VINA RESULT:      -7.9      2.019      9.390
REMARK  Name = 
REMARK  7 active torsions:
REMARK  status: ('A' for Active; 'I' for Inactive)
REMARK    1  A    between atoms: C_1  and  C_2
REMARK    2  A    between atoms: C_6  and  C_7
REMARK    3  A    between atoms: N_9  and  C_10
REMARK    4  A    between atoms: C_14  and  C_15
REMARK    5  A    between atoms: C_18  and  C_19
REMARK    6  A    between atoms: N_21  and  C_22
REMARK    7  A    between atoms: C_22  and  C_23
REMARK                            x       y       z     vdW  Elec       q    Type
REMARK                         _______ _______ _______ _____ _____    ______ ____
ROOT
ATOM      1  C   UNL     1       1.201   4.762  20.492  0.00  0.00    +0.000 C 
ATOM      2  C   UNL     1       2.422   4.732  19.609  0.00  0.00    +0.000 A 
ATOM      3  C   UNL     1       3.109   3.513  19.495  0.00  0.00    +0.000 A 
ATOM      4  F   UNL     1       2.689   2.440  20.181  0.00  0.00    +0.000 F 
ATOM      5  C   UNL     1       4.218   3.360  18.679  0.00  0.00    +0.000 A 
ATOM      6  C   UNL     1       4.687   4.450  17.955  0.00  0.00    +0.000 A 
ATOM      7  C   UNL     1       4.020   5.684  18.054  0.00  0.00    +0.000 A 
ATOM      8  C   UNL     1       2.882   5.864  18.885  0.00  0.00    +0.000 A 
ENDROOT
BRANCH   8   9
ATOM      9  C   UNL     1       2.240   7.205  18.983  0.00  0.00    +0.000 A 
ATOM     10  C   UNL     1       2.031   8.036  17.883  0.00  0.00    +0.000 A 
ATOM     11  C   UNL     1       1.471   9.307  18.063  0.00  0.00    +0.000 A 
ATOM     12  C   UNL     1       1.108   9.730  19.341  0.00  0.00    +0.000 A 
ATOM     13  C   UNL     1       1.326   8.838  20.379  0.00  0.00    +0.000 A 
ATOM     14  N   UNL     1       1.888   7.611  20.227  0.00  0.00    +0.000 NA
BRANCH  12  15
ATOM     15  C   UNL     1       0.524  11.059  19.664  0.00  0.00    +0.000 C 
ATOM     16  O   UNL     1       0.034  11.744  18.769  0.00  0.00    +0.000 OA
ATOM     17  N   UNL     1       0.550  11.466  20.977  0.00  0.00    +0.000 N 
ATOM     18  H   UNL     1       0.981  10.910  21.698  0.00  0.00    +0.000 HD
BRANCH  17  19
ATOM     19  C   UNL     1       0.015  12.750  21.363  0.00  0.00    +0.000 C 
BRANCH  19  20
ATOM     20  C   UNL     1      -0.802  12.598  22.606  0.00  0.00    +0.000 C 
ATOM     21  C   UNL     1      -2.296  12.381  22.535  0.00  0.00    +0.000 C 
ATOM     22  C   UNL     1      -1.395  11.259  22.966  0.00  0.00    +0.000 C 
ENDBRANCH  19  20
ENDBRANCH  17  19
ENDBRANCH  12  15
ENDBRANCH   8   9
BRANCH   6  23
ATOM     23  C   UNL     1       5.863   4.317  17.050  0.00  0.00    +0.000 C 
ATOM     24  O   UNL     1       6.990   4.526  17.482  0.00  0.00    +0.000 OA
ATOM     25  N   UNL     1       5.581   3.948  15.746  0.00  0.00    +0.000 N 
ATOM     26  H   UNL     1       4.648   3.643  15.505  0.00  0.00    +0.000 HD
BRANCH  25  27
ATOM     27  C   UNL     1       6.595   3.813  14.747  0.00  0.00    +0.000 C 
ATOM     28  C   UNL     1       6.220   3.825  13.292  0.00  0.00    +0.000 C 
ATOM     29  C   UNL     1       6.987   4.976  13.875  0.00  0.00    +0.000 C 
ENDBRANCH  25  27
ENDBRANCH   6  23
TORSDOF 6
ENDMDL
MODEL 5
REMARK VINA RESULT:      -7.7      1.451      1.757
REMARK  Name = 
REMARK  7 active torsions:
REMARK  status: ('A' for Active; 'I' for Inactive)
REMARK    1  A    between atoms: C_1  and  C_2
REMARK    2  A    between atoms: C_6  and  C_7
REMARK    3  A    between atoms: N_9  and  C_10
REMARK    4  A    between atoms: C_14  and  C_15
REMARK    5  A    between atoms: C_18  and  C_19
REMARK    6  A    between atoms: N_21  and  C_22
REMARK    7  A    between atoms: C_22  and  C_23
REMARK                            x       y       z     vdW  Elec       q    Type
REMARK                         _______ _______ _______ _____ _____    ______ ____
ROOT
ATOM      1  C   UNL     1       3.126   2.751  19.497  0.00  0.00    +0.000 C 
ATOM      2  C   UNL     1       2.724   4.191  19.694  0.00  0.00    +0.000 A 
ATOM      3  C   UNL     1       1.885   4.485  20.780  0.00  0.00    +0.000 A 
ATOM      4  F   UNL     1       1.449   3.500  21.578  0.00  0.00    +0.000 F 
ATOM      5  C   UNL     1       1.488   5.779  21.080  0.00  0.00    +0.000 A 
ATOM      6  C   UNL     1       1.915   6.827  20.275  0.00  0.00    +0.000 A 
ATOM      7  C   UNL     1       2.752   6.559  19.177  0.00  0.00    +0.000 A 
ATOM      8  C   UNL     1       3.171   5.242  18.850  0.00  0.00    +0.000 A 
ENDROOT
BRANCH   8   9
ATOM      9  C   UNL     1       4.025   5.012  17.651  0.00  0.00    +0.000 A 
ATOM     10  C   UNL     1       4.237   3.752  17.091  0.00  0.00    +0.000 A 
ATOM     11  C   UNL     1       5.098   3.609  15.996  0.00  0.00    +0.000 A 
ATOM     12  C   UNL     1       5.727   4.731  15.458  0.00  0.00    +0.000 A 
ATOM     13  C   UNL     1       5.448   5.950  16.054  0.00  0.00    +0.000 A 
ATOM     14  N   UNL     1       4.633   6.105  17.131  0.00  0.00    +0.000 NA
BRANCH  12  15
ATOM     15  C   UNL     1       6.674   4.707  14.312  0.00  0.00    +0.000 C 
ATOM     16  O   UNL     1       7.659   5.443  14.319  0.00  0.00    +0.000 OA
ATOM     17  N   UNL     1       6.407   3.840  13.279  0.00  0.00    +0.000 N 
ATOM     18  H   UNL     1       5.581   3.263  13.270  0.00  0.00    +0.000 HD
BRANCH  17  19
ATOM     19  C   UNL     1       7.274   3.772  12.127  0.00  0.00    +0.000 C 
BRANCH  19  20
ATOM     20  C   UNL     1       6.682   2.853  11.108  0.00  0.00    +0.000 C 
ATOM     21  C   UNL     1       7.030   1.383  11.088  0.00  0.00    +0.000 C 
ATOM     22  C   UNL     1       5.659   1.822  11.518  0.00  0.00    +0.000 C 
ENDBRANCH  19  20
ENDBRANCH  17  19
ENDBRANCH  12  15
ENDBRANCH   8   9
BRANCH   6  23
ATOM     23  C   UNL     1       1.525   8.233  20.580  0.00  0.00    +0.000 C 
ATOM     24  O   UNL     1       1.499   8.618  21.743  0.00  0.00    +0.000 OA
ATOM     25  N   UNL     1       1.221   9.025  19.486  0.00  0.00    +0.000 N 
ATOM     26  H   UNL     1       1.415   8.684  18.555  0.00  0.00    +0.000 HD
BRANCH  25  27
ATOM     27  C   UNL     1       0.796  10.384  19.614  0.00  0.00    +0.000 C 
ATOM     28  C   UNL     1       1.385  11.440  18.722  0.00  0.00    +0.000 C 
ATOM     29  C   UNL     1      -0.051  11.038  18.554  0.00  0.00    +0.000 C 
ENDBRANCH  25  27
ENDBRANCH   6  23
TORSDOF 6
ENDMDL
MODEL 6
REMARK VINA RESULT:      -7.7      3.797      5.643
REMARK  Name = 
REMARK  7 active torsions:
REMARK  status: ('A' for Active; 'I' for Inactive)
REMARK    1  A    between atoms: C_1  and  C_2
REMARK    2  A    between atoms: C_6  and  C_7
REMARK    3  A    between atoms: N_9  and  C_10
REMARK    4  A    between atoms: C_14  and  C_15
REMARK    5  A    between atoms: C_18  and  C_19
REMARK    6  A    between atoms: N_21  and  C_22
REMARK    7  A    between atoms: C_22  and  C_23
REMARK                            x       y       z     vdW  Elec       q    Type
REMARK                         _______ _______ _______ _____ _____    ______ ____
ROOT
ATOM      1  C   UNL     1       1.640   8.936  22.283  0.00  0.00    +0.000 C 
ATOM      2  C   UNL     1       0.848   9.501  21.131  0.00  0.00    +0.000 A 
ATOM      3  C   UNL     1      -0.058  10.535  21.416  0.00  0.00    +0.000 A 
ATOM      4  F   UNL     1      -0.214  10.964  22.676  0.00  0.00    +0.000 F 
ATOM      5  C   UNL     1      -0.806  11.157  20.429  0.00  0.00    +0.000 A 
ATOM      6  C   UNL     1      -0.677  10.739  19.110  0.00  0.00    +0.000 A 
ATOM      7  C   UNL     1       0.220   9.702  18.798  0.00  0.00    +0.000 A 
ATOM      8  C   UNL     1       0.997   9.050  19.793  0.00  0.00    +0.000 A 
ENDROOT
BRANCH   8   9
ATOM      9  C   UNL     1       1.901   7.930  19.411  0.00  0.00    +0.000 A 
ATOM     10  C   UNL     1       2.040   6.765  20.166  0.00  0.00    +0.000 A 
ATOM     11  C   UNL     1       2.953   5.779  19.771  0.00  0.00    +0.000 A 
ATOM     12  C   UNL     1       3.706   5.957  18.611  0.00  0.00    +0.000 A 
ATOM     13  C   UNL     1       3.494   7.129  17.903  0.00  0.00    +0.000 A 
ATOM     14  N   UNL     1       2.631   8.106  18.283  0.00  0.00    +0.000 NA
BRANCH  12  15
ATOM     15  C   UNL     1       4.718   4.996  18.098  0.00  0.00    +0.000 C 
ATOM     16  O   UNL     1       4.473   3.791  18.105  0.00  0.00    +0.000 OA
ATOM     17  N   UNL     1       5.901   5.508  17.620  0.00  0.00    +0.000 N 
ATOM     18  H   UNL     1       6.103   6.494  17.647  0.00  0.00    +0.000 HD
BRANCH  17  19
ATOM     19  C   UNL     1       6.935   4.634  17.120  0.00  0.00    +0.000 C 
BRANCH  19  20
ATOM     20  C   UNL     1       7.016   4.755  15.632  0.00  0.00    +0.000 C 
ATOM     21  C   UNL     1       6.257   3.809  14.731  0.00  0.00    +0.000 C 
ATOM     22  C   UNL     1       5.826   5.244  14.844  0.00  0.00    +0.000 C 
ENDBRANCH  19  20
ENDBRANCH  17  19
ENDBRANCH  12  15
ENDBRANCH   8   9
BRANCH   6  23
ATOM     23  C   UNL     1      -1.449  11.400  18.019  0.00  0.00    +0.000 C 
ATOM     24  O   UNL     1      -1.708  12.595  18.095  0.00  0.00    +0.000 OA
ATOM     25  N   UNL     1      -1.820  10.583  16.965  0.00  0.00    +0.000 N 
ATOM     26  H   UNL     1      -1.439   9.649  16.899  0.00  0.00    +0.000 HD
BRANCH  25  27
ATOM     27  C   UNL     1      -2.594  11.057  15.860  0.00  0.00    +0.000 C 
ATOM     28  C   UNL     1      -3.034  10.100  14.788  0.00  0.00    +0.000 C 
ATOM     29  C   UNL     1      -4.050  10.696  15.718  0.00  0.00    +0.000 C 
ENDBRANCH  25  27
ENDBRANCH   6  23
TORSDOF 6
ENDMDL
MODEL 7
REMARK VINA RESULT:      -7.7      4.866      9.291
REMARK  Name = 
REMARK  7 active torsions:
REMARK  status: ('A' for Active; 'I' for Inactive)
REMARK    1  A    between atoms: C_1  and  C_2
REMARK    2  A    between atoms: C_6  and  C_7
REMARK    3  A    between atoms: N_9  and  C_10
REMARK    4  A    between atoms: C_14  and  C_15
REMARK    5  A    between atoms: C_18  and  C_19
REMARK    6  A    between atoms: N_21  and  C_22
REMARK    7  A    between atoms: C_22  and  C_23
REMARK                            x       y       z     vdW  Elec       q    Type
REMARK                         _______ _______ _______ _____ _____    ______ ____
ROOT
ATOM      1  C   UNL     1       5.209   5.205  18.980  0.00  0.00    +0.000 C 
ATOM      2  C   UNL     1       5.621   4.931  17.556  0.00  0.00    +0.000 A 
ATOM      3  C   UNL     1       4.992   3.863  16.896  0.00  0.00    +0.000 A 
ATOM      4  F   UNL     1       4.085   3.116  17.540  0.00  0.00    +0.000 F 
ATOM      5  C   UNL     1       5.263   3.548  15.574  0.00  0.00    +0.000 A 
ATOM      6  C   UNL     1       6.200   4.296  14.872  0.00  0.00    +0.000 A 
ATOM      7  C   UNL     1       6.848   5.367  15.512  0.00  0.00    +0.000 A 
ATOM      8  C   UNL     1       6.587   5.709  16.866  0.00  0.00    +0.000 A 
ENDROOT
BRANCH   8   9
ATOM      9  C   UNL     1       7.333   6.829  17.505  0.00  0.00    +0.000 A 
ATOM     10  C   UNL     1       8.108   6.676  18.655  0.00  0.00    +0.000 A 
ATOM     11  C   UNL     1       8.735   7.789  19.229  0.00  0.00    +0.000 A 
ATOM     12  C   UNL     1       8.599   9.044  18.636  0.00  0.00    +0.000 A 
ATOM     13  C   UNL     1       7.834   9.110  17.483  0.00  0.00    +0.000 A 
ATOM     14  N   UNL     1       7.199   8.046  16.926  0.00  0.00    +0.000 NA
BRANCH  12  15
ATOM     15  C   UNL     1       9.199  10.300  19.158  0.00  0.00    +0.000 C 
ATOM     16  O   UNL     1       9.489  10.390  20.349  0.00  0.00    +0.000 OA
ATOM     17  N   UNL     1       9.414  11.324  18.265  0.00  0.00    +0.000 N 
ATOM     18  H   UNL     1       9.145  11.251  17.297  0.00  0.00    +0.000 HD
BRANCH  17  19
ATOM     19  C   UNL     1       9.979  12.578  18.702  0.00  0.00    +0.000 C 
BRANCH  19  20
ATOM     20  C   UNL     1      11.427  12.631  18.333  0.00  0.00    +0.000 C 
ATOM     21  C   UNL     1      11.973  13.753  17.481  0.00  0.00    +0.000 C 
ATOM     22  C   UNL     1      12.327  13.678  18.939  0.00  0.00    +0.000 C 
ENDBRANCH  19  20
ENDBRANCH  17  19
ENDBRANCH  12  15
ENDBRANCH   8   9
BRANCH   6  23
ATOM     23  C   UNL     1       6.500   3.999  13.443  0.00  0.00    +0.000 C 
ATOM     24  O   UNL     1       7.241   4.743  12.810  0.00  0.00    +0.000 OA
ATOM     25  N   UNL     1       5.903   2.862  12.925  0.00  0.00    +0.000 N 
ATOM     26  H   UNL     1       5.434   2.219  13.548  0.00  0.00    +0.000 HD
BRANCH  25  27
ATOM     27  C   UNL     1       6.063   2.461  11.563  0.00  0.00    +0.000 C 
ATOM     28  C   UNL     1       7.331   1.786  11.124  0.00  0.00    +0.000 C 
ATOM     29  C   UNL     1       6.050   1.007  11.173  0.00  0.00    +0.000 C 
ENDBRANCH  25  27
ENDBRANCH   6  23
TORSDOF 6
ENDMDL
MODEL 8
REMARK VINA RESULT:      -7.6      1.452      1.620
REMARK  Name = 
REMARK  7 active torsions:
REMARK  status: ('A' for Active; 'I' for Inactive)
REMARK    1  A    between atoms: C_1  and  C_2
REMARK    2  A    between atoms: C_6  and  C_7
REMARK    3  A    between atoms: N_9  and  C_10
REMARK    4  A    between atoms: C_14  and  C_15
REMARK    5  A    between atoms: C_18  and  C_19
REMARK    6  A    between atoms: N_21  and  C_22
REMARK    7  A    between atoms: C_22  and  C_23
REMARK                            x       y       z     vdW  Elec       q    Type
REMARK                         _______ _______ _______ _____ _____    ______ ____
ROOT
ATOM      1  C   UNL     1       3.168   3.160  19.355  0.00  0.00    +0.000 C 
ATOM      2  C   UNL     1       2.701   4.565  19.642  0.00  0.00    +0.000 A 
ATOM      3  C   UNL     1       1.773   4.738  20.681  0.00  0.00    +0.000 A 
ATOM      4  F   UNL     1       1.315   3.675  21.357  0.00  0.00    +0.000 F 
ATOM      5  C   UNL     1       1.308   5.988  21.059  0.00  0.00    +0.000 A 
ATOM      6  C   UNL     1       1.756   7.115  20.380  0.00  0.00    +0.000 A 
ATOM      7  C   UNL     1       2.682   6.969  19.332  0.00  0.00    +0.000 A 
ATOM      8  C   UNL     1       3.172   5.698  18.928  0.00  0.00    +0.000 A 
ENDROOT
BRANCH   8   9
ATOM      9  C   UNL     1       4.120   5.600  17.784  0.00  0.00    +0.000 A 
ATOM     10  C   UNL     1       4.575   6.707  17.068  0.00  0.00    +0.000 A 
ATOM     11  C   UNL     1       5.424   6.529  15.968  0.00  0.00    +0.000 A 
ATOM     12  C   UNL     1       5.826   5.244  15.604  0.00  0.00    +0.000 A 
ATOM     13  C   UNL     1       5.351   4.198  16.379  0.00  0.00    +0.000 A 
ATOM     14  N   UNL     1       4.509   4.350  17.434  0.00  0.00    +0.000 NA
BRANCH  12  15
ATOM     15  C   UNL     1       6.707   4.923  14.450  0.00  0.00    +0.000 C 
ATOM     16  O   UNL     1       7.795   5.484  14.338  0.00  0.00    +0.000 OA
ATOM     17  N   UNL     1       6.260   3.989  13.546  0.00  0.00    +0.000 N 
ATOM     18  H   UNL     1       5.353   3.558  13.630  0.00  0.00    +0.000 HD
BRANCH  17  19
ATOM     19  C   UNL     1       7.054   3.638  12.393  0.00  0.00    +0.000 C 
BRANCH  19  20
ATOM     20  C   UNL     1       6.161   3.139  11.302  0.00  0.00    +0.000 C 
ATOM     21  C   UNL     1       5.626   1.726  11.319  0.00  0.00    +0.000 C 
ATOM     22  C   UNL     1       4.700   2.880  11.576  0.00  0.00    +0.000 C 
ENDBRANCH  19  20
ENDBRANCH  17  19
ENDBRANCH  12  15
ENDBRANCH   8   9
BRANCH   6  23
ATOM     23  C   UNL     1       1.294   8.477  20.773  0.00  0.00    +0.000 C 
ATOM     24  O   UNL     1       1.242   8.783  21.959  0.00  0.00    +0.000 OA
ATOM     25  N   UNL     1       0.956   9.323  19.730  0.00  0.00    +0.000 N 
ATOM     26  H   UNL     1       1.172   9.053  18.780  0.00  0.00    +0.000 HD
BRANCH  25  27
ATOM     27  C   UNL     1       0.462  10.647  19.943  0.00  0.00    +0.000 C 
ATOM     28  C   UNL     1       1.236  11.827  19.426  0.00  0.00    +0.000 C 
ATOM     29  C   UNL     1      -0.081  11.467  18.802  0.00  0.00    +0.000 C 
ENDBRANCH  25  27
ENDBRANCH   6  23
TORSDOF 6
ENDMDL
MODEL 9
REMARK VINA RESULT:      -7.6      4.645      7.387
REMARK  Name = 
REMARK  7 active torsions:
REMARK  status: ('A' for Active; 'I' for Inactive)
REMARK    1  A    between atoms: C_1  and  C_2
REMARK    2  A    between atoms: C_6  and  C_7
REMARK    3  A    between atoms: N_9  and  C_10
REMARK    4  A    between atoms: C_14  and  C_15
REMARK    5  A    between atoms: C_18  and  C_19
REMARK    6  A    between atoms: N_21  and  C_22
REMARK    7  A    between atoms: C_22  and  C_23
REMARK                            x       y       z     vdW  Elec       q    Type
REMARK                         _______ _______ _______ _____ _____    ______ ____
ROOT
ATOM      1  C   UNL     1       1.288  11.932  20.739  0.00  0.00    +0.000 C 
ATOM      2  C   UNL     1       0.035  11.712  19.930  0.00  0.00    +0.000 A 
ATOM      3  C   UNL     1      -0.961  12.700  19.998  0.00  0.00    +0.000 A 
ATOM      4  F   UNL     1      -0.789  13.774  20.782  0.00  0.00    +0.000 F 
ATOM      5  C   UNL     1      -2.134  12.621  19.264  0.00  0.00    +0.000 A 
ATOM      6  C   UNL     1      -2.352  11.522  18.443  0.00  0.00    +0.000 A 
ATOM      7  C   UNL     1      -1.373  10.516  18.360  0.00  0.00    +0.000 A 
ATOM      8  C   UNL     1      -0.163  10.575  19.103  0.00  0.00    +0.000 A 
ENDROOT
BRANCH   8   9
ATOM      9  C   UNL     1       0.820   9.460  19.008  0.00  0.00    +0.000 A 
ATOM     10  C   UNL     1       1.556   9.183  17.857  0.00  0.00    +0.000 A 
ATOM     11  C   UNL     1       2.422   8.083  17.827  0.00  0.00    +0.000 A 
ATOM     12  C   UNL     1       2.558   7.277  18.956  0.00  0.00    +0.000 A 
ATOM     13  C   UNL     1       1.811   7.631  20.069  0.00  0.00    +0.000 A 
ATOM     14  N   UNL     1       0.950   8.681  20.109  0.00  0.00    +0.000 NA
BRANCH  12  15
ATOM     15  C   UNL     1       3.427   6.074  19.044  0.00  0.00    +0.000 C 
ATOM     16  O   UNL     1       3.392   5.367  20.050  0.00  0.00    +0.000 OA
ATOM     17  N   UNL     1       4.242   5.795  17.972  0.00  0.00    +0.000 N 
ATOM     18  H   UNL     1       4.285   6.398  17.166  0.00  0.00    +0.000 HD
BRANCH  17  19
ATOM     19  C   UNL     1       5.123   4.652  17.992  0.00  0.00    +0.000 C 
BRANCH  19  20
ATOM     20  C   UNL     1       6.490   5.082  18.418  0.00  0.00    +0.000 C 
ATOM     21  C   UNL     1       7.720   4.628  17.665  0.00  0.00    +0.000 C 
ATOM     22  C   UNL     1       7.275   6.060  17.580  0.00  0.00    +0.000 C 
ENDBRANCH  19  20
ENDBRANCH  17  19
ENDBRANCH  12  15
ENDBRANCH   8   9
BRANCH   6  23
ATOM     23  C   UNL     1      -3.592  11.414  17.622  0.00  0.00    +0.000 C 
ATOM     24  O   UNL     1      -3.601  10.702  16.625  0.00  0.00    +0.000 OA
ATOM     25  N   UNL     1      -4.677  12.148  18.071  0.00  0.00    +0.000 N 
ATOM     26  H   UNL     1      -4.640  12.585  18.982  0.00  0.00    +0.000 HD
BRANCH  25  27
ATOM     27  C   UNL     1      -5.925  12.179  17.377  0.00  0.00    +0.000 C 
ATOM     28  C   UNL     1      -7.184  12.536  18.115  0.00  0.00    +0.000 C 
ATOM     29  C   UNL     1      -6.625  13.482  17.092  0.00  0.00    +0.000 C 
ENDBRANCH  25  27
ENDBRANCH   6  23
TORSDOF 6
ENDMDL
