MODEL 1
REMARK VINA RESULT:      -6.7      0.000      0.000
REMARK  Name = 
REMARK  8 active torsions:
REMARK  status: ('A' for Active; 'I' for Inactive)
REMARK    1  A    between atoms: C_1  and  C_2
REMARK    2  A    between atoms: C_2  and  N_3
REMARK    3  A    between atoms: C_2  and  C_13
REMARK    4  A    between atoms: N_3  and  C_4
REMARK    5  A    between atoms: C_10  and  C_11
REMARK    6  A    between atoms: C_23  and  C_24
REMARK    7  A    between atoms: C_29  and  S_30
REMARK    8  A    between atoms: S_30  and  C_31
REMARK                            x       y       z     vdW  Elec       q    Type
REMARK                         _______ _______ _______ _____ _____    ______ ____
ROOT
ATOM      1  C   UNL     1      -0.865  12.141  21.032  0.00  0.00    +0.000 A 
ATOM      2  N   UNL     1       0.544  12.239  20.888  0.00  0.00    +0.000 NA
ATOM      3  C   UNL     1       1.001  13.197  20.132  0.00  0.00    +0.000 A 
ATOM      4  C   UNL     1       2.458  13.373  19.800  0.00  0.00    +0.000 A 
ATOM      5  C   UNL     1       2.873  14.465  19.130  0.00  0.00    +0.000 A 
ATOM      6  C   UNL     1       1.941  15.508  18.786  0.00  0.00    +0.000 A 
ATOM      7  C   UNL     1       0.641  15.332  19.050  0.00  0.00    +0.000 A 
ATOM      8  N   UNL     1       0.162  14.153  19.600  0.00  0.00    +0.000 N 
ATOM      9  C   UNL     1      -1.155  14.046  19.964  0.00  0.00    +0.000 A 
ATOM     10  O   UNL     1      -1.817  15.021  20.319  0.00  0.00    +0.000 OA
ATOM     11  C   UNL     1      -1.688  12.619  20.062  0.00  0.00    +0.000 A 
ENDROOT
BRANCH  11  12
ATOM     12  C   UNL     1      -3.169  12.374  19.854  0.00  0.00    +0.000 A 
ATOM     13  C   UNL     1      -4.038  12.903  20.832  0.00  0.00    +0.000 A 
ATOM     14  C   UNL     1      -5.431  12.778  20.778  0.00  0.00    +0.000 A 
ATOM     15  C   UNL     1      -6.035  12.129  19.722  0.00  0.00    +0.000 A 
ATOM     16  C   UNL     1      -5.237  11.617  18.713  0.00  0.00    +0.000 A 
ATOM     17  C   UNL     1      -3.821  11.725  18.759  0.00  0.00    +0.000 A 
BRANCH  17  18
ATOM     18  S   UNL     1      -3.025  10.942  17.351  0.00  0.00    +0.000 S 
ATOM     19  C   UNL     1      -4.174  11.031  16.015  0.00  0.00    +0.000 C 
ATOM     20  O   UNL     1      -1.855  11.727  17.031  0.00  0.00    +0.000 OA
ATOM     21  O   UNL     1      -2.878   9.519  17.649  0.00  0.00    +0.000 OA
ENDBRANCH  17  18
ENDBRANCH  11  12
BRANCH   1  23
ATOM     22  C   UNL     1      -0.929  10.523  23.036  0.00  0.00    +0.000 C 
ATOM     23  C   UNL     1      -1.417  11.845  22.465  0.00  0.00    +0.000 C 
BRANCH  23  24
ATOM     24  N   UNL     1      -1.045  12.995  23.310  0.00  0.00    +0.000 N 
ATOM     25  H   UNL     1      -0.545  12.666  24.139  0.00  0.00    +0.000 HD
BRANCH  24  26
ATOM     26  C   UNL     1      -1.732  14.119  23.692  0.00  0.00    +0.000 A 
ATOM     27  N   UNL     1      -0.988  15.219  23.448  0.00  0.00    +0.000 NA
ATOM     28  C   UNL     1      -1.527  16.421  23.689  0.00  0.00    +0.000 A 
ATOM     29  N   UNL     1      -2.754  16.646  24.156  0.00  0.00    +0.000 NA
ATOM     30  C   UNL     1      -3.496  15.557  24.391  0.00  0.00    +0.000 A 
ATOM     31  N   UNL     1      -4.744  15.863  24.942  0.00  0.00    +0.000 N 
ATOM     32  C   UNL     1      -3.030  14.248  24.175  0.00  0.00    +0.000 A 
ATOM     33  H   UNL     1      -4.844  16.878  24.935  0.00  0.00    +0.000 HD
ATOM     34  H   UNL     1      -5.535  15.407  24.499  0.00  0.00    +0.000 HD
BRANCH  32  35
ATOM     35  C   UNL     1      -3.909  13.154  24.389  0.00  0.00    +0.000 C 
ATOM     36  N   UNL     1      -4.677  12.295  24.557  0.00  0.00    +0.000 NA
ENDBRANCH  32  35
ENDBRANCH  24  26
ENDBRANCH  23  24
ENDBRANCH   1  23
TORSDOF 6
ENDMDL
MODEL 2
REMARK VINA RESULT:      -6.7      2.205      3.178
REMARK  Name = 
REMARK  8 active torsions:
REMARK  status: ('A' for Active; 'I' for Inactive)
REMARK    1  A    between atoms: C_1  and  C_2
REMARK    2  A    between atoms: C_2  and  N_3
REMARK    3  A    between atoms: C_2  and  C_13
REMARK    4  A    between atoms: N_3  and  C_4
REMARK    5  A    between atoms: C_10  and  C_11
REMARK    6  A    between atoms: C_23  and  C_24
REMARK    7  A    between atoms: C_29  and  S_30
REMARK    8  A    between atoms: S_30  and  C_31
REMARK                            x       y       z     vdW  Elec       q    Type
REMARK                         _______ _______ _______ _____ _____    ______ ____
ROOT
ATOM      1  C   UNL     1      -0.336  12.295  21.492  0.00  0.00    +0.000 A 
ATOM      2  N   UNL     1       0.493  13.211  22.191  0.00  0.00    +0.000 NA
ATOM      3  C   UNL     1       0.477  14.452  21.795  0.00  0.00    +0.000 A 
ATOM      4  C   UNL     1       1.370  15.521  22.365  0.00  0.00    +0.000 A 
ATOM      5  C   UNL     1       1.200  16.807  22.008  0.00  0.00    +0.000 A 
ATOM      6  C   UNL     1       0.121  17.186  21.132  0.00  0.00    +0.000 A 
ATOM      7  C   UNL     1      -0.648  16.230  20.598  0.00  0.00    +0.000 A 
ATOM      8  N   UNL     1      -0.403  14.885  20.826  0.00  0.00    +0.000 N 
ATOM      9  C   UNL     1      -1.275  13.936  20.358  0.00  0.00    +0.000 A 
ATOM     10  O   UNL     1      -2.475  14.165  20.211  0.00  0.00    +0.000 OA
ATOM     11  C   UNL     1      -0.687  12.536  20.201  0.00  0.00    +0.000 A 
ENDROOT
BRANCH  11  12
ATOM     12  C   UNL     1      -1.298  11.595  19.181  0.00  0.00    +0.000 A 
ATOM     13  C   UNL     1      -2.666  11.785  18.891  0.00  0.00    +0.000 A 
ATOM     14  C   UNL     1      -3.374  11.011  17.963  0.00  0.00    +0.000 A 
ATOM     15  C   UNL     1      -2.739  10.013  17.255  0.00  0.00    +0.000 A 
ATOM     16  C   UNL     1      -1.388   9.802  17.471  0.00  0.00    +0.000 A 
ATOM     17  C   UNL     1      -0.658  10.568  18.418  0.00  0.00    +0.000 A 
BRANCH  17  18
ATOM     18  S   UNL     1       1.062  10.063  18.534  0.00  0.00    +0.000 S 
ATOM     19  C   UNL     1       2.028  11.527  18.335  0.00  0.00    +0.000 C 
ATOM     20  O   UNL     1       1.263   9.534  19.863  0.00  0.00    +0.000 OA
ATOM     21  O   UNL     1       1.368   9.230  17.374  0.00  0.00    +0.000 OA
ENDBRANCH  17  18
ENDBRANCH  11  12
BRANCH   1  23
ATOM     22  C   UNL     1      -0.266  10.108  22.851  0.00  0.00    +0.000 C 
ATOM     23  C   UNL     1      -1.130  11.254  22.347  0.00  0.00    +0.000 C 
BRANCH  23  24
ATOM     24  N   UNL     1      -1.768  12.003  23.445  0.00  0.00    +0.000 N 
ATOM     25  H   UNL     1      -1.907  11.386  24.249  0.00  0.00    +0.000 HD
BRANCH  24  26
ATOM     26  C   UNL     1      -2.800  12.906  23.466  0.00  0.00    +0.000 A 
ATOM     27  N   UNL     1      -3.916  12.342  22.957  0.00  0.00    +0.000 NA
ATOM     28  C   UNL     1      -5.052  13.051  22.965  0.00  0.00    +0.000 A 
ATOM     29  N   UNL     1      -5.196  14.288  23.438  0.00  0.00    +0.000 NA
ATOM     30  C   UNL     1      -4.092  14.847  23.952  0.00  0.00    +0.000 A 
ATOM     31  N   UNL     1      -4.298  16.165  24.368  0.00  0.00    +0.000 N 
ATOM     32  C   UNL     1      -2.848  14.193  23.992  0.00  0.00    +0.000 A 
ATOM     33  H   UNL     1      -5.295  16.364  24.281  0.00  0.00    +0.000 HD
ATOM     34  H   UNL     1      -3.954  16.384  25.297  0.00  0.00    +0.000 HD
BRANCH  32  35
ATOM     35  C   UNL     1      -1.746  14.836  24.616  0.00  0.00    +0.000 C 
ATOM     36  N   UNL     1      -0.879  15.374  25.176  0.00  0.00    +0.000 NA
ENDBRANCH  32  35
ENDBRANCH  24  26
ENDBRANCH  23  24
ENDBRANCH   1  23
TORSDOF 6
ENDMDL
MODEL 3
REMARK VINA RESULT:      -6.6      2.333      3.332
REMARK  Name = 
REMARK  8 active torsions:
REMARK  status: ('A' for Active; 'I' for Inactive)
REMARK    1  A    between atoms: C_1  and  C_2
REMARK    2  A    between atoms: C_2  and  N_3
REMARK    3  A    between atoms: C_2  and  C_13
REMARK    4  A    between atoms: N_3  and  C_4
REMARK    5  A    between atoms: C_10  and  C_11
REMARK    6  A    between atoms: C_23  and  C_24
REMARK    7  A    between atoms: C_29  and  S_30
REMARK    8  A    between atoms: S_30  and  C_31
REMARK                            x       y       z     vdW  Elec       q    Type
REMARK                         _______ _______ _______ _____ _____    ______ ____
ROOT
ATOM      1  C   UNL     1      -0.876  12.489  21.814  0.00  0.00    +0.000 A 
ATOM      2  N   UNL     1      -0.142  13.426  22.588  0.00  0.00    +0.000 NA
ATOM      3  C   UNL     1      -0.196  14.675  22.222  0.00  0.00    +0.000 A 
ATOM      4  C   UNL     1       0.602  15.771  22.876  0.00  0.00    +0.000 A 
ATOM      5  C   UNL     1       0.389  17.056  22.540  0.00  0.00    +0.000 A 
ATOM      6  C   UNL     1      -0.650  17.405  21.605  0.00  0.00    +0.000 A 
ATOM      7  C   UNL     1      -1.332  16.427  20.998  0.00  0.00    +0.000 A 
ATOM      8  N   UNL     1      -1.033  15.090  21.209  0.00  0.00    +0.000 N 
ATOM      9  C   UNL     1      -1.823  14.112  20.662  0.00  0.00    +0.000 A 
ATOM     10  O   UNL     1      -3.022  14.285  20.442  0.00  0.00    +0.000 OA
ATOM     11  C   UNL     1      -1.156  12.748  20.509  0.00  0.00    +0.000 A 
ENDROOT
BRANCH  11  12
ATOM     12  C   UNL     1      -1.650  11.806  19.429  0.00  0.00    +0.000 A 
ATOM     13  C   UNL     1      -3.010  11.919  19.071  0.00  0.00    +0.000 A 
ATOM     14  C   UNL     1      -3.618  11.136  18.082  0.00  0.00    +0.000 A 
ATOM     15  C   UNL     1      -2.883  10.204  17.379  0.00  0.00    +0.000 A 
ATOM     16  C   UNL     1      -1.534  10.071  17.662  0.00  0.00    +0.000 A 
ATOM     17  C   UNL     1      -0.906  10.849  18.670  0.00  0.00    +0.000 A 
BRANCH  17  18
ATOM     18  S   UNL     1       0.835  10.449  18.864  0.00  0.00    +0.000 S 
ATOM     19  C   UNL     1       0.968   9.498  20.344  0.00  0.00    +0.000 C 
ATOM     20  O   UNL     1       1.213   9.631  17.733  0.00  0.00    +0.000 OA
ATOM     21  O   UNL     1       1.557  11.691  19.127  0.00  0.00    +0.000 OA
ENDBRANCH  17  18
ENDBRANCH  11  12
BRANCH   1  23
ATOM     22  C   UNL     1      -0.774  10.301  23.170  0.00  0.00    +0.000 C 
ATOM     23  C   UNL     1      -1.668  11.386  22.590  0.00  0.00    +0.000 C 
BRANCH  23  24
ATOM     24  N   UNL     1      -2.457  12.079  23.625  0.00  0.00    +0.000 N 
ATOM     25  H   UNL     1      -2.656  11.435  24.395  0.00  0.00    +0.000 HD
BRANCH  24  26
ATOM     26  C   UNL     1      -3.525  12.935  23.551  0.00  0.00    +0.000 A 
ATOM     27  N   UNL     1      -4.522  12.367  22.840  0.00  0.00    +0.000 NA
ATOM     28  C   UNL     1      -5.681  13.029  22.723  0.00  0.00    +0.000 A 
ATOM     29  N   UNL     1      -5.956  14.220  23.252  0.00  0.00    +0.000 NA
ATOM     30  C   UNL     1      -4.971  14.782  23.965  0.00  0.00    +0.000 A 
ATOM     31  N   UNL     1      -5.303  16.057  24.433  0.00  0.00    +0.000 N 
ATOM     32  C   UNL     1      -3.715  14.176  24.149  0.00  0.00    +0.000 A 
ATOM     33  H   UNL     1      -6.284  16.221  24.209  0.00  0.00    +0.000 HD
ATOM     34  H   UNL     1      -5.112  16.219  25.416  0.00  0.00    +0.000 HD
BRANCH  32  35
ATOM     35  C   UNL     1      -2.752  14.814  24.976  0.00  0.00    +0.000 C 
ATOM     36  N   UNL     1      -1.982  15.301  25.699  0.00  0.00    +0.000 NA
ENDBRANCH  32  35
ENDBRANCH  24  26
ENDBRANCH  23  24
ENDBRANCH   1  23
TORSDOF 6
ENDMDL
MODEL 4
REMARK VINA RESULT:      -6.5      3.333      6.368
REMARK  Name = 
REMARK  8 active torsions:
REMARK  status: ('A' for Active; 'I' for Inactive)
REMARK    1  A    between atoms: C_1  and  C_2
REMARK    2  A    between atoms: C_2  and  N_3
REMARK    3  A    between atoms: C_2  and  C_13
REMARK    4  A    between atoms: N_3  and  C_4
REMARK    5  A    between atoms: C_10  and  C_11
REMARK    6  A    between atoms: C_23  and  C_24
REMARK    7  A    between atoms: C_29  and  S_30
REMARK    8  A    between atoms: S_30  and  C_31
REMARK                            x       y       z     vdW  Elec       q    Type
REMARK                         _______ _______ _______ _____ _____    ______ ____
ROOT
ATOM      1  C   UNL     1      -2.278  13.772  20.970  0.00  0.00    +0.000 A 
ATOM      2  N   UNL     1      -1.902  13.058  19.803  0.00  0.00    +0.000 NA
ATOM      3  C   UNL     1      -1.153  12.004  19.963  0.00  0.00    +0.000 A 
ATOM      4  C   UNL     1      -0.590  11.200  18.822  0.00  0.00    +0.000 A 
ATOM      5  C   UNL     1       0.057  10.044  19.063  0.00  0.00    +0.000 A 
ATOM      6  C   UNL     1       0.156   9.528  20.404  0.00  0.00    +0.000 A 
ATOM      7  C   UNL     1      -0.313  10.262  21.419  0.00  0.00    +0.000 A 
ATOM      8  N   UNL     1      -0.847  11.526  21.219  0.00  0.00    +0.000 N 
ATOM      9  C   UNL     1      -1.422  12.204  22.262  0.00  0.00    +0.000 A 
ATOM     10  O   UNL     1      -1.958  11.623  23.205  0.00  0.00    +0.000 OA
ATOM     11  C   UNL     1      -1.503  13.719  22.086  0.00  0.00    +0.000 A 
ENDROOT
BRANCH  11  12
ATOM     12  C   UNL     1      -1.534  14.599  23.318  0.00  0.00    +0.000 A 
ATOM     13  C   UNL     1      -2.528  14.306  24.276  0.00  0.00    +0.000 A 
ATOM     14  C   UNL     1      -2.681  15.014  25.474  0.00  0.00    +0.000 A 
ATOM     15  C   UNL     1      -1.825  16.049  25.790  0.00  0.00    +0.000 A 
ATOM     16  C   UNL     1      -0.807  16.362  24.905  0.00  0.00    +0.000 A 
ATOM     17  C   UNL     1      -0.647  15.662  23.679  0.00  0.00    +0.000 A 
BRANCH  17  18
ATOM     18  S   UNL     1       0.720  16.294  22.699  0.00  0.00    +0.000 S 
ATOM     19  C   UNL     1       1.368  17.679  23.580  0.00  0.00    +0.000 C 
ATOM     20  O   UNL     1       1.720  15.253  22.640  0.00  0.00    +0.000 OA
ATOM     21  O   UNL     1       0.174  16.838  21.459  0.00  0.00    +0.000 OA
ENDBRANCH  17  18
ENDBRANCH  11  12
BRANCH   1  23
ATOM     22  C   UNL     1      -3.901  15.768  20.849  0.00  0.00    +0.000 C 
ATOM     23  C   UNL     1      -3.758  14.269  21.058  0.00  0.00    +0.000 C 
BRANCH  23  24
ATOM     24  N   UNL     1      -4.528  13.487  20.073  0.00  0.00    +0.000 N 
ATOM     25  H   UNL     1      -4.876  14.107  19.337  0.00  0.00    +0.000 HD
BRANCH  24  26
ATOM     26  C   UNL     1      -5.459  12.490  20.213  0.00  0.00    +0.000 A 
ATOM     27  N   UNL     1      -6.118  12.636  21.382  0.00  0.00    +0.000 NA
ATOM     28  C   UNL     1      -7.122  11.794  21.659  0.00  0.00    +0.000 A 
ATOM     29  N   UNL     1      -7.548  10.803  20.877  0.00  0.00    +0.000 NA
ATOM     30  C   UNL     1      -6.901  10.661  19.713  0.00  0.00    +0.000 A 
ATOM     31  N   UNL     1      -7.352   9.564  18.974  0.00  0.00    +0.000 N 
ATOM     32  C   UNL     1      -5.832  11.489  19.322  0.00  0.00    +0.000 A 
ATOM     33  H   UNL     1      -8.165   9.181  19.457  0.00  0.00    +0.000 HD
ATOM     34  H   UNL     1      -7.553   9.754  17.998  0.00  0.00    +0.000 HD
BRANCH  32  35
ATOM     35  C   UNL     1      -5.248  11.309  18.041  0.00  0.00    +0.000 C 
ATOM     36  N   UNL     1      -4.794  11.105  16.989  0.00  0.00    +0.000 NA
ENDBRANCH  32  35
ENDBRANCH  24  26
ENDBRANCH  23  24
ENDBRANCH   1  23
TORSDOF 6
ENDMDL
MODEL 5
REMARK VINA RESULT:      -6.5      3.115      6.823
REMARK  Name = 
REMARK  8 active torsions:
REMARK  status: ('A' for Active; 'I' for Inactive)
REMARK    1  A    between atoms: C_1  and  C_2
REMARK    2  A    between atoms: C_2  and  N_3
REMARK    3  A    between atoms: C_2  and  C_13
REMARK    4  A    between atoms: N_3  and  C_4
REMARK    5  A    between atoms: C_10  and  C_11
REMARK    6  A    between atoms: C_23  and  C_24
REMARK    7  A    between atoms: C_29  and  S_30
REMARK    8  A    between atoms: S_30  and  C_31
REMARK                            x       y       z     vdW  Elec       q    Type
REMARK                         _______ _______ _______ _____ _____    ______ ____
ROOT
ATOM      1  C   UNL     1      -0.158  11.679  20.671  0.00  0.00    +0.000 A 
ATOM      2  N   UNL     1      -1.060  11.272  21.688  0.00  0.00    +0.000 NA
ATOM      3  C   UNL     1      -1.760  12.202  22.273  0.00  0.00    +0.000 A 
ATOM      4  C   UNL     1      -2.684  11.945  23.433  0.00  0.00    +0.000 A 
ATOM      5  C   UNL     1      -3.481  12.926  23.894  0.00  0.00    +0.000 A 
ATOM      6  C   UNL     1      -3.511  14.210  23.242  0.00  0.00    +0.000 A 
ATOM      7  C   UNL     1      -2.663  14.447  22.235  0.00  0.00    +0.000 A 
ATOM      8  N   UNL     1      -1.724  13.508  21.835  0.00  0.00    +0.000 N 
ATOM      9  C   UNL     1      -0.948  13.736  20.729  0.00  0.00    +0.000 A 
ATOM     10  O   UNL     1      -1.337  14.425  19.786  0.00  0.00    +0.000 OA
ATOM     11  C   UNL     1       0.353  12.939  20.673  0.00  0.00    +0.000 A 
ENDROOT
BRANCH  11  12
ATOM     12  C   UNL     1       1.524  13.501  19.892  0.00  0.00    +0.000 A 
ATOM     13  C   UNL     1       1.869  12.825  18.702  0.00  0.00    +0.000 A 
ATOM     14  C   UNL     1       2.914  13.224  17.860  0.00  0.00    +0.000 A 
ATOM     15  C   UNL     1       3.661  14.346  18.156  0.00  0.00    +0.000 A 
ATOM     16  C   UNL     1       3.347  15.071  19.292  0.00  0.00    +0.000 A 
ATOM     17  C   UNL     1       2.300  14.672  20.164  0.00  0.00    +0.000 A 
BRANCH  17  18
ATOM     18  S   UNL     1       2.132  15.761  21.583  0.00  0.00    +0.000 S 
ATOM     19  C   UNL     1       0.835  16.892  21.194  0.00  0.00    +0.000 C 
ATOM     20  O   UNL     1       1.733  14.942  22.705  0.00  0.00    +0.000 OA
ATOM     21  O   UNL     1       3.345  16.570  21.678  0.00  0.00    +0.000 OA
ENDBRANCH  17  18
ENDBRANCH  11  12
BRANCH   1  23
ATOM     22  C   UNL     1       0.867   9.628  19.498  0.00  0.00    +0.000 C 
ATOM     23  C   UNL     1      -0.093  10.801  19.378  0.00  0.00    +0.000 C 
BRANCH  23  24
ATOM     24  N   UNL     1      -1.473  10.372  19.086  0.00  0.00    +0.000 N 
ATOM     25  H   UNL     1      -1.573   9.373  19.285  0.00  0.00    +0.000 HD
BRANCH  24  26
ATOM     26  C   UNL     1      -2.323  10.647  18.046  0.00  0.00    +0.000 A 
ATOM     27  N   UNL     1      -1.892  10.032  16.924  0.00  0.00    +0.000 NA
ATOM     28  C   UNL     1      -2.639  10.125  15.817  0.00  0.00    +0.000 A 
ATOM     29  N   UNL     1      -3.795  10.778  15.708  0.00  0.00    +0.000 NA
ATOM     30  C   UNL     1      -4.229  11.382  16.822  0.00  0.00    +0.000 A 
ATOM     31  N   UNL     1      -5.410  12.103  16.620  0.00  0.00    +0.000 N 
ATOM     32  C   UNL     1      -3.523  11.350  18.038  0.00  0.00    +0.000 A 
ATOM     33  H   UNL     1      -5.733  11.906  15.673  0.00  0.00    +0.000 HD
ATOM     34  H   UNL     1      -6.139  11.937  17.306  0.00  0.00    +0.000 HD
BRANCH  32  35
ATOM     35  C   UNL     1      -4.091  11.963  19.186  0.00  0.00    +0.000 C 
ATOM     36  N   UNL     1      -4.598  12.491  20.091  0.00  0.00    +0.000 NA
ENDBRANCH  32  35
ENDBRANCH  24  26
ENDBRANCH  23  24
ENDBRANCH   1  23
TORSDOF 6
ENDMDL
MODEL 6
REMARK VINA RESULT:      -6.5      3.120      6.753
REMARK  Name = 
REMARK  8 active torsions:
REMARK  status: ('A' for Active; 'I' for Inactive)
REMARK    1  A    between atoms: C_1  and  C_2
REMARK    2  A    between atoms: C_2  and  N_3
REMARK    3  A    between atoms: C_2  and  C_13
REMARK    4  A    between atoms: N_3  and  C_4
REMARK    5  A    between atoms: C_10  and  C_11
REMARK    6  A    between atoms: C_23  and  C_24
REMARK    7  A    between atoms: C_29  and  S_30
REMARK    8  A    between atoms: S_30  and  C_31
REMARK                            x       y       z     vdW  Elec       q    Type
REMARK                         _______ _______ _______ _____ _____    ______ ____
ROOT
ATOM      1  C   UNL     1      -0.741  13.059  20.664  0.00  0.00    +0.000 A 
ATOM      2  N   UNL     1      -1.364  12.228  21.632  0.00  0.00    +0.000 NA
ATOM      3  C   UNL     1      -2.239  12.783  22.422  0.00  0.00    +0.000 A 
ATOM      4  C   UNL     1      -2.911  12.063  23.560  0.00  0.00    +0.000 A 
ATOM      5  C   UNL     1      -3.907  12.657  24.243  0.00  0.00    +0.000 A 
ATOM      6  C   UNL     1      -4.388  13.957  23.851  0.00  0.00    +0.000 A 
ATOM      7  C   UNL     1      -3.765  14.610  22.863  0.00  0.00    +0.000 A 
ATOM      8  N   UNL     1      -2.640  14.090  22.241  0.00  0.00    +0.000 N 
ATOM      9  C   UNL     1      -2.094  14.728  21.158  0.00  0.00    +0.000 A 
ATOM     10  O   UNL     1      -2.772  15.407  20.387  0.00  0.00    +0.000 OA
ATOM     11  C   UNL     1      -0.630  14.397  20.879  0.00  0.00    +0.000 A 
ENDROOT
BRANCH  11  12
ATOM     12  C   UNL     1       0.228  15.416  20.157  0.00  0.00    +0.000 A 
ATOM     13  C   UNL     1      -0.387  16.119  19.099  0.00  0.00    +0.000 A 
ATOM     14  C   UNL     1       0.262  17.103  18.343  0.00  0.00    +0.000 A 
ATOM     15  C   UNL     1       1.566  17.454  18.624  0.00  0.00    +0.000 A 
ATOM     16  C   UNL     1       2.212  16.823  19.674  0.00  0.00    +0.000 A 
ATOM     17  C   UNL     1       1.572  15.814  20.442  0.00  0.00    +0.000 A 
BRANCH  17  18
ATOM     18  S   UNL     1       2.644  15.131  21.711  0.00  0.00    +0.000 S 
ATOM     19  C   UNL     1       4.262  15.757  21.389  0.00  0.00    +0.000 C 
ATOM     20  O   UNL     1       2.178  15.638  22.981  0.00  0.00    +0.000 OA
ATOM     21  O   UNL     1       2.732  13.688  21.501  0.00  0.00    +0.000 OA
ENDBRANCH  17  18
ENDBRANCH  11  12
BRANCH   1  23
ATOM     22  C   UNL     1       0.796  11.823  19.008  0.00  0.00    +0.000 C 
ATOM     23  C   UNL     1      -0.562  12.471  19.226  0.00  0.00    +0.000 C 
BRANCH  23  24
ATOM     24  N   UNL     1      -1.677  11.530  19.010  0.00  0.00    +0.000 N 
ATOM     25  H   UNL     1      -1.344  10.569  19.127  0.00  0.00    +0.000 HD
BRANCH  24  26
ATOM     26  C   UNL     1      -2.675  11.483  18.071  0.00  0.00    +0.000 A 
ATOM     27  N   UNL     1      -2.186  11.014  16.903  0.00  0.00    +0.000 NA
ATOM     28  C   UNL     1      -3.035  10.827  15.884  0.00  0.00    +0.000 A 
ATOM     29  N   UNL     1      -4.346  11.062  15.908  0.00  0.00    +0.000 NA
ATOM     30  C   UNL     1      -4.835  11.519  17.069  0.00  0.00    +0.000 A 
ATOM     31  N   UNL     1      -6.201  11.806  17.003  0.00  0.00    +0.000 N 
ATOM     32  C   UNL     1      -4.033  11.752  18.200  0.00  0.00    +0.000 A 
ATOM     33  H   UNL     1      -6.540  11.490  16.094  0.00  0.00    +0.000 HD
ATOM     34  H   UNL     1      -6.758  11.428  17.762  0.00  0.00    +0.000 HD
BRANCH  32  35
ATOM     35  C   UNL     1      -4.646  12.175  19.409  0.00  0.00    +0.000 C 
ATOM     36  N   UNL     1      -5.200  12.534  20.368  0.00  0.00    +0.000 NA
ENDBRANCH  32  35
ENDBRANCH  24  26
ENDBRANCH  23  24
ENDBRANCH   1  23
TORSDOF 6
ENDMDL
MODEL 7
REMARK VINA RESULT:      -6.4      2.720      5.791
REMARK  Name = 
REMARK  8 active torsions:
REMARK  status: ('A' for Active; 'I' for Inactive)
REMARK    1  A    between atoms: C_1  and  C_2
REMARK    2  A    between atoms: C_2  and  N_3
REMARK    3  A    between atoms: C_2  and  C_13
REMARK    4  A    between atoms: N_3  and  C_4
REMARK    5  A    between atoms: C_10  and  C_11
REMARK    6  A    between atoms: C_23  and  C_24
REMARK    7  A    between atoms: C_29  and  S_30
REMARK    8  A    between atoms: S_30  and  C_31
REMARK                            x       y       z     vdW  Elec       q    Type
REMARK                         _______ _______ _______ _____ _____    ______ ____
ROOT
ATOM      1  C   UNL     1      -1.635  13.598  20.257  0.00  0.00    +0.000 A 
ATOM      2  N   UNL     1      -0.856  14.595  20.900  0.00  0.00    +0.000 NA
ATOM      3  C   UNL     1      -1.155  14.883  22.135  0.00  0.00    +0.000 A 
ATOM      4  C   UNL     1      -0.490  15.981  22.920  0.00  0.00    +0.000 A 
ATOM      5  C   UNL     1      -0.750  16.128  24.232  0.00  0.00    +0.000 A 
ATOM      6  C   UNL     1      -1.609  15.196  24.915  0.00  0.00    +0.000 A 
ATOM      7  C   UNL     1      -2.227  14.243  24.208  0.00  0.00    +0.000 A 
ATOM      8  N   UNL     1      -2.100  14.159  22.830  0.00  0.00    +0.000 N 
ATOM      9  C   UNL     1      -2.652  13.105  22.149  0.00  0.00    +0.000 A 
ATOM     10  O   UNL     1      -2.799  11.997  22.664  0.00  0.00    +0.000 OA
ATOM     11  C   UNL     1      -2.909  13.354  20.665  0.00  0.00    +0.000 A 
ENDROOT
BRANCH  11  12
ATOM     12  C   UNL     1      -4.006  12.574  19.970  0.00  0.00    +0.000 A 
ATOM     13  C   UNL     1      -3.625  11.827  18.836  0.00  0.00    +0.000 A 
ATOM     14  C   UNL     1      -4.514  11.042  18.092  0.00  0.00    +0.000 A 
ATOM     15  C   UNL     1      -5.840  10.945  18.461  0.00  0.00    +0.000 A 
ATOM     16  C   UNL     1      -6.267  11.630  19.586  0.00  0.00    +0.000 A 
ATOM     17  C   UNL     1      -5.381  12.441  20.344  0.00  0.00    +0.000 A 
BRANCH  17  18
ATOM     18  S   UNL     1      -6.198  13.250  21.724  0.00  0.00    +0.000 S 
ATOM     19  C   UNL     1      -7.916  13.301  21.327  0.00  0.00    +0.000 C 
ATOM     20  O   UNL     1      -5.999  12.414  22.887  0.00  0.00    +0.000 OA
ATOM     21  O   UNL     1      -5.760  14.643  21.756  0.00  0.00    +0.000 OA
ENDBRANCH  17  18
ENDBRANCH  11  12
BRANCH   1  23
ATOM     22  C   UNL     1      -0.471  13.104  18.013  0.00  0.00    +0.000 C 
ATOM     23  C   UNL     1      -0.874  12.556  19.373  0.00  0.00    +0.000 C 
BRANCH  23  24
ATOM     24  N   UNL     1       0.284  12.096  20.160  0.00  0.00    +0.000 N 
ATOM     25  H   UNL     1       1.147  12.463  19.751  0.00  0.00    +0.000 HD
BRANCH  24  26
ATOM     26  C   UNL     1       0.602  10.879  20.707  0.00  0.00    +0.000 A 
ATOM     27  N   UNL     1       0.247  10.853  22.010  0.00  0.00    +0.000 NA
ATOM     28  C   UNL     1       0.413   9.714  22.694  0.00  0.00    +0.000 A 
ATOM     29  N   UNL     1       0.904   8.575  22.207  0.00  0.00    +0.000 NA
ATOM     30  C   UNL     1       1.248   8.596  20.913  0.00  0.00    +0.000 A 
ATOM     31  N   UNL     1       1.817   7.392  20.487  0.00  0.00    +0.000 N 
ATOM     32  C   UNL     1       1.118   9.738  20.102  0.00  0.00    +0.000 A 
ATOM     33  H   UNL     1       1.734   6.724  21.253  0.00  0.00    +0.000 HD
ATOM     34  H   UNL     1       1.438   7.019  19.623  0.00  0.00    +0.000 HD
BRANCH  32  35
ATOM     35  C   UNL     1       1.447   9.651  18.724  0.00  0.00    +0.000 C 
ATOM     36  N   UNL     1       1.775   9.574  17.610  0.00  0.00    +0.000 NA
ENDBRANCH  32  35
ENDBRANCH  24  26
ENDBRANCH  23  24
ENDBRANCH   1  23
TORSDOF 6
ENDMDL
MODEL 8
REMARK VINA RESULT:      -6.3      2.046      2.714
REMARK  Name = 
REMARK  8 active torsions:
REMARK  status: ('A' for Active; 'I' for Inactive)
REMARK    1  A    between atoms: C_1  and  C_2
REMARK    2  A    between atoms: C_2  and  N_3
REMARK    3  A    between atoms: C_2  and  C_13
REMARK    4  A    between atoms: N_3  and  C_4
REMARK    5  A    between atoms: C_10  and  C_11
REMARK    6  A    between atoms: C_23  and  C_24
REMARK    7  A    between atoms: C_29  and  S_30
REMARK    8  A    between atoms: S_30  and  C_31
REMARK                            x       y       z     vdW  Elec       q    Type
REMARK                         _______ _______ _______ _____ _____    ______ ____
ROOT
ATOM      1  C   UNL     1       0.329  12.645  21.072  0.00  0.00    +0.000 A 
ATOM      2  N   UNL     1       1.428  13.340  21.640  0.00  0.00    +0.000 NA
ATOM      3  C   UNL     1       1.963  14.294  20.931  0.00  0.00    +0.000 A 
ATOM      4  C   UNL     1       3.191  15.056  21.349  0.00  0.00    +0.000 A 
ATOM      5  C   UNL     1       3.604  16.120  20.636  0.00  0.00    +0.000 A 
ATOM      6  C   UNL     1       2.838  16.584  19.508  0.00  0.00    +0.000 A 
ATOM      7  C   UNL     1       1.767  15.884  19.117  0.00  0.00    +0.000 A 
ATOM      8  N   UNL     1       1.405  14.698  19.737  0.00  0.00    +0.000 N 
ATOM      9  C   UNL     1       0.240  14.065  19.388  0.00  0.00    +0.000 A 
ATOM     10  O   UNL     1      -0.739  14.680  18.967  0.00  0.00    +0.000 OA
ATOM     11  C   UNL     1       0.186  12.576  19.721  0.00  0.00    +0.000 A 
ENDROOT
BRANCH  11  12
ATOM     12  C   UNL     1      -0.708  11.673  18.896  0.00  0.00    +0.000 A 
ATOM     13  C   UNL     1      -2.030  12.119  18.684  0.00  0.00    +0.000 A 
ATOM     14  C   UNL     1      -2.975  11.410  17.933  0.00  0.00    +0.000 A 
ATOM     15  C   UNL     1      -2.637  10.217  17.330  0.00  0.00    +0.000 A 
ATOM     16  C   UNL     1      -1.344   9.743  17.474  0.00  0.00    +0.000 A 
ATOM     17  C   UNL     1      -0.377  10.443  18.244  0.00  0.00    +0.000 A 
BRANCH  17  18
ATOM     18  S   UNL     1       1.204   9.592  18.304  0.00  0.00    +0.000 S 
ATOM     19  C   UNL     1       1.404   9.025  19.962  0.00  0.00    +0.000 C 
ATOM     20  O   UNL     1       1.110   8.455  17.416  0.00  0.00    +0.000 OA
ATOM     21  O   UNL     1       2.258  10.581  18.096  0.00  0.00    +0.000 OA
ENDBRANCH  17  18
ENDBRANCH  11  12
BRANCH   1  23
ATOM     22  C   UNL     1      -0.846  10.909  22.568  0.00  0.00    +0.000 C 
ATOM     23  C   UNL     1      -0.878  12.324  22.013  0.00  0.00    +0.000 C 
BRANCH  23  24
ATOM     24  N   UNL     1      -0.870  13.346  23.076  0.00  0.00    +0.000 N 
ATOM     25  H   UNL     1      -0.581  12.921  23.961  0.00  0.00    +0.000 HD
BRANCH  24  26
ATOM     26  C   UNL     1      -1.749  14.348  23.398  0.00  0.00    +0.000 A 
ATOM     27  N   UNL     1      -1.205  15.549  23.109  0.00  0.00    +0.000 NA
ATOM     28  C   UNL     1      -1.949  16.647  23.287  0.00  0.00    +0.000 A 
ATOM     29  N   UNL     1      -3.205  16.676  23.730  0.00  0.00    +0.000 NA
ATOM     30  C   UNL     1      -3.751  15.485  24.009  0.00  0.00    +0.000 A 
ATOM     31  N   UNL     1      -5.043  15.593  24.532  0.00  0.00    +0.000 N 
ATOM     32  C   UNL     1      -3.059  14.269  23.861  0.00  0.00    +0.000 A 
ATOM     33  H   UNL     1      -5.318  16.574  24.475  0.00  0.00    +0.000 HD
ATOM     34  H   UNL     1      -5.734  14.986  24.102  0.00  0.00    +0.000 HD
BRANCH  32  35
ATOM     35  C   UNL     1      -3.738  13.049  24.117  0.00  0.00    +0.000 C 
ATOM     36  N   UNL     1      -4.244  12.028  24.355  0.00  0.00    +0.000 NA
ENDBRANCH  32  35
ENDBRANCH  24  26
ENDBRANCH  23  24
ENDBRANCH   1  23
TORSDOF 6
ENDMDL
MODEL 9
REMARK VINA RESULT:      -6.3      3.534      6.008
REMARK  Name = 
REMARK  8 active torsions:
REMARK  status: ('A' for Active; 'I' for Inactive)
REMARK    1  A    between atoms: C_1  and  C_2
REMARK    2  A    between atoms: C_2  and  N_3
REMARK    3  A    between atoms: C_2  and  C_13
REMARK    4  A    between atoms: N_3  and  C_4
REMARK    5  A    between atoms: C_10  and  C_11
REMARK    6  A    between atoms: C_23  and  C_24
REMARK    7  A    between atoms: C_29  and  S_30
REMARK    8  A    between atoms: S_30  and  C_31
REMARK                            x       y       z     vdW  Elec       q    Type
REMARK                         _______ _______ _______ _____ _____    ______ ____
ROOT
ATOM      1  C   UNL     1      -0.789  13.639  19.738  0.00  0.00    +0.000 A 
ATOM      2  N   UNL     1      -0.034  14.349  18.769  0.00  0.00    +0.000 NA
ATOM      3  C   UNL     1       0.779  15.270  19.202  0.00  0.00    +0.000 A 
ATOM      4  C   UNL     1       1.572  16.176  18.299  0.00  0.00    +0.000 A 
ATOM      5  C   UNL     1       2.497  17.006  18.814  0.00  0.00    +0.000 A 
ATOM      6  C   UNL     1       2.788  16.989  20.225  0.00  0.00    +0.000 A 
ATOM      7  C   UNL     1       2.057  16.210  21.030  0.00  0.00    +0.000 A 
ATOM      8  N   UNL     1       0.996  15.458  20.551  0.00  0.00    +0.000 N 
ATOM      9  C   UNL     1       0.340  14.584  21.378  0.00  0.00    +0.000 A 
ATOM     10  O   UNL     1       0.900  14.035  22.328  0.00  0.00    +0.000 OA
ATOM     11  C   UNL     1      -1.073  14.209  20.939  0.00  0.00    +0.000 A 
ENDROOT
BRANCH  11  12
ATOM     12  C   UNL     1      -2.079  13.784  21.990  0.00  0.00    +0.000 A 
ATOM     13  C   UNL     1      -1.963  12.463  22.472  0.00  0.00    +0.000 A 
ATOM     14  C   UNL     1      -2.803  11.922  23.453  0.00  0.00    +0.000 A 
ATOM     15  C   UNL     1      -3.798  12.688  24.023  0.00  0.00    +0.000 A 
ATOM     16  C   UNL     1      -3.939  14.004  23.614  0.00  0.00    +0.000 A 
ATOM     17  C   UNL     1      -3.104  14.564  22.611  0.00  0.00    +0.000 A 
BRANCH  17  18
ATOM     18  S   UNL     1      -3.526  16.270  22.239  0.00  0.00    +0.000 S 
ATOM     19  C   UNL     1      -4.898  16.682  23.269  0.00  0.00    +0.000 C 
ATOM     20  O   UNL     1      -2.388  17.081  22.609  0.00  0.00    +0.000 OA
ATOM     21  O   UNL     1      -4.032  16.322  20.870  0.00  0.00    +0.000 OA
ENDBRANCH  17  18
ENDBRANCH  11  12
BRANCH   1  23
ATOM     22  C   UNL     1      -1.808  11.711  18.367  0.00  0.00    +0.000 C 
ATOM     23  C   UNL     1      -0.926  12.093  19.545  0.00  0.00    +0.000 C 
BRANCH  23  24
ATOM     24  N   UNL     1       0.443  11.557  19.420  0.00  0.00    +0.000 N 
ATOM     25  H   UNL     1       0.954  12.082  18.706  0.00  0.00    +0.000 HD
BRANCH  24  26
ATOM     26  C   UNL     1       0.931  10.277  19.385  0.00  0.00    +0.000 A 
ATOM     27  N   UNL     1       1.375   9.987  18.144  0.00  0.00    +0.000 NA
ATOM     28  C   UNL     1       1.959   8.800  17.934  0.00  0.00    +0.000 A 
ATOM     29  N   UNL     1       2.152   7.853  18.851  0.00  0.00    +0.000 NA
ATOM     30  C   UNL     1       1.720   8.141  20.086  0.00  0.00    +0.000 A 
ATOM     31  N   UNL     1       1.893   7.080  20.980  0.00  0.00    +0.000 N 
ATOM     32  C   UNL     1       1.092   9.356  20.415  0.00  0.00    +0.000 A 
ATOM     33  H   UNL     1       2.421   6.354  20.497  0.00  0.00    +0.000 HD
ATOM     34  H   UNL     1       2.321   7.328  21.865  0.00  0.00    +0.000 HD
BRANCH  32  35
ATOM     35  C   UNL     1       0.726   9.604  21.765  0.00  0.00    +0.000 C 
ATOM     36  N   UNL     1       0.436   9.747  22.883  0.00  0.00    +0.000 NA
ENDBRANCH  32  35
ENDBRANCH  24  26
ENDBRANCH  23  24
ENDBRANCH   1  23
TORSDOF 6
ENDMDL
