MODEL 1
REMARK VINA RESULT:      -7.7      0.000      0.000
REMARK  Name = 
REMARK  8 active torsions:
REMARK  status: ('A' for Active; 'I' for Inactive)
REMARK    1  A    between atoms: C_1  and  C_2
REMARK    2  A    between atoms: C_5  and  N_6
REMARK    3  A    between atoms: C_7  and  C_8
REMARK    4  A    between atoms: C_8  and  N_9
REMARK    5  A    between atoms: N_9  and  C_10
REMARK    6  A    between atoms: C_10  and  N_12
REMARK    7  A    between atoms: N_12  and  C_13
REMARK    8  A    between atoms: N_22  and  C_23
REMARK                            x       y       z     vdW  Elec       q    Type
REMARK                         _______ _______ _______ _____ _____    ______ ____
ROOT
ATOM      1  C   UNL     1       2.923   5.291  18.464  0.00  0.00    +0.000 C 
ATOM      2  S   UNL     1       1.633   4.420  17.866  0.00  0.00    +0.000 S 
ENDROOT
BRANCH   1   3
ATOM      3  N   UNL     1       3.922   4.821  19.275  0.00  0.00    +0.000 N 
ATOM      4  H   UNL     1       3.668   4.783  20.257  0.00  0.00    +0.000 HD
BRANCH   3   5
ATOM      5  C   UNL     1       4.896   3.789  18.942  0.00  0.00    +0.000 C 
BRANCH   5  11
ATOM      6  C   UNL     1       5.487   3.994  14.045  0.00  0.00    +0.000 C 
ATOM      7  C   UNL     1       6.006   4.239  15.427  0.00  0.00    +0.000 A 
ATOM      8  C   UNL     1       7.223   4.876  15.628  0.00  0.00    +0.000 A 
ATOM      9  N   UNL     1       7.720   5.153  16.854  0.00  0.00    +0.000 NA
ATOM     10  C   UNL     1       6.965   4.788  17.903  0.00  0.00    +0.000 A 
ATOM     11  C   UNL     1       5.725   4.157  17.727  0.00  0.00    +0.000 A 
ATOM     12  N   UNL     1       5.238   3.852  16.479  0.00  0.00    +0.000 NA
BRANCH  10  13
ATOM     13  N   UNL     1       7.480   5.118  19.157  0.00  0.00    +0.000 N 
ATOM     14  H   UNL     1       6.848   4.723  19.846  0.00  0.00    +0.000 HD
ATOM     15  H   UNL     1       7.589   6.117  19.280  0.00  0.00    +0.000 HD
ENDBRANCH  10  13
ENDBRANCH   5  11
ENDBRANCH   3   5
ENDBRANCH   1   3
BRANCH   1  16
ATOM     16  N   UNL     1       2.988   6.638  18.208  0.00  0.00    +0.000 N 
ATOM     17  H   UNL     1       3.674   6.909  17.512  0.00  0.00    +0.000 HD
BRANCH  16  18
ATOM     18  C   UNL     1       2.232   7.653  18.821  0.00  0.00    +0.000 A 
ATOM     19  C   UNL     1       1.833   8.757  18.036  0.00  0.00    +0.000 A 
ATOM     20  C   UNL     1       1.082   9.799  18.592  0.00  0.00    +0.000 A 
ATOM     21  C   UNL     1       0.800   9.722  19.939  0.00  0.00    +0.000 A 
ATOM     22  C   UNL     1       1.222   8.644  20.712  0.00  0.00    +0.000 A 
ATOM     23  C   UNL     1       1.932   7.595  20.187  0.00  0.00    +0.000 A 
ATOM     24  N   UNL     1       0.851   8.875  22.032  0.00  0.00    +0.000 N 
ATOM     25  C   UNL     1       0.199  10.115  22.104  0.00  0.00    +0.000 A 
ATOM     26  O   UNL     1      -0.207  10.641  23.126  0.00  0.00    +0.000 OA
ATOM     27  N   UNL     1       0.148  10.618  20.792  0.00  0.00    +0.000 N 
ATOM     28  C   UNL     1      -0.292  11.932  20.426  0.00  0.00    +0.000 C 
ATOM     29  H   UNL     1       1.068   8.309  22.836  0.00  0.00    +0.000 HD
ENDBRANCH  16  18
ENDBRANCH   1  16
TORSDOF 6
ENDMDL
MODEL 2
REMARK VINA RESULT:      -7.6      2.056      3.433
REMARK  Name = 
REMARK  8 active torsions:
REMARK  status: ('A' for Active; 'I' for Inactive)
REMARK    1  A    between atoms: C_1  and  C_2
REMARK    2  A    between atoms: C_5  and  N_6
REMARK    3  A    between atoms: C_7  and  C_8
REMARK    4  A    between atoms: C_8  and  N_9
REMARK    5  A    between atoms: N_9  and  C_10
REMARK    6  A    between atoms: C_10  and  N_12
REMARK    7  A    between atoms: N_12  and  C_13
REMARK    8  A    between atoms: N_22  and  C_23
REMARK                            x       y       z     vdW  Elec       q    Type
REMARK                         _______ _______ _______ _____ _____    ______ ____
ROOT
ATOM      1  C   UNL     1       4.457   6.227  17.919  0.00  0.00    +0.000 C 
ATOM      2  S   UNL     1       5.052   6.639  16.417  0.00  0.00    +0.000 S 
ENDROOT
BRANCH   1   3
ATOM      3  N   UNL     1       5.174   5.737  18.979  0.00  0.00    +0.000 N 
ATOM      4  H   UNL     1       5.080   6.288  19.826  0.00  0.00    +0.000 HD
BRANCH   3   5
ATOM      5  C   UNL     1       5.417   4.333  19.286  0.00  0.00    +0.000 C 
BRANCH   5  11
ATOM      6  C   UNL     1       1.206   2.876  21.412  0.00  0.00    +0.000 C 
ATOM      7  C   UNL     1       2.171   2.821  20.269  0.00  0.00    +0.000 A 
ATOM      8  C   UNL     1       1.884   2.081  19.130  0.00  0.00    +0.000 A 
ATOM      9  N   UNL     1       2.704   2.026  18.056  0.00  0.00    +0.000 NA
ATOM     10  C   UNL     1       3.835   2.746  18.130  0.00  0.00    +0.000 A 
ATOM     11  C   UNL     1       4.140   3.515  19.262  0.00  0.00    +0.000 A 
ATOM     12  N   UNL     1       3.318   3.544  20.362  0.00  0.00    +0.000 NA
BRANCH  10  13
ATOM     13  N   UNL     1       4.646   2.705  16.996  0.00  0.00    +0.000 N 
ATOM     14  H   UNL     1       5.481   2.187  17.252  0.00  0.00    +0.000 HD
ATOM     15  H   UNL     1       4.872   3.629  16.648  0.00  0.00    +0.000 HD
ENDBRANCH  10  13
ENDBRANCH   5  11
ENDBRANCH   3   5
ENDBRANCH   1   3
BRANCH   1  16
ATOM     16  N   UNL     1       3.103   6.292  18.137  0.00  0.00    +0.000 N 
ATOM     17  H   UNL     1       2.574   5.501  17.787  0.00  0.00    +0.000 HD
BRANCH  16  18
ATOM     18  C   UNL     1       2.395   7.335  18.760  0.00  0.00    +0.000 A 
ATOM     19  C   UNL     1       2.086   8.484  18.000  0.00  0.00    +0.000 A 
ATOM     20  C   UNL     1       1.386   9.555  18.568  0.00  0.00    +0.000 A 
ATOM     21  C   UNL     1       1.064   9.457  19.905  0.00  0.00    +0.000 A 
ATOM     22  C   UNL     1       1.398   8.333  20.655  0.00  0.00    +0.000 A 
ATOM     23  C   UNL     1       2.055   7.257  20.116  0.00  0.00    +0.000 A 
ATOM     24  N   UNL     1       1.007   8.549  21.971  0.00  0.00    +0.000 N 
ATOM     25  C   UNL     1       0.431   9.825  22.065  0.00  0.00    +0.000 A 
ATOM     26  O   UNL     1       0.032  10.346  23.092  0.00  0.00    +0.000 OA
ATOM     27  N   UNL     1       0.446  10.367  20.767  0.00  0.00    +0.000 N 
ATOM     28  C   UNL     1       0.098  11.716  20.430  0.00  0.00    +0.000 C 
ATOM     29  H   UNL     1       1.167   7.948  22.764  0.00  0.00    +0.000 HD
ENDBRANCH  16  18
ENDBRANCH   1  16
TORSDOF 6
ENDMDL
MODEL 3
REMARK VINA RESULT:      -7.5      1.905      3.252
REMARK  Name = 
REMARK  8 active torsions:
REMARK  status: ('A' for Active; 'I' for Inactive)
REMARK    1  A    between atoms: C_1  and  C_2
REMARK    2  A    between atoms: C_5  and  N_6
REMARK    3  A    between atoms: C_7  and  C_8
REMARK    4  A    between atoms: C_8  and  N_9
REMARK    5  A    between atoms: N_9  and  C_10
REMARK    6  A    between atoms: C_10  and  N_12
REMARK    7  A    between atoms: N_12  and  C_13
REMARK    8  A    between atoms: N_22  and  C_23
REMARK                            x       y       z     vdW  Elec       q    Type
REMARK                         _______ _______ _______ _____ _____    ______ ____
ROOT
ATOM      1  C   UNL     1       3.362   3.308  18.392  0.00  0.00    +0.000 C 
ATOM      2  S   UNL     1       1.847   2.629  18.242  0.00  0.00    +0.000 S 
ENDROOT
BRANCH   1   3
ATOM      3  N   UNL     1       4.472   3.006  17.647  0.00  0.00    +0.000 N 
ATOM      4  H   UNL     1       4.581   2.015  17.457  0.00  0.00    +0.000 HD
BRANCH   3   5
ATOM      5  C   UNL     1       5.042   3.814  16.575  0.00  0.00    +0.000 C 
BRANCH   5  11
ATOM      6  C   UNL     1       8.229   5.497  19.949  0.00  0.00    +0.000 C 
ATOM      7  C   UNL     1       7.432   5.702  18.699  0.00  0.00    +0.000 A 
ATOM      8  C   UNL     1       7.562   6.867  17.955  0.00  0.00    +0.000 A 
ATOM      9  N   UNL     1       6.894   7.087  16.801  0.00  0.00    +0.000 NA
ATOM     10  C   UNL     1       6.084   6.102  16.381  0.00  0.00    +0.000 A 
ATOM     11  C   UNL     1       5.948   4.909  17.105  0.00  0.00    +0.000 A 
ATOM     12  N   UNL     1       6.606   4.702  18.292  0.00  0.00    +0.000 NA
BRANCH  10  13
ATOM     13  N   UNL     1       5.434   6.335  15.169  0.00  0.00    +0.000 N 
ATOM     14  H   UNL     1       6.118   6.754  14.546  0.00  0.00    +0.000 HD
ATOM     15  H   UNL     1       4.616   6.922  15.275  0.00  0.00    +0.000 HD
ENDBRANCH  10  13
ENDBRANCH   5  11
ENDBRANCH   3   5
ENDBRANCH   1   3
BRANCH   1  16
ATOM     16  N   UNL     1       3.589   4.207  19.404  0.00  0.00    +0.000 N 
ATOM     17  H   UNL     1       4.270   3.912  20.095  0.00  0.00    +0.000 HD
BRANCH  16  18
ATOM     18  C   UNL     1       2.966   5.455  19.583  0.00  0.00    +0.000 A 
ATOM     19  C   UNL     1       2.180   5.651  20.740  0.00  0.00    +0.000 A 
ATOM     20  C   UNL     1       1.534   6.872  20.971  0.00  0.00    +0.000 A 
ATOM     21  C   UNL     1       1.658   7.841  19.999  0.00  0.00    +0.000 A 
ATOM     22  C   UNL     1       2.410   7.629  18.847  0.00  0.00    +0.000 A 
ATOM     23  C   UNL     1       3.078   6.456  18.611  0.00  0.00    +0.000 A 
ATOM     24  N   UNL     1       2.295   8.749  18.032  0.00  0.00    +0.000 N 
ATOM     25  C   UNL     1       1.452   9.678  18.660  0.00  0.00    +0.000 A 
ATOM     26  O   UNL     1       1.099  10.745  18.188  0.00  0.00    +0.000 OA
ATOM     27  N   UNL     1       1.086   9.113  19.896  0.00  0.00    +0.000 N 
ATOM     28  C   UNL     1       0.107   9.652  20.794  0.00  0.00    +0.000 C 
ATOM     29  H   UNL     1       2.672   8.873  17.106  0.00  0.00    +0.000 HD
ENDBRANCH  16  18
ENDBRANCH   1  16
TORSDOF 6
ENDMDL
MODEL 4
REMARK VINA RESULT:      -7.5      1.656      2.178
REMARK  Name = 
REMARK  8 active torsions:
REMARK  status: ('A' for Active; 'I' for Inactive)
REMARK    1  A    between atoms: C_1  and  C_2
REMARK    2  A    between atoms: C_5  and  N_6
REMARK    3  A    between atoms: C_7  and  C_8
REMARK    4  A    between atoms: C_8  and  N_9
REMARK    5  A    between atoms: N_9  and  C_10
REMARK    6  A    between atoms: C_10  and  N_12
REMARK    7  A    between atoms: N_12  and  C_13
REMARK    8  A    between atoms: N_22  and  C_23
REMARK                            x       y       z     vdW  Elec       q    Type
REMARK                         _______ _______ _______ _____ _____    ______ ____
ROOT
ATOM      1  C   UNL     1       2.421   5.505  19.638  0.00  0.00    +0.000 C 
ATOM      2  S   UNL     1       1.286   4.539  20.386  0.00  0.00    +0.000 S 
ENDROOT
BRANCH   1   3
ATOM      3  N   UNL     1       3.191   5.174  18.554  0.00  0.00    +0.000 N 
ATOM      4  H   UNL     1       3.618   5.974  18.097  0.00  0.00    +0.000 HD
BRANCH   3   5
ATOM      5  C   UNL     1       4.014   3.980  18.408  0.00  0.00    +0.000 C 
BRANCH   5  11
ATOM      6  C   UNL     1       5.921   3.977  13.854  0.00  0.00    +0.000 C 
ATOM      7  C   UNL     1       6.078   4.186  15.328  0.00  0.00    +0.000 A 
ATOM      8  C   UNL     1       7.271   4.661  15.856  0.00  0.00    +0.000 A 
ATOM      9  N   UNL     1       7.453   4.901  17.174  0.00  0.00    +0.000 NA
ATOM     10  C   UNL     1       6.401   4.667  17.976  0.00  0.00    +0.000 A 
ATOM     11  C   UNL     1       5.181   4.203  17.465  0.00  0.00    +0.000 A 
ATOM     12  N   UNL     1       5.010   3.933  16.129  0.00  0.00    +0.000 NA
BRANCH  10  13
ATOM     13  N   UNL     1       6.600   4.958  19.326  0.00  0.00    +0.000 N 
ATOM     14  H   UNL     1       5.688   5.174  19.717  0.00  0.00    +0.000 HD
ATOM     15  H   UNL     1       7.256   5.717  19.466  0.00  0.00    +0.000 HD
ENDBRANCH  10  13
ENDBRANCH   5  11
ENDBRANCH   3   5
ENDBRANCH   1   3
BRANCH   1  16
ATOM     16  N   UNL     1       2.704   6.735  20.178  0.00  0.00    +0.000 N 
ATOM     17  H   UNL     1       3.601   6.802  20.646  0.00  0.00    +0.000 HD
BRANCH  16  18
ATOM     18  C   UNL     1       1.880   7.874  20.165  0.00  0.00    +0.000 A 
ATOM     19  C   UNL     1       1.243   8.254  21.366  0.00  0.00    +0.000 A 
ATOM     20  C   UNL     1       0.410   9.378  21.414  0.00  0.00    +0.000 A 
ATOM     21  C   UNL     1       0.201  10.056  20.231  0.00  0.00    +0.000 A 
ATOM     22  C   UNL     1       0.810   9.657  19.045  0.00  0.00    +0.000 A 
ATOM     23  C   UNL     1       1.655   8.580  18.977  0.00  0.00    +0.000 A 
ATOM     24  N   UNL     1       0.363  10.484  18.020  0.00  0.00    +0.000 N 
ATOM     25  C   UNL     1      -0.548  11.408  18.554  0.00  0.00    +0.000 A 
ATOM     26  O   UNL     1      -1.166  12.241  17.913  0.00  0.00    +0.000 OA
ATOM     27  N   UNL     1      -0.618  11.150  19.935  0.00  0.00    +0.000 N 
ATOM     28  C   UNL     1      -1.545  11.756  20.844  0.00  0.00    +0.000 C 
ATOM     29  H   UNL     1       0.573  10.409  17.038  0.00  0.00    +0.000 HD
ENDBRANCH  16  18
ENDBRANCH   1  16
TORSDOF 6
ENDMDL
MODEL 5
REMARK VINA RESULT:      -7.5      1.056      1.406
REMARK  Name = 
REMARK  8 active torsions:
REMARK  status: ('A' for Active; 'I' for Inactive)
REMARK    1  A    between atoms: C_1  and  C_2
REMARK    2  A    between atoms: C_5  and  N_6
REMARK    3  A    between atoms: C_7  and  C_8
REMARK    4  A    between atoms: C_8  and  N_9
REMARK    5  A    between atoms: N_9  and  C_10
REMARK    6  A    between atoms: C_10  and  N_12
REMARK    7  A    between atoms: N_12  and  C_13
REMARK    8  A    between atoms: N_22  and  C_23
REMARK                            x       y       z     vdW  Elec       q    Type
REMARK                         _______ _______ _______ _____ _____    ______ ____
ROOT
ATOM      1  C   UNL     1       2.951   4.875  17.890  0.00  0.00    +0.000 C 
ATOM      2  S   UNL     1       1.613   4.231  18.648  0.00  0.00    +0.000 S 
ENDROOT
BRANCH   1   3
ATOM      3  N   UNL     1       3.747   4.253  16.964  0.00  0.00    +0.000 N 
ATOM      4  H   UNL     1       3.508   4.477  16.003  0.00  0.00    +0.000 HD
BRANCH   3   5
ATOM      5  C   UNL     1       5.168   3.959  17.101  0.00  0.00    +0.000 C 
BRANCH   5  11
ATOM      6  C   UNL     1       5.882   3.318  12.258  0.00  0.00    +0.000 C 
ATOM      7  C   UNL     1       6.280   3.944  13.558  0.00  0.00    +0.000 A 
ATOM      8  C   UNL     1       7.313   4.870  13.615  0.00  0.00    +0.000 A 
ATOM      9  N   UNL     1       7.688   5.491  14.756  0.00  0.00    +0.000 NA
ATOM     10  C   UNL     1       6.996   5.178  15.863  0.00  0.00    +0.000 A 
ATOM     11  C   UNL     1       5.938   4.258  15.829  0.00  0.00    +0.000 A 
ATOM     12  N   UNL     1       5.580   3.609  14.673  0.00  0.00    +0.000 NA
BRANCH  10  13
ATOM     13  N   UNL     1       7.376   5.858  17.020  0.00  0.00    +0.000 N 
ATOM     14  H   UNL     1       7.620   5.153  17.708  0.00  0.00    +0.000 HD
ATOM     15  H   UNL     1       6.650   6.478  17.361  0.00  0.00    +0.000 HD
ENDBRANCH  10  13
ENDBRANCH   5  11
ENDBRANCH   3   5
ENDBRANCH   1   3
BRANCH   1  16
ATOM     16  N   UNL     1       3.386   6.123  18.260  0.00  0.00    +0.000 N 
ATOM     17  H   UNL     1       4.388   6.265  18.196  0.00  0.00    +0.000 HD
BRANCH  16  18
ATOM     18  C   UNL     1       2.598   7.189  18.729  0.00  0.00    +0.000 A 
ATOM     19  C   UNL     1       2.198   8.183  17.809  0.00  0.00    +0.000 A 
ATOM     20  C   UNL     1       1.415   9.268  18.218  0.00  0.00    +0.000 A 
ATOM     21  C   UNL     1       1.103   9.348  19.559  0.00  0.00    +0.000 A 
ATOM     22  C   UNL     1       1.527   8.380  20.465  0.00  0.00    +0.000 A 
ATOM     23  C   UNL     1       2.267   7.290  20.086  0.00  0.00    +0.000 A 
ATOM     24  N   UNL     1       1.120   8.760  21.739  0.00  0.00    +0.000 N 
ATOM     25  C   UNL     1       0.445   9.986  21.648  0.00  0.00    +0.000 A 
ATOM     26  O   UNL     1       0.007  10.624  22.590  0.00  0.00    +0.000 OA
ATOM     27  N   UNL     1       0.416  10.327  20.283  0.00  0.00    +0.000 N 
ATOM     28  C   UNL     1      -0.039  11.578  19.752  0.00  0.00    +0.000 C 
ATOM     29  H   UNL     1       1.329   8.300  22.610  0.00  0.00    +0.000 HD
ENDBRANCH  16  18
ENDBRANCH   1  16
TORSDOF 6
ENDMDL
MODEL 6
REMARK VINA RESULT:      -7.5      1.187      1.815
REMARK  Name = 
REMARK  8 active torsions:
REMARK  status: ('A' for Active; 'I' for Inactive)
REMARK    1  A    between atoms: C_1  and  C_2
REMARK    2  A    between atoms: C_5  and  N_6
REMARK    3  A    between atoms: C_7  and  C_8
REMARK    4  A    between atoms: C_8  and  N_9
REMARK    5  A    between atoms: N_9  and  C_10
REMARK    6  A    between atoms: C_10  and  N_12
REMARK    7  A    between atoms: N_12  and  C_13
REMARK    8  A    between atoms: N_22  and  C_23
REMARK                            x       y       z     vdW  Elec       q    Type
REMARK                         _______ _______ _______ _____ _____    ______ ____
ROOT
ATOM      1  C   UNL     1       2.918   5.253  18.447  0.00  0.00    +0.000 C 
ATOM      2  S   UNL     1       1.600   4.422  17.854  0.00  0.00    +0.000 S 
ENDROOT
BRANCH   1   3
ATOM      3  N   UNL     1       3.892   4.760  19.275  0.00  0.00    +0.000 N 
ATOM      4  H   UNL     1       3.599   4.668  20.243  0.00  0.00    +0.000 HD
BRANCH   3   5
ATOM      5  C   UNL     1       4.899   3.763  18.931  0.00  0.00    +0.000 C 
BRANCH   5  11
ATOM      6  C   UNL     1       5.567   3.983  14.045  0.00  0.00    +0.000 C 
ATOM      7  C   UNL     1       6.044   4.266  15.435  0.00  0.00    +0.000 A 
ATOM      8  C   UNL     1       7.214   4.981  15.655  0.00  0.00    +0.000 A 
ATOM      9  N   UNL     1       7.670   5.294  16.888  0.00  0.00    +0.000 NA
ATOM     10  C   UNL     1       6.919   4.886  17.925  0.00  0.00    +0.000 A 
ATOM     11  C   UNL     1       5.726   4.178  17.729  0.00  0.00    +0.000 A 
ATOM     12  N   UNL     1       5.282   3.837  16.475  0.00  0.00    +0.000 NA
BRANCH  10  13
ATOM     13  N   UNL     1       7.389   5.254  19.186  0.00  0.00    +0.000 N 
ATOM     14  H   UNL     1       7.190   6.243  19.296  0.00  0.00    +0.000 HD
ATOM     15  H   UNL     1       8.375   5.055  19.305  0.00  0.00    +0.000 HD
ENDBRANCH  10  13
ENDBRANCH   5  11
ENDBRANCH   3   5
ENDBRANCH   1   3
BRANCH   1  16
ATOM     16  N   UNL     1       3.037   6.592  18.170  0.00  0.00    +0.000 N 
ATOM     17  H   UNL     1       3.751   6.828  17.491  0.00  0.00    +0.000 HD
BRANCH  16  18
ATOM     18  C   UNL     1       2.297   7.644  18.741  0.00  0.00    +0.000 A 
ATOM     19  C   UNL     1       1.968   7.565  20.112  0.00  0.00    +0.000 A 
ATOM     20  C   UNL     1       1.232   8.580  20.734  0.00  0.00    +0.000 A 
ATOM     21  C   UNL     1       0.803   9.622  19.939  0.00  0.00    +0.000 A 
ATOM     22  C   UNL     1       1.107   9.677  18.582  0.00  0.00    +0.000 A 
ATOM     23  C   UNL     1       1.852   8.713  17.955  0.00  0.00    +0.000 A 
ATOM     24  N   UNL     1       0.489  10.797  18.037  0.00  0.00    +0.000 N 
ATOM     25  C   UNL     1      -0.225  11.454  19.050  0.00  0.00    +0.000 A 
ATOM     26  O   UNL     1      -0.923  12.442  18.897  0.00  0.00    +0.000 OA
ATOM     27  N   UNL     1       0.002  10.729  20.235  0.00  0.00    +0.000 N 
ATOM     28  C   UNL     1      -0.663  10.956  21.484  0.00  0.00    +0.000 C 
ATOM     29  H   UNL     1       0.469  11.075  17.069  0.00  0.00    +0.000 HD
ENDBRANCH  16  18
ENDBRANCH   1  16
TORSDOF 6
ENDMDL
MODEL 7
REMARK VINA RESULT:      -7.4      1.039      1.120
REMARK  Name = 
REMARK  8 active torsions:
REMARK  status: ('A' for Active; 'I' for Inactive)
REMARK    1  A    between atoms: C_1  and  C_2
REMARK    2  A    between atoms: C_5  and  N_6
REMARK    3  A    between atoms: C_7  and  C_8
REMARK    4  A    between atoms: C_8  and  N_9
REMARK    5  A    between atoms: N_9  and  C_10
REMARK    6  A    between atoms: C_10  and  N_12
REMARK    7  A    between atoms: N_12  and  C_13
REMARK    8  A    between atoms: N_22  and  C_23
REMARK                            x       y       z     vdW  Elec       q    Type
REMARK                         _______ _______ _______ _____ _____    ______ ____
ROOT
ATOM      1  C   UNL     1       2.481   4.776  19.598  0.00  0.00    +0.000 C 
ATOM      2  S   UNL     1       1.076   4.110  20.201  0.00  0.00    +0.000 S 
ENDROOT
BRANCH   1   3
ATOM      3  N   UNL     1       3.368   4.180  18.741  0.00  0.00    +0.000 N 
ATOM      4  H   UNL     1       3.199   4.393  17.763  0.00  0.00    +0.000 HD
BRANCH   3   5
ATOM      5  C   UNL     1       4.784   3.938  18.991  0.00  0.00    +0.000 C 
BRANCH   5  11
ATOM      6  C   UNL     1       5.382   4.095  14.093  0.00  0.00    +0.000 C 
ATOM      7  C   UNL     1       5.921   4.297  15.475  0.00  0.00    +0.000 A 
ATOM      8  C   UNL     1       7.186   4.834  15.674  0.00  0.00    +0.000 A 
ATOM      9  N   UNL     1       7.706   5.069  16.899  0.00  0.00    +0.000 NA
ATOM     10  C   UNL     1       6.925   4.766  17.949  0.00  0.00    +0.000 A 
ATOM     11  C   UNL     1       5.638   4.238  17.775  0.00  0.00    +0.000 A 
ATOM     12  N   UNL     1       5.126   3.973  16.528  0.00  0.00    +0.000 NA
BRANCH  10  13
ATOM     13  N   UNL     1       7.467   5.053  19.202  0.00  0.00    +0.000 N 
ATOM     14  H   UNL     1       7.263   4.257  19.799  0.00  0.00    +0.000 HD
ATOM     15  H   UNL     1       7.105   5.915  19.592  0.00  0.00    +0.000 HD
ENDBRANCH  10  13
ENDBRANCH   5  11
ENDBRANCH   3   5
ENDBRANCH   1   3
BRANCH   1  16
ATOM     16  N   UNL     1       2.870   6.016  20.042  0.00  0.00    +0.000 N 
ATOM     17  H   UNL     1       3.751   6.035  20.543  0.00  0.00    +0.000 HD
BRANCH  16  18
ATOM     18  C   UNL     1       2.171   7.226  19.892  0.00  0.00    +0.000 A 
ATOM     19  C   UNL     1       2.270   7.910  18.661  0.00  0.00    +0.000 A 
ATOM     20  C   UNL     1       1.599   9.121  18.454  0.00  0.00    +0.000 A 
ATOM     21  C   UNL     1       0.887   9.634  19.518  0.00  0.00    +0.000 A 
ATOM     22  C   UNL     1       0.818   8.968  20.739  0.00  0.00    +0.000 A 
ATOM     23  C   UNL     1       1.440   7.766  20.957  0.00  0.00    +0.000 A 
ATOM     24  N   UNL     1       0.093   9.752  21.628  0.00  0.00    +0.000 N 
ATOM     25  C   UNL     1      -0.292  10.933  20.976  0.00  0.00    +0.000 A 
ATOM     26  O   UNL     1      -0.894  11.860  21.490  0.00  0.00    +0.000 OA
ATOM     27  N   UNL     1       0.183  10.834  19.656  0.00  0.00    +0.000 N 
ATOM     28  C   UNL     1       0.151  11.887  18.683  0.00  0.00    +0.000 C 
ATOM     29  H   UNL     1      -0.076   9.572  22.605  0.00  0.00    +0.000 HD
ENDBRANCH  16  18
ENDBRANCH   1  16
TORSDOF 6
ENDMDL
MODEL 8
REMARK VINA RESULT:      -7.4      3.105      8.188
REMARK  Name = 
REMARK  8 active torsions:
REMARK  status: ('A' for Active; 'I' for Inactive)
REMARK    1  A    between atoms: C_1  and  C_2
REMARK    2  A    between atoms: C_5  and  N_6
REMARK    3  A    between atoms: C_7  and  C_8
REMARK    4  A    between atoms: C_8  and  N_9
REMARK    5  A    between atoms: N_9  and  C_10
REMARK    6  A    between atoms: C_10  and  N_12
REMARK    7  A    between atoms: N_12  and  C_13
REMARK    8  A    between atoms: N_22  and  C_23
REMARK                            x       y       z     vdW  Elec       q    Type
REMARK                         _______ _______ _______ _____ _____    ______ ____
ROOT
ATOM      1  C   UNL     1       2.902   5.289  20.125  0.00  0.00    +0.000 C 
ATOM      2  S   UNL     1       1.601   4.340  20.558  0.00  0.00    +0.000 S 
ENDROOT
BRANCH   1   3
ATOM      3  N   UNL     1       2.934   6.657  20.063  0.00  0.00    +0.000 N 
ATOM      4  H   UNL     1       3.839   7.056  20.294  0.00  0.00    +0.000 HD
BRANCH   3   5
ATOM      5  C   UNL     1       2.211   7.498  19.117  0.00  0.00    +0.000 C 
BRANCH   5  11
ATOM      6  C   UNL     1       0.107   9.433  23.142  0.00  0.00    +0.000 C 
ATOM      7  C   UNL     1       0.473   9.529  21.694  0.00  0.00    +0.000 A 
ATOM      8  C   UNL     1       0.214  10.685  20.970  0.00  0.00    +0.000 A 
ATOM      9  N   UNL     1       0.556  10.838  19.670  0.00  0.00    +0.000 NA
ATOM     10  C   UNL     1       1.186   9.802  19.092  0.00  0.00    +0.000 A 
ATOM     11  C   UNL     1       1.474   8.630  19.806  0.00  0.00    +0.000 A 
ATOM     12  N   UNL     1       1.098   8.469  21.118  0.00  0.00    +0.000 NA
BRANCH  10  13
ATOM     13  N   UNL     1       1.563   9.995  17.764  0.00  0.00    +0.000 N 
ATOM     14  H   UNL     1       1.308   9.152  17.260  0.00  0.00    +0.000 HD
ATOM     15  H   UNL     1       2.550  10.203  17.667  0.00  0.00    +0.000 HD
ENDBRANCH  10  13
ENDBRANCH   5  11
ENDBRANCH   3   5
ENDBRANCH   1   3
BRANCH   1  16
ATOM     16  N   UNL     1       4.056   4.677  19.701  0.00  0.00    +0.000 N 
ATOM     17  H   UNL     1       4.600   4.233  20.433  0.00  0.00    +0.000 HD
BRANCH  16  18
ATOM     18  C   UNL     1       4.556   4.630  18.387  0.00  0.00    +0.000 A 
ATOM     19  C   UNL     1       3.945   3.747  17.470  0.00  0.00    +0.000 A 
ATOM     20  C   UNL     1       4.401   3.655  16.149  0.00  0.00    +0.000 A 
ATOM     21  C   UNL     1       5.496   4.419  15.808  0.00  0.00    +0.000 A 
ATOM     22  C   UNL     1       6.111   5.265  16.727  0.00  0.00    +0.000 A 
ATOM     23  C   UNL     1       5.666   5.398  18.017  0.00  0.00    +0.000 A 
ATOM     24  N   UNL     1       7.217   5.848  16.119  0.00  0.00    +0.000 N 
ATOM     25  C   UNL     1       7.317   5.361  14.807  0.00  0.00    +0.000 A 
ATOM     26  O   UNL     1       8.208   5.630  14.020  0.00  0.00    +0.000 OA
ATOM     27  N   UNL     1       6.225   4.496  14.617  0.00  0.00    +0.000 N 
ATOM     28  C   UNL     1       6.023   3.657  13.472  0.00  0.00    +0.000 C 
ATOM     29  H   UNL     1       7.898   6.456  16.543  0.00  0.00    +0.000 HD
ENDBRANCH  16  18
ENDBRANCH   1  16
TORSDOF 6
ENDMDL
MODEL 9
REMARK VINA RESULT:      -7.3      1.355      1.501
REMARK  Name = 
REMARK  8 active torsions:
REMARK  status: ('A' for Active; 'I' for Inactive)
REMARK    1  A    between atoms: C_1  and  C_2
REMARK    2  A    between atoms: C_5  and  N_6
REMARK    3  A    between atoms: C_7  and  C_8
REMARK    4  A    between atoms: C_8  and  N_9
REMARK    5  A    between atoms: N_9  and  C_10
REMARK    6  A    between atoms: C_10  and  N_12
REMARK    7  A    between atoms: N_12  and  C_13
REMARK    8  A    between atoms: N_22  and  C_23
REMARK                            x       y       z     vdW  Elec       q    Type
REMARK                         _______ _______ _______ _____ _____    ______ ____
ROOT
ATOM      1  C   UNL     1       2.040   4.773  19.074  0.00  0.00    +0.000 C 
ATOM      2  S   UNL     1       1.047   4.007  20.173  0.00  0.00    +0.000 S 
ENDROOT
BRANCH   1   3
ATOM      3  N   UNL     1       2.362   4.333  17.817  0.00  0.00    +0.000 N 
ATOM      4  H   UNL     1       2.399   5.072  17.122  0.00  0.00    +0.000 HD
BRANCH   3   5
ATOM      5  C   UNL     1       3.282   3.252  17.487  0.00  0.00    +0.000 C 
BRANCH   5  11
ATOM      6  C   UNL     1       6.720   5.058  14.438  0.00  0.00    +0.000 C 
ATOM      7  C   UNL     1       6.307   4.590  15.798  0.00  0.00    +0.000 A 
ATOM      8  C   UNL     1       7.177   4.679  16.877  0.00  0.00    +0.000 A 
ATOM      9  N   UNL     1       6.842   4.305  18.132  0.00  0.00    +0.000 NA
ATOM     10  C   UNL     1       5.594   3.841  18.305  0.00  0.00    +0.000 A 
ATOM     11  C   UNL     1       4.690   3.756  17.235  0.00  0.00    +0.000 A 
ATOM     12  N   UNL     1       5.045   4.110  15.957  0.00  0.00    +0.000 NA
BRANCH  10  13
ATOM     13  N   UNL     1       5.258   3.497  19.614  0.00  0.00    +0.000 N 
ATOM     14  H   UNL     1       5.077   4.365  20.108  0.00  0.00    +0.000 HD
ATOM     15  H   UNL     1       5.980   2.952  20.069  0.00  0.00    +0.000 HD
ENDBRANCH  10  13
ENDBRANCH   5  11
ENDBRANCH   3   5
ENDBRANCH   1   3
BRANCH   1  16
ATOM     16  N   UNL     1       2.686   5.923  19.453  0.00  0.00    +0.000 N 
ATOM     17  H   UNL     1       3.648   5.796  19.748  0.00  0.00    +0.000 HD
BRANCH  16  18
ATOM     18  C   UNL     1       2.149   7.222  19.493  0.00  0.00    +0.000 A 
ATOM     19  C   UNL     1       2.138   7.979  18.302  0.00  0.00    +0.000 A 
ATOM     20  C   UNL     1       1.618   9.279  18.281  0.00  0.00    +0.000 A 
ATOM     21  C   UNL     1       1.174   9.797  19.479  0.00  0.00    +0.000 A 
ATOM     22  C   UNL     1       1.216   9.053  20.656  0.00  0.00    +0.000 A 
ATOM     23  C   UNL     1       1.690   7.768  20.697  0.00  0.00    +0.000 A 
ATOM     24  N   UNL     1       0.767   9.855  21.699  0.00  0.00    +0.000 N 
ATOM     25  C   UNL     1       0.449  11.122  21.189  0.00  0.00    +0.000 A 
ATOM     26  O   UNL     1       0.077  12.077  21.849  0.00  0.00    +0.000 OA
ATOM     27  N   UNL     1       0.679  11.064  19.802  0.00  0.00    +0.000 N 
ATOM     28  C   UNL     1       0.633  12.183  18.908  0.00  0.00    +0.000 C 
ATOM     29  H   UNL     1       0.739   9.623  22.679  0.00  0.00    +0.000 HD
ENDBRANCH  16  18
ENDBRANCH   1  16
TORSDOF 6
ENDMDL
