MODEL 1
REMARK VINA RESULT:      -8.4      0.000      0.000
REMARK  Name = 
REMARK  9 active torsions:
REMARK  status: ('A' for Active; 'I' for Inactive)
REMARK    1  A    between atoms: C_1  and  O_2
REMARK    2  A    between atoms: O_2  and  C_3
REMARK    3  A    between atoms: C_6  and  N_7
REMARK    4  A    between atoms: N_7  and  N_8
REMARK    5  A    between atoms: C_12  and  C_13
REMARK    6  A    between atoms: C_12  and  C_15
REMARK    7  A    between atoms: N_17  and  C_18
REMARK    8  A    between atoms: C_21  and  C_22
REMARK    9  A    between atoms: N_25  and  C_26
REMARK                            x       y       z     vdW  Elec       q    Type
REMARK                         _______ _______ _______ _____ _____    ______ ____
ROOT
ATOM      1  N   UNL     1       7.685   7.476  17.743  0.00  0.00    +0.000 NA
ATOM      2  C   UNL     1       6.604   6.799  17.548  0.00  0.00    +0.000 C 
ATOM      3  S   UNL     1       5.116   7.287  16.830  0.00  0.00    +0.000 S 
ATOM      4  C   UNL     1       4.157   6.301  17.892  0.00  0.00    +0.000 C 
ATOM      5  C   UNL     1       2.941   6.637  18.392  0.00  0.00    +0.000 C 
ATOM      6  N   UNL     1       4.931   5.190  18.198  0.00  0.00    +0.000 N 
ATOM      7  C   UNL     1       6.310   5.388  17.994  0.00  0.00    +0.000 C 
ATOM      8  O   UNL     1       7.213   4.577  18.116  0.00  0.00    +0.000 OA
ENDROOT
BRANCH   6   9
ATOM      9  C   UNL     1       4.477   3.879  18.499  0.00  0.00    +0.000 A 
ATOM     10  C   UNL     1       4.745   3.307  19.747  0.00  0.00    +0.000 A 
ATOM     11  C   UNL     1       4.335   2.001  20.023  0.00  0.00    +0.000 A 
ATOM     12  C   UNL     1       3.692   1.248  19.042  0.00  0.00    +0.000 A 
ATOM     13  C   UNL     1       3.436   1.806  17.790  0.00  0.00    +0.000 A 
ATOM     14  C   UNL     1       3.812   3.124  17.521  0.00  0.00    +0.000 A 
ENDBRANCH   6   9
BRANCH   5  15
ATOM     15  C   UNL     1       2.363   8.009  18.158  0.00  0.00    +0.000 C 
ATOM     16  O   UNL     1       2.424   8.501  17.032  0.00  0.00    +0.000 OA
ATOM     17  N   UNL     1       1.861   8.707  19.243  0.00  0.00    +0.000 N 
ATOM     18  H   UNL     1       2.084   8.415  20.188  0.00  0.00    +0.000 HD
BRANCH  17  19
ATOM     19  C   UNL     1       1.200   9.964  19.117  0.00  0.00    +0.000 A 
ATOM     20  C   UNL     1       1.875  11.142  18.772  0.00  0.00    +0.000 A 
ATOM     21  C   UNL     1       1.211  12.370  18.713  0.00  0.00    +0.000 A 
ATOM     22  C   UNL     1      -0.154  12.447  18.985  0.00  0.00    +0.000 A 
ATOM     23  C   UNL     1      -0.860  13.771  18.953  0.00  0.00    +0.000 C 
ATOM     24  C   UNL     1      -0.845  11.268  19.289  0.00  0.00    +0.000 A 
ATOM     25  C   UNL     1      -0.177  10.032  19.342  0.00  0.00    +0.000 A 
ENDBRANCH  17  19
ENDBRANCH   5  15
BRANCH   1  26
ATOM     26  N   UNL     1       7.636   8.775  17.328  0.00  0.00    +0.000 N 
ATOM     27  H   UNL     1       7.274   9.020  16.406  0.00  0.00    +0.000 HD
BRANCH  26  31
ATOM     28  C   UNL     1       9.761  11.817  19.340  0.00  0.00    +0.000 A 
ATOM     29  C   UNL     1       9.788  10.510  19.824  0.00  0.00    +0.000 A 
ATOM     30  C   UNL     1       9.098   9.494  19.158  0.00  0.00    +0.000 A 
ATOM     31  C   UNL     1       8.367   9.765  18.000  0.00  0.00    +0.000 A 
ATOM     32  C   UNL     1       8.305  11.091  17.550  0.00  0.00    +0.000 A 
ATOM     33  C   UNL     1       9.002  12.112  18.210  0.00  0.00    +0.000 A 
BRANCH  28  35
ATOM     34  C   UNL     1      11.887  12.668  19.914  0.00  0.00    +0.000 C 
ATOM     35  O   UNL     1      10.473  12.725  20.073  0.00  0.00    +0.000 OA
ENDBRANCH  28  35
ENDBRANCH  26  31
ENDBRANCH   1  26
BRANCH   5  36
ATOM     36  C   UNL     1       2.206   5.667  19.300  0.00  0.00    +0.000 C 
ATOM     37  N   UNL     1       1.595   4.861  20.055  0.00  0.00    +0.000 NA
ENDBRANCH   5  36
TORSDOF 7
ENDMDL
MODEL 2
REMARK VINA RESULT:      -8.4      0.160      1.163
REMARK  Name = 
REMARK  9 active torsions:
REMARK  status: ('A' for Active; 'I' for Inactive)
REMARK    1  A    between atoms: C_1  and  O_2
REMARK    2  A    between atoms: O_2  and  C_3
REMARK    3  A    between atoms: C_6  and  N_7
REMARK    4  A    between atoms: N_7  and  N_8
REMARK    5  A    between atoms: C_12  and  C_13
REMARK    6  A    between atoms: C_12  and  C_15
REMARK    7  A    between atoms: N_17  and  C_18
REMARK    8  A    between atoms: C_21  and  C_22
REMARK    9  A    between atoms: N_25  and  C_26
REMARK                            x       y       z     vdW  Elec       q    Type
REMARK                         _______ _______ _______ _____ _____    ______ ____
ROOT
ATOM      1  N   UNL     1       7.744   7.540  17.782  0.00  0.00    +0.000 NA
ATOM      2  C   UNL     1       6.676   6.850  17.559  0.00  0.00    +0.000 C 
ATOM      3  S   UNL     1       5.195   7.325  16.821  0.00  0.00    +0.000 S 
ATOM      4  C   UNL     1       4.231   6.313  17.854  0.00  0.00    +0.000 C 
ATOM      5  C   UNL     1       3.002   6.626  18.337  0.00  0.00    +0.000 C 
ATOM      6  N   UNL     1       5.015   5.209  18.160  0.00  0.00    +0.000 N 
ATOM      7  C   UNL     1       6.395   5.429  17.983  0.00  0.00    +0.000 C 
ATOM      8  O   UNL     1       7.307   4.630  18.111  0.00  0.00    +0.000 OA
ENDROOT
BRANCH   6   9
ATOM      9  C   UNL     1       4.575   3.888  18.437  0.00  0.00    +0.000 A 
ATOM     10  C   UNL     1       3.874   3.160  17.470  0.00  0.00    +0.000 A 
ATOM     11  C   UNL     1       3.405   1.877  17.761  0.00  0.00    +0.000 A 
ATOM     12  C   UNL     1       3.600   1.333  19.029  0.00  0.00    +0.000 A 
ATOM     13  C   UNL     1       4.284   2.059  20.002  0.00  0.00    +0.000 A 
ATOM     14  C   UNL     1       4.786   3.328  19.705  0.00  0.00    +0.000 A 
ENDBRANCH   6   9
BRANCH   5  15
ATOM     15  C   UNL     1       2.408   7.992  18.110  0.00  0.00    +0.000 C 
ATOM     16  O   UNL     1       2.470   8.493  16.988  0.00  0.00    +0.000 OA
ATOM     17  N   UNL     1       1.891   8.676  19.197  0.00  0.00    +0.000 N 
ATOM     18  H   UNL     1       2.112   8.379  20.141  0.00  0.00    +0.000 HD
BRANCH  17  19
ATOM     19  C   UNL     1       1.216   9.925  19.076  0.00  0.00    +0.000 A 
ATOM     20  C   UNL     1       1.879  11.117  18.757  0.00  0.00    +0.000 A 
ATOM     21  C   UNL     1       1.200  12.336  18.703  0.00  0.00    +0.000 A 
ATOM     22  C   UNL     1      -0.169  12.391  18.954  0.00  0.00    +0.000 A 
ATOM     23  C   UNL     1      -0.892  13.706  18.928  0.00  0.00    +0.000 C 
ATOM     24  C   UNL     1      -0.850  11.199  19.232  0.00  0.00    +0.000 A 
ATOM     25  C   UNL     1      -0.166   9.972  19.280  0.00  0.00    +0.000 A 
ENDBRANCH  17  19
ENDBRANCH   5  15
BRANCH   1  26
ATOM     26  N   UNL     1       7.683   8.843  17.383  0.00  0.00    +0.000 N 
ATOM     27  H   UNL     1       7.362   9.093  16.447  0.00  0.00    +0.000 HD
BRANCH  26  31
ATOM     28  C   UNL     1       9.784  11.782  19.567  0.00  0.00    +0.000 A 
ATOM     29  C   UNL     1       9.150  12.121  18.372  0.00  0.00    +0.000 A 
ATOM     30  C   UNL     1       8.442  11.158  17.648  0.00  0.00    +0.000 A 
ATOM     31  C   UNL     1       8.356   9.840  18.103  0.00  0.00    +0.000 A 
ATOM     32  C   UNL     1       9.039   9.498  19.279  0.00  0.00    +0.000 A 
ATOM     33  C   UNL     1       9.744  10.462  20.012  0.00  0.00    +0.000 A 
BRANCH  28  35
ATOM     34  C   UNL     1      11.661  13.213  19.568  0.00  0.00    +0.000 C 
ATOM     35  O   UNL     1      10.445  12.806  20.187  0.00  0.00    +0.000 OA
ENDBRANCH  28  35
ENDBRANCH  26  31
ENDBRANCH   1  26
BRANCH   5  36
ATOM     36  C   UNL     1       2.265   5.634  19.220  0.00  0.00    +0.000 C 
ATOM     37  N   UNL     1       1.653   4.810  19.953  0.00  0.00    +0.000 NA
ENDBRANCH   5  36
TORSDOF 7
ENDMDL
MODEL 3
REMARK VINA RESULT:      -8.1      0.875      1.187
REMARK  Name = 
REMARK  9 active torsions:
REMARK  status: ('A' for Active; 'I' for Inactive)
REMARK    1  A    between atoms: C_1  and  O_2
REMARK    2  A    between atoms: O_2  and  C_3
REMARK    3  A    between atoms: C_6  and  N_7
REMARK    4  A    between atoms: N_7  and  N_8
REMARK    5  A    between atoms: C_12  and  C_13
REMARK    6  A    between atoms: C_12  and  C_15
REMARK    7  A    between atoms: N_17  and  C_18
REMARK    8  A    between atoms: C_21  and  C_22
REMARK    9  A    between atoms: N_25  and  C_26
REMARK                            x       y       z     vdW  Elec       q    Type
REMARK                         _______ _______ _______ _____ _____    ______ ____
ROOT
ATOM      1  N   UNL     1       7.201   7.654  17.458  0.00  0.00    +0.000 NA
ATOM      2  C   UNL     1       6.089   7.000  17.419  0.00  0.00    +0.000 C 
ATOM      3  S   UNL     1       4.480   7.580  17.221  0.00  0.00    +0.000 S 
ATOM      4  C   UNL     1       3.803   6.380  18.279  0.00  0.00    +0.000 C 
ATOM      5  C   UNL     1       2.767   6.578  19.133  0.00  0.00    +0.000 C 
ATOM      6  N   UNL     1       4.601   5.251  18.150  0.00  0.00    +0.000 N 
ATOM      7  C   UNL     1       5.885   5.522  17.639  0.00  0.00    +0.000 C 
ATOM      8  O   UNL     1       6.767   4.727  17.361  0.00  0.00    +0.000 OA
ENDROOT
BRANCH   6   9
ATOM      9  C   UNL     1       4.207   3.895  18.294  0.00  0.00    +0.000 A 
ATOM     10  C   UNL     1       3.298   3.324  17.396  0.00  0.00    +0.000 A 
ATOM     11  C   UNL     1       2.880   2.002  17.566  0.00  0.00    +0.000 A 
ATOM     12  C   UNL     1       3.335   1.260  18.654  0.00  0.00    +0.000 A 
ATOM     13  C   UNL     1       4.228   1.827  19.562  0.00  0.00    +0.000 A 
ATOM     14  C   UNL     1       4.677   3.136  19.376  0.00  0.00    +0.000 A 
ENDBRANCH   6   9
BRANCH   5  15
ATOM     15  C   UNL     1       2.183   7.953  19.332  0.00  0.00    +0.000 C 
ATOM     16  O   UNL     1       2.015   8.372  20.476  0.00  0.00    +0.000 OA
ATOM     17  N   UNL     1       1.773   8.664  18.217  0.00  0.00    +0.000 N 
ATOM     18  H   UNL     1       1.648   8.194  17.327  0.00  0.00    +0.000 HD
BRANCH  17  19
ATOM     19  C   UNL     1       1.305  10.008  18.284  0.00  0.00    +0.000 A 
ATOM     20  C   UNL     1       2.161  11.114  18.203  0.00  0.00    +0.000 A 
ATOM     21  C   UNL     1       1.680  12.418  18.331  0.00  0.00    +0.000 A 
ATOM     22  C   UNL     1       0.321  12.651  18.531  0.00  0.00    +0.000 A 
ATOM     23  C   UNL     1      -0.192  14.052  18.701  0.00  0.00    +0.000 C 
ATOM     24  C   UNL     1      -0.550  11.555  18.570  0.00  0.00    +0.000 A 
ATOM     25  C   UNL     1      -0.065  10.243  18.435  0.00  0.00    +0.000 A 
ENDBRANCH  17  19
ENDBRANCH   5  15
BRANCH   1  26
ATOM     26  N   UNL     1       7.080   9.008  17.334  0.00  0.00    +0.000 N 
ATOM     27  H   UNL     1       6.449   9.419  16.645  0.00  0.00    +0.000 HD
BRANCH  26  31
ATOM     28  C   UNL     1       9.887  11.656  19.045  0.00  0.00    +0.000 A 
ATOM     29  C   UNL     1       9.784  10.348  19.516  0.00  0.00    +0.000 A 
ATOM     30  C   UNL     1       8.866   9.460  18.948  0.00  0.00    +0.000 A 
ATOM     31  C   UNL     1       8.034   9.863  17.902  0.00  0.00    +0.000 A 
ATOM     32  C   UNL     1       8.109  11.194  17.470  0.00  0.00    +0.000 A 
ATOM     33  C   UNL     1       9.033  12.086  18.031  0.00  0.00    +0.000 A 
BRANCH  28  35
ATOM     34  C   UNL     1      12.119  11.862  19.783  0.00  0.00    +0.000 C 
ATOM     35  O   UNL     1      10.818  12.431  19.677  0.00  0.00    +0.000 OA
ENDBRANCH  28  35
ENDBRANCH  26  31
ENDBRANCH   1  26
BRANCH   5  36
ATOM     36  C   UNL     1       2.267   5.429  19.991  0.00  0.00    +0.000 C 
ATOM     37  N   UNL     1       1.851   4.475  20.704  0.00  0.00    +0.000 NA
ENDBRANCH   5  36
TORSDOF 7
ENDMDL
MODEL 4
REMARK VINA RESULT:      -7.3      5.004      9.754
REMARK  Name = 
REMARK  9 active torsions:
REMARK  status: ('A' for Active; 'I' for Inactive)
REMARK    1  A    between atoms: C_1  and  O_2
REMARK    2  A    between atoms: O_2  and  C_3
REMARK    3  A    between atoms: C_6  and  N_7
REMARK    4  A    between atoms: N_7  and  N_8
REMARK    5  A    between atoms: C_12  and  C_13
REMARK    6  A    between atoms: C_12  and  C_15
REMARK    7  A    between atoms: N_17  and  C_18
REMARK    8  A    between atoms: C_21  and  C_22
REMARK    9  A    between atoms: N_25  and  C_26
REMARK                            x       y       z     vdW  Elec       q    Type
REMARK                         _______ _______ _______ _____ _____    ______ ____
ROOT
ATOM      1  N   UNL     1       8.879   9.791  18.227  0.00  0.00    +0.000 NA
ATOM      2  C   UNL     1       9.277  10.831  18.879  0.00  0.00    +0.000 C 
ATOM      3  S   UNL     1       9.621  11.010  20.557  0.00  0.00    +0.000 S 
ATOM      4  C   UNL     1       9.025  12.641  20.614  0.00  0.00    +0.000 C 
ATOM      5  C   UNL     1       8.354  13.198  21.654  0.00  0.00    +0.000 C 
ATOM      6  N   UNL     1       9.274  13.192  19.364  0.00  0.00    +0.000 N 
ATOM      7  C   UNL     1       9.461  12.232  18.351  0.00  0.00    +0.000 C 
ATOM      8  O   UNL     1       9.755  12.419  17.182  0.00  0.00    +0.000 OA
ENDROOT
BRANCH   6   9
ATOM      9  C   UNL     1       9.536  14.553  19.057  0.00  0.00    +0.000 A 
ATOM     10  C   UNL     1       8.661  15.275  18.239  0.00  0.00    +0.000 A 
ATOM     11  C   UNL     1       8.945  16.600  17.904  0.00  0.00    +0.000 A 
ATOM     12  C   UNL     1      10.122  17.197  18.352  0.00  0.00    +0.000 A 
ATOM     13  C   UNL     1      11.008  16.479  19.154  0.00  0.00    +0.000 A 
ATOM     14  C   UNL     1      10.711  15.165  19.521  0.00  0.00    +0.000 A 
ENDBRANCH   6   9
BRANCH   5  15
ATOM     15  C   UNL     1       7.940  12.365  22.840  0.00  0.00    +0.000 C 
ATOM     16  O   UNL     1       8.199  11.162  22.846  0.00  0.00    +0.000 OA
ATOM     17  N   UNL     1       7.201  12.967  23.844  0.00  0.00    +0.000 N 
ATOM     18  H   UNL     1       6.754  13.862  23.684  0.00  0.00    +0.000 HD
BRANCH  17  19
ATOM     19  C   UNL     1       6.848  12.298  25.053  0.00  0.00    +0.000 A 
ATOM     20  C   UNL     1       7.556  12.473  26.249  0.00  0.00    +0.000 A 
ATOM     21  C   UNL     1       7.222  11.760  27.403  0.00  0.00    +0.000 A 
ATOM     22  C   UNL     1       6.158  10.861  27.392  0.00  0.00    +0.000 A 
ATOM     23  C   UNL     1       5.820  10.071  28.622  0.00  0.00    +0.000 C 
ATOM     24  C   UNL     1       5.418  10.710  26.212  0.00  0.00    +0.000 A 
ATOM     25  C   UNL     1       5.751  11.433  25.054  0.00  0.00    +0.000 A 
ENDBRANCH  17  19
ENDBRANCH   5  15
BRANCH   1  26
ATOM     26  N   UNL     1       8.693   8.670  18.984  0.00  0.00    +0.000 N 
ATOM     27  H   UNL     1       9.221   8.523  19.845  0.00  0.00    +0.000 HD
BRANCH  26  31
ATOM     28  C   UNL     1       6.732   5.337  17.291  0.00  0.00    +0.000 A 
ATOM     29  C   UNL     1       7.522   5.179  18.429  0.00  0.00    +0.000 A 
ATOM     30  C   UNL     1       8.166   6.278  19.004  0.00  0.00    +0.000 A 
ATOM     31  C   UNL     1       8.033   7.554  18.452  0.00  0.00    +0.000 A 
ATOM     32  C   UNL     1       7.278   7.695  17.280  0.00  0.00    +0.000 A 
ATOM     33  C   UNL     1       6.624   6.597  16.704  0.00  0.00    +0.000 A 
BRANCH  28  35
ATOM     34  C   UNL     1       6.202   4.019  15.407  0.00  0.00    +0.000 C 
ATOM     35  O   UNL     1       6.153   4.193  16.819  0.00  0.00    +0.000 OA
ENDBRANCH  28  35
ENDBRANCH  26  31
ENDBRANCH   1  26
BRANCH   5  36
ATOM     36  C   UNL     1       7.904  14.647  21.573  0.00  0.00    +0.000 C 
ATOM     37  N   UNL     1       7.531  15.849  21.505  0.00  0.00    +0.000 NA
ENDBRANCH   5  36
TORSDOF 7
ENDMDL
MODEL 5
REMARK VINA RESULT:      -7.2      5.147      9.881
REMARK  Name = 
REMARK  9 active torsions:
REMARK  status: ('A' for Active; 'I' for Inactive)
REMARK    1  A    between atoms: C_1  and  O_2
REMARK    2  A    between atoms: O_2  and  C_3
REMARK    3  A    between atoms: C_6  and  N_7
REMARK    4  A    between atoms: N_7  and  N_8
REMARK    5  A    between atoms: C_12  and  C_13
REMARK    6  A    between atoms: C_12  and  C_15
REMARK    7  A    between atoms: N_17  and  C_18
REMARK    8  A    between atoms: C_21  and  C_22
REMARK    9  A    between atoms: N_25  and  C_26
REMARK                            x       y       z     vdW  Elec       q    Type
REMARK                         _______ _______ _______ _____ _____    ______ ____
ROOT
ATOM      1  N   UNL     1       9.423  10.155  18.396  0.00  0.00    +0.000 NA
ATOM      2  C   UNL     1       9.766  11.255  18.976  0.00  0.00    +0.000 C 
ATOM      3  S   UNL     1       9.544  11.751  20.611  0.00  0.00    +0.000 S 
ATOM      4  C   UNL     1       9.290  13.416  20.183  0.00  0.00    +0.000 C 
ATOM      5  C   UNL     1       8.423  14.262  20.796  0.00  0.00    +0.000 C 
ATOM      6  N   UNL     1      10.051  13.648  19.046  0.00  0.00    +0.000 N 
ATOM      7  C   UNL     1      10.385  12.475  18.341  0.00  0.00    +0.000 C 
ATOM      8  O   UNL     1      11.091  12.367  17.352  0.00  0.00    +0.000 OA
ENDROOT
BRANCH   6   9
ATOM      9  C   UNL     1      10.659  14.867  18.648  0.00  0.00    +0.000 A 
ATOM     10  C   UNL     1      10.290  15.482  17.447  0.00  0.00    +0.000 A 
ATOM     11  C   UNL     1      10.920  16.659  17.038  0.00  0.00    +0.000 A 
ATOM     12  C   UNL     1      11.948  17.204  17.805  0.00  0.00    +0.000 A 
ATOM     13  C   UNL     1      12.333  16.588  18.995  0.00  0.00    +0.000 A 
ATOM     14  C   UNL     1      11.681  15.431  19.427  0.00  0.00    +0.000 A 
ENDBRANCH   6   9
BRANCH   5  15
ATOM     15  C   UNL     1       7.477  13.762  21.857  0.00  0.00    +0.000 C 
ATOM     16  O   UNL     1       6.297  13.572  21.567  0.00  0.00    +0.000 OA
ATOM     17  N   UNL     1       7.952  13.619  23.150  0.00  0.00    +0.000 N 
ATOM     18  H   UNL     1       8.826  14.052  23.426  0.00  0.00    +0.000 HD
BRANCH  17  19
ATOM     19  C   UNL     1       7.173  13.058  24.204  0.00  0.00    +0.000 A 
ATOM     20  C   UNL     1       7.079  11.678  24.425  0.00  0.00    +0.000 A 
ATOM     21  C   UNL     1       6.261  11.156  25.429  0.00  0.00    +0.000 A 
ATOM     22  C   UNL     1       5.523  12.006  26.250  0.00  0.00    +0.000 A 
ATOM     23  C   UNL     1       4.619  11.444  27.307  0.00  0.00    +0.000 C 
ATOM     24  C   UNL     1       5.643  13.389  26.065  0.00  0.00    +0.000 A 
ATOM     25  C   UNL     1       6.472  13.913  25.058  0.00  0.00    +0.000 A 
ENDBRANCH  17  19
ENDBRANCH   5  15
BRANCH   1  26
ATOM     26  N   UNL     1       8.778   9.256  19.196  0.00  0.00    +0.000 N 
ATOM     27  H   UNL     1       8.878   9.288  20.211  0.00  0.00    +0.000 HD
BRANCH  26  31
ATOM     28  C   UNL     1       7.182   5.747  17.476  0.00  0.00    +0.000 A 
ATOM     29  C   UNL     1       7.838   5.686  18.705  0.00  0.00    +0.000 A 
ATOM     30  C   UNL     1       8.360   6.844  19.288  0.00  0.00    +0.000 A 
ATOM     31  C   UNL     1       8.236   8.082  18.654  0.00  0.00    +0.000 A 
ATOM     32  C   UNL     1       7.620   8.125  17.396  0.00  0.00    +0.000 A 
ATOM     33  C   UNL     1       7.089   6.968  16.810  0.00  0.00    +0.000 A 
BRANCH  28  35
ATOM     34  C   UNL     1       6.784   4.381  15.593  0.00  0.00    +0.000 C 
ATOM     35  O   UNL     1       6.715   4.552  17.005  0.00  0.00    +0.000 OA
ENDBRANCH  28  35
ENDBRANCH  26  31
ENDBRANCH   1  26
BRANCH   5  36
ATOM     36  C   UNL     1       8.316  15.702  20.325  0.00  0.00    +0.000 C 
ATOM     37  N   UNL     1       8.227  16.898  19.934  0.00  0.00    +0.000 NA
ENDBRANCH   5  36
TORSDOF 7
ENDMDL
MODEL 6
REMARK VINA RESULT:      -7.1      4.852      9.957
REMARK  Name = 
REMARK  9 active torsions:
REMARK  status: ('A' for Active; 'I' for Inactive)
REMARK    1  A    between atoms: C_1  and  O_2
REMARK    2  A    between atoms: O_2  and  C_3
REMARK    3  A    between atoms: C_6  and  N_7
REMARK    4  A    between atoms: N_7  and  N_8
REMARK    5  A    between atoms: C_12  and  C_13
REMARK    6  A    between atoms: C_12  and  C_15
REMARK    7  A    between atoms: N_17  and  C_18
REMARK    8  A    between atoms: C_21  and  C_22
REMARK    9  A    between atoms: N_25  and  C_26
REMARK                            x       y       z     vdW  Elec       q    Type
REMARK                         _______ _______ _______ _____ _____    ______ ____
ROOT
ATOM      1  N   UNL     1       9.530  10.249  18.345  0.00  0.00    +0.000 NA
ATOM      2  C   UNL     1       9.876  11.346  18.930  0.00  0.00    +0.000 C 
ATOM      3  S   UNL     1       9.644  11.840  20.564  0.00  0.00    +0.000 S 
ATOM      4  C   UNL     1       9.404  13.507  20.138  0.00  0.00    +0.000 C 
ATOM      5  C   UNL     1       8.538  14.356  20.747  0.00  0.00    +0.000 C 
ATOM      6  N   UNL     1      10.175  13.736  19.007  0.00  0.00    +0.000 N 
ATOM      7  C   UNL     1      10.507  12.563  18.302  0.00  0.00    +0.000 C 
ATOM      8  O   UNL     1      11.220  12.453  17.318  0.00  0.00    +0.000 OA
ENDROOT
BRANCH   6   9
ATOM      9  C   UNL     1      10.793  14.953  18.617  0.00  0.00    +0.000 A 
ATOM     10  C   UNL     1      11.758  15.551  19.435  0.00  0.00    +0.000 A 
ATOM     11  C   UNL     1      12.333  16.769  19.068  0.00  0.00    +0.000 A 
ATOM     12  C   UNL     1      11.917  17.416  17.905  0.00  0.00    +0.000 A 
ATOM     13  C   UNL     1      10.944  16.834  17.094  0.00  0.00    +0.000 A 
ATOM     14  C   UNL     1      10.393  15.598  17.437  0.00  0.00    +0.000 A 
ENDBRANCH   6   9
BRANCH   5  15
ATOM     15  C   UNL     1       7.581  13.860  21.800  0.00  0.00    +0.000 C 
ATOM     16  O   UNL     1       6.392  13.731  21.515  0.00  0.00    +0.000 OA
ATOM     17  N   UNL     1       8.061  13.652  23.082  0.00  0.00    +0.000 N 
ATOM     18  H   UNL     1       8.955  14.038  23.364  0.00  0.00    +0.000 HD
BRANCH  17  19
ATOM     19  C   UNL     1       7.267  13.088  24.123  0.00  0.00    +0.000 A 
ATOM     20  C   UNL     1       7.125  11.707  24.304  0.00  0.00    +0.000 A 
ATOM     21  C   UNL     1       6.294  11.184  25.297  0.00  0.00    +0.000 A 
ATOM     22  C   UNL     1       5.592  12.035  26.148  0.00  0.00    +0.000 A 
ATOM     23  C   UNL     1       4.675  11.474  27.194  0.00  0.00    +0.000 C 
ATOM     24  C   UNL     1       5.761  13.418  26.004  0.00  0.00    +0.000 A 
ATOM     25  C   UNL     1       6.602  13.942  25.008  0.00  0.00    +0.000 A 
ENDBRANCH  17  19
ENDBRANCH   5  15
BRANCH   1  26
ATOM     26  N   UNL     1       8.874   9.353  19.138  0.00  0.00    +0.000 N 
ATOM     27  H   UNL     1       8.988   9.364  20.152  0.00  0.00    +0.000 HD
BRANCH  26  31
ATOM     28  C   UNL     1       7.102   5.861  17.560  0.00  0.00    +0.000 A 
ATOM     29  C   UNL     1       6.942   7.082  16.906  0.00  0.00    +0.000 A 
ATOM     30  C   UNL     1       7.534   8.241  17.414  0.00  0.00    +0.000 A 
ATOM     31  C   UNL     1       8.296   8.202  18.584  0.00  0.00    +0.000 A 
ATOM     32  C   UNL     1       8.409   6.980  19.262  0.00  0.00    +0.000 A 
ATOM     33  C   UNL     1       7.822   5.814  18.753  0.00  0.00    +0.000 A 
BRANCH  28  35
ATOM     34  C   UNL     1       5.353   4.281  17.676  0.00  0.00    +0.000 C 
ATOM     35  O   UNL     1       6.477   4.797  16.972  0.00  0.00    +0.000 OA
ENDBRANCH  28  35
ENDBRANCH  26  31
ENDBRANCH   1  26
BRANCH   5  36
ATOM     36  C   UNL     1       8.443  15.799  20.278  0.00  0.00    +0.000 C 
ATOM     37  N   UNL     1       8.364  16.996  19.889  0.00  0.00    +0.000 NA
ENDBRANCH   5  36
TORSDOF 7
ENDMDL
MODEL 7
REMARK VINA RESULT:      -7.0      4.182      9.092
REMARK  Name = 
REMARK  9 active torsions:
REMARK  status: ('A' for Active; 'I' for Inactive)
REMARK    1  A    between atoms: C_1  and  O_2
REMARK    2  A    between atoms: O_2  and  C_3
REMARK    3  A    between atoms: C_6  and  N_7
REMARK    4  A    between atoms: N_7  and  N_8
REMARK    5  A    between atoms: C_12  and  C_13
REMARK    6  A    between atoms: C_12  and  C_15
REMARK    7  A    between atoms: N_17  and  C_18
REMARK    8  A    between atoms: C_21  and  C_22
REMARK    9  A    between atoms: N_25  and  C_26
REMARK                            x       y       z     vdW  Elec       q    Type
REMARK                         _______ _______ _______ _____ _____    ______ ____
ROOT
ATOM      1  N   UNL     1       4.462  15.263  17.545  0.00  0.00    +0.000 NA
ATOM      2  C   UNL     1       3.569  15.333  18.473  0.00  0.00    +0.000 C 
ATOM      3  S   UNL     1       3.306  14.300  19.826  0.00  0.00    +0.000 S 
ATOM      4  C   UNL     1       1.579  14.477  19.762  0.00  0.00    +0.000 C 
ATOM      5  C   UNL     1       0.678  13.499  20.033  0.00  0.00    +0.000 C 
ATOM      6  N   UNL     1       1.335  15.755  19.276  0.00  0.00    +0.000 N 
ATOM      7  C   UNL     1       2.423  16.309  18.574  0.00  0.00    +0.000 C 
ATOM      8  O   UNL     1       2.519  17.427  18.097  0.00  0.00    +0.000 OA
ENDROOT
BRANCH   6   9
ATOM      9  C   UNL     1       0.226  16.591  19.567  0.00  0.00    +0.000 A 
ATOM     10  C   UNL     1      -0.690  16.924  18.563  0.00  0.00    +0.000 A 
ATOM     11  C   UNL     1      -1.756  17.782  18.842  0.00  0.00    +0.000 A 
ATOM     12  C   UNL     1      -1.889  18.341  20.112  0.00  0.00    +0.000 A 
ATOM     13  C   UNL     1      -0.970  18.027  21.113  0.00  0.00    +0.000 A 
ATOM     14  C   UNL     1       0.077  17.141  20.848  0.00  0.00    +0.000 A 
ENDBRANCH   6   9
BRANCH   5  15
ATOM     15  C   UNL     1       1.128  12.086  20.295  0.00  0.00    +0.000 C 
ATOM     16  O   UNL     1       1.651  11.814  21.375  0.00  0.00    +0.000 OA
ATOM     17  N   UNL     1       1.018  11.157  19.274  0.00  0.00    +0.000 N 
ATOM     18  H   UNL     1       0.864  11.462  18.319  0.00  0.00    +0.000 HD
BRANCH  17  19
ATOM     19  C   UNL     1       1.317   9.775  19.448  0.00  0.00    +0.000 A 
ATOM     20  C   UNL     1       1.011   9.076  20.622  0.00  0.00    +0.000 A 
ATOM     21  C   UNL     1       1.370   7.736  20.786  0.00  0.00    +0.000 A 
ATOM     22  C   UNL     1       2.033   7.055  19.768  0.00  0.00    +0.000 A 
ATOM     23  C   UNL     1       2.447   5.625  19.956  0.00  0.00    +0.000 C 
ATOM     24  C   UNL     1       2.305   7.733  18.573  0.00  0.00    +0.000 A 
ATOM     25  C   UNL     1       1.938   9.079  18.407  0.00  0.00    +0.000 A 
ENDBRANCH  17  19
ENDBRANCH   5  15
BRANCH   1  26
ATOM     26  N   UNL     1       5.319  14.205  17.646  0.00  0.00    +0.000 N 
ATOM     27  H   UNL     1       4.976  13.269  17.863  0.00  0.00    +0.000 HD
BRANCH  26  31
ATOM     28  C   UNL     1       9.454  14.895  18.135  0.00  0.00    +0.000 A 
ATOM     29  C   UNL     1       8.994  13.623  17.800  0.00  0.00    +0.000 A 
ATOM     30  C   UNL     1       7.628  13.387  17.624  0.00  0.00    +0.000 A 
ATOM     31  C   UNL     1       6.698  14.416  17.781  0.00  0.00    +0.000 A 
ATOM     32  C   UNL     1       7.166  15.680  18.168  0.00  0.00    +0.000 A 
ATOM     33  C   UNL     1       8.535  15.923  18.338  0.00  0.00    +0.000 A 
BRANCH  28  35
ATOM     34  C   UNL     1      11.553  15.060  17.069  0.00  0.00    +0.000 C 
ATOM     35  O   UNL     1      10.809  15.006  18.281  0.00  0.00    +0.000 OA
ENDBRANCH  28  35
ENDBRANCH  26  31
ENDBRANCH   1  26
BRANCH   5  36
ATOM     36  C   UNL     1      -0.809  13.802  19.953  0.00  0.00    +0.000 C 
ATOM     37  N   UNL     1      -2.043  14.053  19.886  0.00  0.00    +0.000 NA
ENDBRANCH   5  36
TORSDOF 7
ENDMDL
MODEL 8
REMARK VINA RESULT:      -6.9      4.193     10.116
REMARK  Name = 
REMARK  9 active torsions:
REMARK  status: ('A' for Active; 'I' for Inactive)
REMARK    1  A    between atoms: C_1  and  O_2
REMARK    2  A    between atoms: O_2  and  C_3
REMARK    3  A    between atoms: C_6  and  N_7
REMARK    4  A    between atoms: N_7  and  N_8
REMARK    5  A    between atoms: C_12  and  C_13
REMARK    6  A    between atoms: C_12  and  C_15
REMARK    7  A    between atoms: N_17  and  C_18
REMARK    8  A    between atoms: C_21  and  C_22
REMARK    9  A    between atoms: N_25  and  C_26
REMARK                            x       y       z     vdW  Elec       q    Type
REMARK                         _______ _______ _______ _____ _____    ______ ____
ROOT
ATOM      1  N   UNL     1      -0.357  10.786  18.660  0.00  0.00    +0.000 NA
ATOM      2  C   UNL     1      -0.357  12.041  18.960  0.00  0.00    +0.000 C 
ATOM      3  S   UNL     1       0.864  13.230  18.711  0.00  0.00    +0.000 S 
ATOM      4  C   UNL     1       0.500  14.069  20.188  0.00  0.00    +0.000 C 
ATOM      5  C   UNL     1       1.410  14.662  21.001  0.00  0.00    +0.000 C 
ATOM      6  N   UNL     1      -0.862  13.903  20.405  0.00  0.00    +0.000 N 
ATOM      7  C   UNL     1      -1.414  12.805  19.718  0.00  0.00    +0.000 C 
ATOM      8  O   UNL     1      -2.582  12.458  19.669  0.00  0.00    +0.000 OA
ENDROOT
BRANCH   6   9
ATOM      9  C   UNL     1      -1.745  14.797  21.064  0.00  0.00    +0.000 A 
ATOM     10  C   UNL     1      -1.984  16.071  20.538  0.00  0.00    +0.000 A 
ATOM     11  C   UNL     1      -2.821  16.963  21.212  0.00  0.00    +0.000 A 
ATOM     12  C   UNL     1      -3.388  16.603  22.433  0.00  0.00    +0.000 A 
ATOM     13  C   UNL     1      -3.141  15.341  22.972  0.00  0.00    +0.000 A 
ATOM     14  C   UNL     1      -2.335  14.432  22.284  0.00  0.00    +0.000 A 
ENDBRANCH   6   9
BRANCH   5  15
ATOM     15  C   UNL     1       2.887  14.518  20.740  0.00  0.00    +0.000 C 
ATOM     16  O   UNL     1       3.525  13.670  21.362  0.00  0.00    +0.000 OA
ATOM     17  N   UNL     1       3.494  15.408  19.870  0.00  0.00    +0.000 N 
ATOM     18  H   UNL     1       3.022  16.264  19.602  0.00  0.00    +0.000 HD
BRANCH  17  19
ATOM     19  C   UNL     1       4.859  15.297  19.476  0.00  0.00    +0.000 A 
ATOM     20  C   UNL     1       5.917  15.752  20.273  0.00  0.00    +0.000 A 
ATOM     21  C   UNL     1       7.241  15.683  19.834  0.00  0.00    +0.000 A 
ATOM     22  C   UNL     1       7.542  15.140  18.586  0.00  0.00    +0.000 A 
ATOM     23  C   UNL     1       8.962  15.095  18.102  0.00  0.00    +0.000 C 
ATOM     24  C   UNL     1       6.495  14.643  17.800  0.00  0.00    +0.000 A 
ATOM     25  C   UNL     1       5.164  14.708  18.246  0.00  0.00    +0.000 A 
ENDBRANCH  17  19
ENDBRANCH   5  15
BRANCH   1  26
ATOM     26  N   UNL     1       0.785  10.333  18.066  0.00  0.00    +0.000 N 
ATOM     27  H   UNL     1       1.071  10.673  17.148  0.00  0.00    +0.000 HD
BRANCH  26  31
ATOM     28  C   UNL     1       2.604   6.810  19.516  0.00  0.00    +0.000 A 
ATOM     29  C   UNL     1       2.756   7.175  18.179  0.00  0.00    +0.000 A 
ATOM     30  C   UNL     1       2.168   8.345  17.692  0.00  0.00    +0.000 A 
ATOM     31  C   UNL     1       1.417   9.171  18.531  0.00  0.00    +0.000 A 
ATOM     32  C   UNL     1       1.227   8.770  19.861  0.00  0.00    +0.000 A 
ATOM     33  C   UNL     1       1.821   7.601  20.355  0.00  0.00    +0.000 A 
BRANCH  28  35
ATOM     34  C   UNL     1       4.490   5.413  19.270  0.00  0.00    +0.000 C 
ATOM     35  O   UNL     1       3.223   5.646  19.877  0.00  0.00    +0.000 OA
ENDBRANCH  28  35
ENDBRANCH  26  31
ENDBRANCH   1  26
BRANCH   5  36
ATOM     36  C   UNL     1       0.945  15.377  22.258  0.00  0.00    +0.000 C 
ATOM     37  N   UNL     1       0.559  15.970  23.302  0.00  0.00    +0.000 NA
ENDBRANCH   5  36
TORSDOF 7
ENDMDL
MODEL 9
REMARK VINA RESULT:      -6.9      4.103      9.939
REMARK  Name = 
REMARK  9 active torsions:
REMARK  status: ('A' for Active; 'I' for Inactive)
REMARK    1  A    between atoms: C_1  and  O_2
REMARK    2  A    between atoms: O_2  and  C_3
REMARK    3  A    between atoms: C_6  and  N_7
REMARK    4  A    between atoms: N_7  and  N_8
REMARK    5  A    between atoms: C_12  and  C_13
REMARK    6  A    between atoms: C_12  and  C_15
REMARK    7  A    between atoms: N_17  and  C_18
REMARK    8  A    between atoms: C_21  and  C_22
REMARK    9  A    between atoms: N_25  and  C_26
REMARK                            x       y       z     vdW  Elec       q    Type
REMARK                         _______ _______ _______ _____ _____    ______ ____
ROOT
ATOM      1  N   UNL     1      -0.233  10.625  18.601  0.00  0.00    +0.000 NA
ATOM      2  C   UNL     1      -0.265  11.877  18.910  0.00  0.00    +0.000 C 
ATOM      3  S   UNL     1       0.933  13.095  18.685  0.00  0.00    +0.000 S 
ATOM      4  C   UNL     1       0.529  13.915  20.163  0.00  0.00    +0.000 C 
ATOM      5  C   UNL     1       1.414  14.522  20.992  0.00  0.00    +0.000 C 
ATOM      6  N   UNL     1      -0.831  13.718  20.360  0.00  0.00    +0.000 N 
ATOM      7  C   UNL     1      -1.349  12.613  19.657  0.00  0.00    +0.000 C 
ATOM      8  O   UNL     1      -2.509  12.240  19.589  0.00  0.00    +0.000 OA
ENDROOT
BRANCH   6   9
ATOM      9  C   UNL     1      -1.744  14.588  21.012  0.00  0.00    +0.000 A 
ATOM     10  C   UNL     1      -2.381  14.189  22.192  0.00  0.00    +0.000 A 
ATOM     11  C   UNL     1      -3.310  15.030  22.807  0.00  0.00    +0.000 A 
ATOM     12  C   UNL     1      -3.637  16.254  22.226  0.00  0.00    +0.000 A 
ATOM     13  C   UNL     1      -3.019  16.651  21.041  0.00  0.00    +0.000 A 
ATOM     14  C   UNL     1      -2.062  15.829  20.442  0.00  0.00    +0.000 A 
ENDBRANCH   6   9
BRANCH   5  15
ATOM     15  C   UNL     1       2.898  14.413  20.752  0.00  0.00    +0.000 C 
ATOM     16  O   UNL     1       3.560  13.634  21.435  0.00  0.00    +0.000 OA
ATOM     17  N   UNL     1       3.481  15.262  19.826  0.00  0.00    +0.000 N 
ATOM     18  H   UNL     1       2.982  16.080  19.495  0.00  0.00    +0.000 HD
BRANCH  17  19
ATOM     19  C   UNL     1       4.852  15.171  19.449  0.00  0.00    +0.000 A 
ATOM     20  C   UNL     1       5.895  15.610  20.275  0.00  0.00    +0.000 A 
ATOM     21  C   UNL     1       7.226  15.562  19.854  0.00  0.00    +0.000 A 
ATOM     22  C   UNL     1       7.549  15.059  18.595  0.00  0.00    +0.000 A 
ATOM     23  C   UNL     1       8.976  15.039  18.131  0.00  0.00    +0.000 C 
ATOM     24  C   UNL     1       6.518  14.579  17.779  0.00  0.00    +0.000 A 
ATOM     25  C   UNL     1       5.180  14.622  18.206  0.00  0.00    +0.000 A 
ENDBRANCH  17  19
ENDBRANCH   5  15
BRANCH   1  26
ATOM     26  N   UNL     1       0.927  10.201  18.021  0.00  0.00    +0.000 N 
ATOM     27  H   UNL     1       1.240  10.585  17.128  0.00  0.00    +0.000 HD
BRANCH  26  31
ATOM     28  C   UNL     1       2.879   6.671  19.265  0.00  0.00    +0.000 A 
ATOM     29  C   UNL     1       2.062   7.368  20.154  0.00  0.00    +0.000 A 
ATOM     30  C   UNL     1       1.402   8.531  19.749  0.00  0.00    +0.000 A 
ATOM     31  C   UNL     1       1.547   9.019  18.449  0.00  0.00    +0.000 A 
ATOM     32  C   UNL     1       2.410   8.341  17.577  0.00  0.00    +0.000 A 
ATOM     33  C   UNL     1       3.068   7.170  17.977  0.00  0.00    +0.000 A 
BRANCH  28  35
ATOM     34  C   UNL     1       4.793   5.292  19.311  0.00  0.00    +0.000 C 
ATOM     35  O   UNL     1       3.471   5.550  19.774  0.00  0.00    +0.000 OA
ENDBRANCH  28  35
ENDBRANCH  26  31
ENDBRANCH   1  26
BRANCH   5  36
ATOM     36  C   UNL     1       0.916  15.219  22.248  0.00  0.00    +0.000 C 
ATOM     37  N   UNL     1       0.503  15.797  23.289  0.00  0.00    +0.000 NA
ENDBRANCH   5  36
TORSDOF 7
ENDMDL
