MODEL 1
REMARK VINA RESULT:      -7.6      0.000      0.000
REMARK  Name = 
REMARK  2 active torsions:
REMARK  status: ('A' for Active; 'I' for Inactive)
REMARK    1  A    between atoms: C_7  and  N_8
REMARK    2  A    between atoms: C_10  and  C_11
REMARK                            x       y       z     vdW  Elec       q    Type
REMARK                         _______ _______ _______ _____ _____    ______ ____
ROOT
ATOM      1  N   UNL     1       4.623   4.229  17.850  0.00  0.00    +0.000 N 
ATOM      2  C   UNL     1       4.555   4.150  16.481  0.00  0.00    +0.000 A 
ATOM      3  C   UNL     1       5.847   4.313  16.044  0.00  0.00    +0.000 A 
ATOM      4  N   UNL     1       6.654   4.541  17.121  0.00  0.00    +0.000 NA
ATOM      5  N   UNL     1       5.898   4.530  18.212  0.00  0.00    +0.000 NA
ENDROOT
BRANCH   1  12
ATOM      6 CL   UNL     1       3.390   1.365  18.539  0.00  0.00    +0.000 Cl
ATOM      7  C   UNL     1       2.919   2.932  19.106  0.00  0.00    +0.000 A 
ATOM      8  C   UNL     1       1.856   2.936  20.023  0.00  0.00    +0.000 A 
ATOM      9  C   UNL     1       1.456   4.117  20.645  0.00  0.00    +0.000 A 
ATOM     10  C   UNL     1       2.129   5.304  20.373  0.00  0.00    +0.000 A 
ATOM     11  C   UNL     1       3.194   5.311  19.471  0.00  0.00    +0.000 A 
ATOM     12  C   UNL     1       3.583   4.130  18.807  0.00  0.00    +0.000 A 
ENDBRANCH   1  12
BRANCH   3  13
ATOM     13  C   UNL     1       6.275   4.345  14.660  0.00  0.00    +0.000 A 
ATOM     14  C   UNL     1       5.632   3.540  13.712  0.00  0.00    +0.000 A 
ATOM     15  C   UNL     1       6.077   3.510  12.387  0.00  0.00    +0.000 A 
ATOM     16  C   UNL     1       7.160   4.296  11.996  0.00  0.00    +0.000 A 
ATOM     17  C   UNL     1       7.791   5.121  12.923  0.00  0.00    +0.000 A 
ATOM     18  C   UNL     1       7.349   5.149  14.247  0.00  0.00    +0.000 A 
ENDBRANCH   3  13
TORSDOF 2
ENDMDL
MODEL 2
REMARK VINA RESULT:      -7.6      1.366      1.735
REMARK  Name = 
REMARK  2 active torsions:
REMARK  status: ('A' for Active; 'I' for Inactive)
REMARK    1  A    between atoms: C_7  and  N_8
REMARK    2  A    between atoms: C_10  and  C_11
REMARK                            x       y       z     vdW  Elec       q    Type
REMARK                         _______ _______ _______ _____ _____    ______ ____
ROOT
ATOM      1  N   UNL     1       4.926   4.202  18.078  0.00  0.00    +0.000 N 
ATOM      2  C   UNL     1       4.772   4.189  16.713  0.00  0.00    +0.000 A 
ATOM      3  C   UNL     1       6.046   4.280  16.205  0.00  0.00    +0.000 A 
ATOM      4  N   UNL     1       6.929   4.402  17.239  0.00  0.00    +0.000 NA
ATOM      5  N   UNL     1       6.238   4.396  18.373  0.00  0.00    +0.000 NA
ENDROOT
BRANCH   1  12
ATOM      6 CL   UNL     1       3.026   6.718  18.590  0.00  0.00    +0.000 Cl
ATOM      7  C   UNL     1       3.124   5.219  19.451  0.00  0.00    +0.000 A 
ATOM      8  C   UNL     1       2.215   5.083  20.512  0.00  0.00    +0.000 A 
ATOM      9  C   UNL     1       2.110   3.882  21.211  0.00  0.00    +0.000 A 
ATOM     10  C   UNL     1       2.896   2.796  20.842  0.00  0.00    +0.000 A 
ATOM     11  C   UNL     1       3.796   2.914  19.782  0.00  0.00    +0.000 A 
ATOM     12  C   UNL     1       3.939   4.135  19.093  0.00  0.00    +0.000 A 
ENDBRANCH   1  12
BRANCH   3  13
ATOM     13  C   UNL     1       6.393   4.343  14.800  0.00  0.00    +0.000 A 
ATOM     14  C   UNL     1       5.716   3.537  13.876  0.00  0.00    +0.000 A 
ATOM     15  C   UNL     1       6.085   3.539  12.528  0.00  0.00    +0.000 A 
ATOM     16  C   UNL     1       7.126   4.355  12.090  0.00  0.00    +0.000 A 
ATOM     17  C   UNL     1       7.790   5.181  12.992  0.00  0.00    +0.000 A 
ATOM     18  C   UNL     1       7.423   5.178  14.340  0.00  0.00    +0.000 A 
ENDBRANCH   3  13
TORSDOF 2
ENDMDL
MODEL 3
REMARK VINA RESULT:      -7.5      0.269      1.169
REMARK  Name = 
REMARK  2 active torsions:
REMARK  status: ('A' for Active; 'I' for Inactive)
REMARK    1  A    between atoms: C_7  and  N_8
REMARK    2  A    between atoms: C_10  and  C_11
REMARK                            x       y       z     vdW  Elec       q    Type
REMARK                         _______ _______ _______ _____ _____    ______ ____
ROOT
ATOM      1  N   UNL     1       4.428   4.351  17.885  0.00  0.00    +0.000 N 
ATOM      2  C   UNL     1       4.468   4.026  16.552  0.00  0.00    +0.000 A 
ATOM      3  C   UNL     1       5.702   4.445  16.114  0.00  0.00    +0.000 A 
ATOM      4  N   UNL     1       6.355   5.056  17.146  0.00  0.00    +0.000 NA
ATOM      5  N   UNL     1       5.558   5.033  18.208  0.00  0.00    +0.000 NA
ENDROOT
BRANCH   1  12
ATOM      6 CL   UNL     1       3.418   1.383  18.491  0.00  0.00    +0.000 Cl
ATOM      7  C   UNL     1       2.818   2.893  19.089  0.00  0.00    +0.000 A 
ATOM      8  C   UNL     1       1.749   2.791  19.993  0.00  0.00    +0.000 A 
ATOM      9  C   UNL     1       1.251   3.922  20.637  0.00  0.00    +0.000 A 
ATOM     10  C   UNL     1       1.831   5.164  20.402  0.00  0.00    +0.000 A 
ATOM     11  C   UNL     1       2.901   5.278  19.514  0.00  0.00    +0.000 A 
ATOM     12  C   UNL     1       3.389   4.147  18.827  0.00  0.00    +0.000 A 
ENDBRANCH   1  12
BRANCH   3  13
ATOM     13  C   UNL     1       6.194   4.353  14.755  0.00  0.00    +0.000 A 
ATOM     14  C   UNL     1       7.302   5.113  14.360  0.00  0.00    +0.000 A 
ATOM     15  C   UNL     1       7.746   5.084  13.036  0.00  0.00    +0.000 A 
ATOM     16  C   UNL     1       7.095   4.287  12.097  0.00  0.00    +0.000 A 
ATOM     17  C   UNL     1       6.009   3.505  12.481  0.00  0.00    +0.000 A 
ATOM     18  C   UNL     1       5.562   3.535  13.804  0.00  0.00    +0.000 A 
ENDBRANCH   3  13
TORSDOF 2
ENDMDL
MODEL 4
REMARK VINA RESULT:      -7.5      1.342      2.045
REMARK  Name = 
REMARK  2 active torsions:
REMARK  status: ('A' for Active; 'I' for Inactive)
REMARK    1  A    between atoms: C_7  and  N_8
REMARK    2  A    between atoms: C_10  and  C_11
REMARK                            x       y       z     vdW  Elec       q    Type
REMARK                         _______ _______ _______ _____ _____    ______ ____
ROOT
ATOM      1  N   UNL     1       4.798   4.166  18.141  0.00  0.00    +0.000 N 
ATOM      2  C   UNL     1       4.682   4.060  16.777  0.00  0.00    +0.000 A 
ATOM      3  C   UNL     1       5.958   4.221  16.292  0.00  0.00    +0.000 A 
ATOM      4  N   UNL     1       6.801   4.473  17.335  0.00  0.00    +0.000 NA
ATOM      5  N   UNL     1       6.083   4.481  18.452  0.00  0.00    +0.000 NA
ENDROOT
BRANCH   1  12
ATOM      6 CL   UNL     1       2.725   6.570  18.488  0.00  0.00    +0.000 Cl
ATOM      7  C   UNL     1       2.900   5.124  19.424  0.00  0.00    +0.000 A 
ATOM      8  C   UNL     1       1.976   4.979  20.471  0.00  0.00    +0.000 A 
ATOM      9  C   UNL     1       1.932   3.808  21.225  0.00  0.00    +0.000 A 
ATOM     10  C   UNL     1       2.797   2.760  20.927  0.00  0.00    +0.000 A 
ATOM     11  C   UNL     1       3.714   2.888  19.882  0.00  0.00    +0.000 A 
ATOM     12  C   UNL     1       3.793   4.082  19.137  0.00  0.00    +0.000 A 
ENDBRANCH   1  12
BRANCH   3  13
ATOM     13  C   UNL     1       6.336   4.227  14.893  0.00  0.00    +0.000 A 
ATOM     14  C   UNL     1       7.392   5.038  14.460  0.00  0.00    +0.000 A 
ATOM     15  C   UNL     1       7.725   5.105  13.104  0.00  0.00    +0.000 A 
ATOM     16  C   UNL     1       7.014   4.352  12.172  0.00  0.00    +0.000 A 
ATOM     17  C   UNL     1       5.979   3.521  12.592  0.00  0.00    +0.000 A 
ATOM     18  C   UNL     1       5.644   3.456  13.946  0.00  0.00    +0.000 A 
ENDBRANCH   3  13
TORSDOF 2
ENDMDL
MODEL 5
REMARK VINA RESULT:      -7.5      1.296      1.521
REMARK  Name = 
REMARK  2 active torsions:
REMARK  status: ('A' for Active; 'I' for Inactive)
REMARK    1  A    between atoms: C_7  and  N_8
REMARK    2  A    between atoms: C_10  and  C_11
REMARK                            x       y       z     vdW  Elec       q    Type
REMARK                         _______ _______ _______ _____ _____    ______ ____
ROOT
ATOM      1  N   UNL     1       4.344   3.767  18.327  0.00  0.00    +0.000 N 
ATOM      2  C   UNL     1       4.326   3.738  16.955  0.00  0.00    +0.000 A 
ATOM      3  C   UNL     1       5.599   4.085  16.569  0.00  0.00    +0.000 A 
ATOM      4  N   UNL     1       6.338   4.368  17.681  0.00  0.00    +0.000 NA
ATOM      5  N   UNL     1       5.557   4.214  18.744  0.00  0.00    +0.000 NA
ENDROOT
BRANCH   1  12
ATOM      6 CL   UNL     1       1.350   4.594  17.585  0.00  0.00    +0.000 Cl
ATOM      7  C   UNL     1       1.971   3.903  19.046  0.00  0.00    +0.000 A 
ATOM      8  C   UNL     1       1.009   3.645  20.036  0.00  0.00    +0.000 A 
ATOM      9  C   UNL     1       1.358   2.984  21.212  0.00  0.00    +0.000 A 
ATOM     10  C   UNL     1       2.667   2.553  21.402  0.00  0.00    +0.000 A 
ATOM     11  C   UNL     1       3.629   2.793  20.421  0.00  0.00    +0.000 A 
ATOM     12  C   UNL     1       3.298   3.494  19.244  0.00  0.00    +0.000 A 
ENDBRANCH   1  12
BRANCH   3  13
ATOM     13  C   UNL     1       6.059   4.230  15.203  0.00  0.00    +0.000 A 
ATOM     14  C   UNL     1       5.399   3.556  14.168  0.00  0.00    +0.000 A 
ATOM     15  C   UNL     1       5.873   3.634  12.856  0.00  0.00    +0.000 A 
ATOM     16  C   UNL     1       7.001   4.398  12.564  0.00  0.00    +0.000 A 
ATOM     17  C   UNL     1       7.651   5.095  13.579  0.00  0.00    +0.000 A 
ATOM     18  C   UNL     1       7.181   5.015  14.891  0.00  0.00    +0.000 A 
ENDBRANCH   3  13
TORSDOF 2
ENDMDL
MODEL 6
REMARK VINA RESULT:      -7.3      1.309      1.880
REMARK  Name = 
REMARK  2 active torsions:
REMARK  status: ('A' for Active; 'I' for Inactive)
REMARK    1  A    between atoms: C_7  and  N_8
REMARK    2  A    between atoms: C_10  and  C_11
REMARK                            x       y       z     vdW  Elec       q    Type
REMARK                         _______ _______ _______ _____ _____    ______ ____
ROOT
ATOM      1  N   UNL     1       4.232   4.133  17.986  0.00  0.00    +0.000 N 
ATOM      2  C   UNL     1       4.438   3.658  16.714  0.00  0.00    +0.000 A 
ATOM      3  C   UNL     1       5.459   4.422  16.203  0.00  0.00    +0.000 A 
ATOM      4  N   UNL     1       5.813   5.365  17.125  0.00  0.00    +0.000 NA
ATOM      5  N   UNL     1       5.035   5.211  18.190  0.00  0.00    +0.000 NA
ENDROOT
BRANCH   1  12
ATOM      6 CL   UNL     1       1.118   4.647  17.503  0.00  0.00    +0.000 Cl
ATOM      7  C   UNL     1       1.922   3.974  18.881  0.00  0.00    +0.000 A 
ATOM      8  C   UNL     1       1.074   3.571  19.925  0.00  0.00    +0.000 A 
ATOM      9  C   UNL     1       1.582   2.908  21.039  0.00  0.00    +0.000 A 
ATOM     10  C   UNL     1       2.941   2.619  21.113  0.00  0.00    +0.000 A 
ATOM     11  C   UNL     1       3.793   3.004  20.077  0.00  0.00    +0.000 A 
ATOM     12  C   UNL     1       3.297   3.709  18.962  0.00  0.00    +0.000 A 
ENDBRANCH   1  12
BRANCH   3  13
ATOM     13  C   UNL     1       6.005   4.319  14.865  0.00  0.00    +0.000 A 
ATOM     14  C   UNL     1       7.177   5.009  14.534  0.00  0.00    +0.000 A 
ATOM     15  C   UNL     1       7.678   4.973  13.230  0.00  0.00    +0.000 A 
ATOM     16  C   UNL     1       7.020   4.234  12.248  0.00  0.00    +0.000 A 
ATOM     17  C   UNL     1       5.868   3.521  12.570  0.00  0.00    +0.000 A 
ATOM     18  C   UNL     1       5.366   3.560  13.873  0.00  0.00    +0.000 A 
ENDBRANCH   3  13
TORSDOF 2
ENDMDL
MODEL 7
REMARK VINA RESULT:      -7.2      1.166      1.734
REMARK  Name = 
REMARK  2 active torsions:
REMARK  status: ('A' for Active; 'I' for Inactive)
REMARK    1  A    between atoms: C_7  and  N_8
REMARK    2  A    between atoms: C_10  and  C_11
REMARK                            x       y       z     vdW  Elec       q    Type
REMARK                         _______ _______ _______ _____ _____    ______ ____
ROOT
ATOM      1  N   UNL     1       4.698   5.559  17.593  0.00  0.00    +0.000 N 
ATOM      2  C   UNL     1       4.736   4.796  16.452  0.00  0.00    +0.000 A 
ATOM      3  C   UNL     1       5.827   5.247  15.750  0.00  0.00    +0.000 A 
ATOM      4  N   UNL     1       6.390   6.290  16.427  0.00  0.00    +0.000 NA
ATOM      5  N   UNL     1       5.674   6.503  17.525  0.00  0.00    +0.000 NA
ENDROOT
BRANCH   1  12
ATOM      6 CL   UNL     1       4.588   2.977  19.469  0.00  0.00    +0.000 Cl
ATOM      7  C   UNL     1       3.593   4.395  19.487  0.00  0.00    +0.000 A 
ATOM      8  C   UNL     1       2.614   4.420  20.493  0.00  0.00    +0.000 A 
ATOM      9  C   UNL     1       1.827   5.552  20.691  0.00  0.00    +0.000 A 
ATOM     10  C   UNL     1       2.024   6.680  19.902  0.00  0.00    +0.000 A 
ATOM     11  C   UNL     1       3.001   6.671  18.906  0.00  0.00    +0.000 A 
ATOM     12  C   UNL     1       3.778   5.519  18.670  0.00  0.00    +0.000 A 
ENDBRANCH   1  12
BRANCH   3  13
ATOM     13  C   UNL     1       6.255   4.769  14.451  0.00  0.00    +0.000 A 
ATOM     14  C   UNL     1       7.408   5.296  13.858  0.00  0.00    +0.000 A 
ATOM     15  C   UNL     1       7.795   4.893  12.577  0.00  0.00    +0.000 A 
ATOM     16  C   UNL     1       7.040   3.950  11.883  0.00  0.00    +0.000 A 
ATOM     17  C   UNL     1       5.905   3.397  12.472  0.00  0.00    +0.000 A 
ATOM     18  C   UNL     1       5.517   3.802  13.751  0.00  0.00    +0.000 A 
ENDBRANCH   3  13
TORSDOF 2
ENDMDL
MODEL 8
REMARK VINA RESULT:      -7.0      4.118      8.139
REMARK  Name = 
REMARK  2 active torsions:
REMARK  status: ('A' for Active; 'I' for Inactive)
REMARK    1  A    between atoms: C_7  and  N_8
REMARK    2  A    between atoms: C_10  and  C_11
REMARK                            x       y       z     vdW  Elec       q    Type
REMARK                         _______ _______ _______ _____ _____    ______ ____
ROOT
ATOM      1  N   UNL     1       2.658   7.493  18.246  0.00  0.00    +0.000 N 
ATOM      2  C   UNL     1       2.173   7.647  19.521  0.00  0.00    +0.000 A 
ATOM      3  C   UNL     1       1.443   8.811  19.492  0.00  0.00    +0.000 A 
ATOM      4  N   UNL     1       1.539   9.364  18.248  0.00  0.00    +0.000 NA
ATOM      5  N   UNL     1       2.313   8.581  17.508  0.00  0.00    +0.000 NA
ENDROOT
BRANCH   1  12
ATOM      6 CL   UNL     1       1.554   4.498  18.160  0.00  0.00    +0.000 Cl
ATOM      7  C   UNL     1       3.114   5.109  17.721  0.00  0.00    +0.000 A 
ATOM      8  C   UNL     1       4.011   4.148  17.231  0.00  0.00    +0.000 A 
ATOM      9  C   UNL     1       5.257   4.525  16.733  0.00  0.00    +0.000 A 
ATOM     10  C   UNL     1       5.610   5.870  16.699  0.00  0.00    +0.000 A 
ATOM     11  C   UNL     1       4.723   6.836  17.174  0.00  0.00    +0.000 A 
ATOM     12  C   UNL     1       3.475   6.464  17.715  0.00  0.00    +0.000 A 
ENDBRANCH   1  12
BRANCH   3  13
ATOM     13  C   UNL     1       0.766   9.413  20.623  0.00  0.00    +0.000 A 
ATOM     14  C   UNL     1       0.920   8.864  21.902  0.00  0.00    +0.000 A 
ATOM     15  C   UNL     1       0.221   9.394  22.990  0.00  0.00    +0.000 A 
ATOM     16  C   UNL     1      -0.628  10.485  22.812  0.00  0.00    +0.000 A 
ATOM     17  C   UNL     1      -0.769  11.058  21.550  0.00  0.00    +0.000 A 
ATOM     18  C   UNL     1      -0.073  10.527  20.462  0.00  0.00    +0.000 A 
ENDBRANCH   3  13
TORSDOF 2
ENDMDL
MODEL 9
REMARK VINA RESULT:      -6.9      4.102      8.124
REMARK  Name = 
REMARK  2 active torsions:
REMARK  status: ('A' for Active; 'I' for Inactive)
REMARK    1  A    between atoms: C_7  and  N_8
REMARK    2  A    between atoms: C_10  and  C_11
REMARK                            x       y       z     vdW  Elec       q    Type
REMARK                         _______ _______ _______ _____ _____    ______ ____
ROOT
ATOM      1  N   UNL     1       2.696   7.474  18.233  0.00  0.00    +0.000 N 
ATOM      2  C   UNL     1       2.174   7.602  19.497  0.00  0.00    +0.000 A 
ATOM      3  C   UNL     1       1.433   8.759  19.467  0.00  0.00    +0.000 A 
ATOM      4  N   UNL     1       1.559   9.335  18.236  0.00  0.00    +0.000 NA
ATOM      5  N   UNL     1       2.362   8.571  17.504  0.00  0.00    +0.000 NA
ENDROOT
BRANCH   1  12
ATOM      6 CL   UNL     1       1.582   4.494  17.954  0.00  0.00    +0.000 Cl
ATOM      7  C   UNL     1       3.168   5.111  17.635  0.00  0.00    +0.000 A 
ATOM      8  C   UNL     1       4.088   4.163  17.158  0.00  0.00    +0.000 A 
ATOM      9  C   UNL     1       5.363   4.551  16.753  0.00  0.00    +0.000 A 
ATOM     10  C   UNL     1       5.726   5.893  16.797  0.00  0.00    +0.000 A 
ATOM     11  C   UNL     1       4.817   6.846  17.259  0.00  0.00    +0.000 A 
ATOM     12  C   UNL     1       3.538   6.462  17.708  0.00  0.00    +0.000 A 
ENDBRANCH   1  12
BRANCH   3  13
ATOM     13  C   UNL     1       0.719   9.335  20.588  0.00  0.00    +0.000 A 
ATOM     14  C   UNL     1      -0.097  10.457  20.393  0.00  0.00    +0.000 A 
ATOM     15  C   UNL     1      -0.739  11.063  21.476  0.00  0.00    +0.000 A 
ATOM     16  C   UNL     1      -0.582  10.547  22.761  0.00  0.00    +0.000 A 
ATOM     17  C   UNL     1       0.204   9.416  22.964  0.00  0.00    +0.000 A 
ATOM     18  C   UNL     1       0.849   8.811  21.883  0.00  0.00    +0.000 A 
ENDBRANCH   3  13
TORSDOF 2
ENDMDL
