MODEL 1
REMARK VINA RESULT:      -7.3      0.000      0.000
REMARK  Name = 
REMARK  8 active torsions:
REMARK  status: ('A' for Active; 'I' for Inactive)
REMARK    1  A    between atoms: C_1  and  C_2
REMARK    2  A    between atoms: C_3  and  C_4
REMARK    3  A    between atoms: C_6  and  C_7
REMARK    4  A    between atoms: C_10  and  C_11
REMARK    5  A    between atoms: C_11  and  C_12
REMARK    6  A    between atoms: C_11  and  C_13
REMARK    7  A    between atoms: C_11  and  C_14
REMARK    8  A    between atoms: N_19  and  C_20
REMARK                            x       y       z     vdW  Elec       q    Type
REMARK                         _______ _______ _______ _____ _____    ______ ____
ROOT
ATOM      1  C   UNL     1       6.872   6.619  17.581  0.00  0.00    +0.000 A 
ATOM      2  N   UNL     1       7.011   7.922  17.349  0.00  0.00    +0.000 NA
ATOM      3  C   UNL     1       8.047   8.317  18.187  0.00  0.00    +0.000 A 
ATOM      4  N   UNL     1       8.539   7.307  18.917  0.00  0.00    +0.000 NA
ATOM      5  O   UNL     1       7.794   6.214  18.528  0.00  0.00    +0.000 OA
ENDROOT
BRANCH   1   8
ATOM      6  C   UNL     1       4.248   5.389  18.974  0.00  0.00    +0.000 C 
ATOM      7  C   UNL     1       4.872   5.187  17.646  0.00  0.00    +0.000 A 
ATOM      8  C   UNL     1       5.951   5.669  17.004  0.00  0.00    +0.000 A 
ATOM      9  N   UNL     1       5.981   5.161  15.710  0.00  0.00    +0.000 N 
ATOM     10  C   UNL     1       7.095   4.938  14.814  0.00  0.00    +0.000 C 
ATOM     11  O   UNL     1       4.960   4.221  15.547  0.00  0.00    +0.000 OA
ATOM     12  C   UNL     1       4.230   4.234  16.703  0.00  0.00    +0.000 A 
ATOM     13  O   UNL     1       3.238   3.559  16.930  0.00  0.00    +0.000 OA
ENDBRANCH   1   8
BRANCH   3  14
ATOM     14  C   UNL     1       8.561   9.693  18.300  0.00  0.00    +0.000 A 
ATOM     15  C   UNL     1       9.559  10.034  19.214  0.00  0.00    +0.000 A 
ATOM     16  C   UNL     1      10.059  11.354  19.288  0.00  0.00    +0.000 A 
ATOM     17  C   UNL     1       9.580  12.382  18.456  0.00  0.00    +0.000 A 
ATOM     18  C   UNL     1       8.558  12.032  17.558  0.00  0.00    +0.000 A 
ATOM     19  C   UNL     1       8.059  10.719  17.484  0.00  0.00    +0.000 A 
BRANCH  17  20
ATOM     20  C   UNL     1      10.147  13.822  18.480  0.00  0.00    +0.000 C 
ATOM     21  C   UNL     1       9.053  14.914  18.498  0.00  0.00    +0.000 C 
ATOM     22  C   UNL     1      11.014  14.032  19.743  0.00  0.00    +0.000 C 
ATOM     23  C   UNL     1      11.033  14.093  17.243  0.00  0.00    +0.000 C 
ENDBRANCH  17  20
ENDBRANCH   3  14
TORSDOF 3
ENDMDL
MODEL 2
REMARK VINA RESULT:      -7.2      6.159     10.157
REMARK  Name = 
REMARK  8 active torsions:
REMARK  status: ('A' for Active; 'I' for Inactive)
REMARK    1  A    between atoms: C_1  and  C_2
REMARK    2  A    between atoms: C_3  and  C_4
REMARK    3  A    between atoms: C_6  and  C_7
REMARK    4  A    between atoms: C_10  and  C_11
REMARK    5  A    between atoms: C_11  and  C_12
REMARK    6  A    between atoms: C_11  and  C_13
REMARK    7  A    between atoms: C_11  and  C_14
REMARK    8  A    between atoms: N_19  and  C_20
REMARK                            x       y       z     vdW  Elec       q    Type
REMARK                         _______ _______ _______ _____ _____    ______ ____
ROOT
ATOM      1  C   UNL     1       1.332  10.641  18.555  0.00  0.00    +0.000 A 
ATOM      2  N   UNL     1       1.244   9.547  19.308  0.00  0.00    +0.000 NA
ATOM      3  C   UNL     1       1.936   8.576  18.594  0.00  0.00    +0.000 A 
ATOM      4  N   UNL     1       2.437   9.036  17.441  0.00  0.00    +0.000 NA
ATOM      5  O   UNL     1       2.059  10.363  17.413  0.00  0.00    +0.000 OA
ENDROOT
BRANCH   1   8
ATOM      6  C   UNL     1       2.957  13.414  18.439  0.00  0.00    +0.000 C 
ATOM      7  C   UNL     1       1.542  13.088  18.723  0.00  0.00    +0.000 A 
ATOM      8  C   UNL     1       0.803  11.965  18.780  0.00  0.00    +0.000 A 
ATOM      9  N   UNL     1      -0.526  12.300  19.016  0.00  0.00    +0.000 N 
ATOM     10  C   UNL     1      -1.588  11.544  19.643  0.00  0.00    +0.000 C 
ATOM     11  O   UNL     1      -0.633  13.674  19.247  0.00  0.00    +0.000 OA
ATOM     12  C   UNL     1       0.610  14.203  19.039  0.00  0.00    +0.000 A 
ATOM     13  O   UNL     1       0.910  15.384  19.123  0.00  0.00    +0.000 OA
ENDBRANCH   1   8
BRANCH   3  14
ATOM     14  C   UNL     1       2.103   7.176  19.021  0.00  0.00    +0.000 A 
ATOM     15  C   UNL     1       1.840   6.767  20.330  0.00  0.00    +0.000 A 
ATOM     16  C   UNL     1       1.980   5.414  20.712  0.00  0.00    +0.000 A 
ATOM     17  C   UNL     1       2.389   4.420  19.805  0.00  0.00    +0.000 A 
ATOM     18  C   UNL     1       2.676   4.847  18.498  0.00  0.00    +0.000 A 
ATOM     19  C   UNL     1       2.538   6.194  18.117  0.00  0.00    +0.000 A 
BRANCH  17  20
ATOM     20  C   UNL     1       2.499   2.924  20.185  0.00  0.00    +0.000 C 
ATOM     21  C   UNL     1       3.949   2.390  20.174  0.00  0.00    +0.000 C 
ATOM     22  C   UNL     1       1.945   2.694  21.611  0.00  0.00    +0.000 C 
ATOM     23  C   UNL     1       1.688   2.040  19.210  0.00  0.00    +0.000 C 
ENDBRANCH  17  20
ENDBRANCH   3  14
TORSDOF 3
ENDMDL
MODEL 3
REMARK VINA RESULT:      -7.2      5.785      7.685
REMARK  Name = 
REMARK  8 active torsions:
REMARK  status: ('A' for Active; 'I' for Inactive)
REMARK    1  A    between atoms: C_1  and  C_2
REMARK    2  A    between atoms: C_3  and  C_4
REMARK    3  A    between atoms: C_6  and  C_7
REMARK    4  A    between atoms: C_10  and  C_11
REMARK    5  A    between atoms: C_11  and  C_12
REMARK    6  A    between atoms: C_11  and  C_13
REMARK    7  A    between atoms: C_11  and  C_14
REMARK    8  A    between atoms: N_19  and  C_20
REMARK                            x       y       z     vdW  Elec       q    Type
REMARK                         _______ _______ _______ _____ _____    ______ ____
ROOT
ATOM      1  C   UNL     1       2.996   6.404  18.614  0.00  0.00    +0.000 A 
ATOM      2  N   UNL     1       2.158   6.908  19.518  0.00  0.00    +0.000 NA
ATOM      3  C   UNL     1       1.948   8.217  19.106  0.00  0.00    +0.000 A 
ATOM      4  N   UNL     1       2.623   8.528  17.992  0.00  0.00    +0.000 NA
ATOM      5  O   UNL     1       3.293   7.367  17.668  0.00  0.00    +0.000 OA
ENDROOT
BRANCH   1   8
ATOM      6  C   UNL     1       1.433   3.647  18.075  0.00  0.00    +0.000 C 
ATOM      7  C   UNL     1       2.861   3.967  18.301  0.00  0.00    +0.000 A 
ATOM      8  C   UNL     1       3.575   5.085  18.521  0.00  0.00    +0.000 A 
ATOM      9  N   UNL     1       4.927   4.764  18.574  0.00  0.00    +0.000 N 
ATOM     10  C   UNL     1       6.023   5.423  19.249  0.00  0.00    +0.000 C 
ATOM     11  O   UNL     1       5.086   3.378  18.511  0.00  0.00    +0.000 OA
ATOM     12  C   UNL     1       3.842   2.851  18.305  0.00  0.00    +0.000 A 
ATOM     13  O   UNL     1       3.579   1.665  18.173  0.00  0.00    +0.000 OA
ENDBRANCH   1   8
BRANCH   3  14
ATOM     14  C   UNL     1       1.093   9.194  19.805  0.00  0.00    +0.000 A 
ATOM     15  C   UNL     1       0.597   8.953  21.088  0.00  0.00    +0.000 A 
ATOM     16  C   UNL     1      -0.198   9.914  21.752  0.00  0.00    +0.000 A 
ATOM     17  C   UNL     1      -0.529  11.148  21.162  0.00  0.00    +0.000 A 
ATOM     18  C   UNL     1      -0.045  11.367  19.862  0.00  0.00    +0.000 A 
ATOM     19  C   UNL     1       0.746  10.411  19.199  0.00  0.00    +0.000 A 
BRANCH  17  20
ATOM     20  C   UNL     1      -1.352  12.238  21.890  0.00  0.00    +0.000 C 
ATOM     21  C   UNL     1      -2.517  12.797  21.042  0.00  0.00    +0.000 C 
ATOM     22  C   UNL     1      -1.972  11.663  23.185  0.00  0.00    +0.000 C 
ATOM     23  C   UNL     1      -0.463  13.441  22.280  0.00  0.00    +0.000 C 
ENDBRANCH  17  20
ENDBRANCH   3  14
TORSDOF 3
ENDMDL
MODEL 4
REMARK VINA RESULT:      -7.2      0.169      1.011
REMARK  Name = 
REMARK  8 active torsions:
REMARK  status: ('A' for Active; 'I' for Inactive)
REMARK    1  A    between atoms: C_1  and  C_2
REMARK    2  A    between atoms: C_3  and  C_4
REMARK    3  A    between atoms: C_6  and  C_7
REMARK    4  A    between atoms: C_10  and  C_11
REMARK    5  A    between atoms: C_11  and  C_12
REMARK    6  A    between atoms: C_11  and  C_13
REMARK    7  A    between atoms: C_11  and  C_14
REMARK    8  A    between atoms: N_19  and  C_20
REMARK                            x       y       z     vdW  Elec       q    Type
REMARK                         _______ _______ _______ _____ _____    ______ ____
ROOT
ATOM      1  C   UNL     1       6.889   6.634  17.608  0.00  0.00    +0.000 A 
ATOM      2  N   UNL     1       7.029   7.936  17.364  0.00  0.00    +0.000 NA
ATOM      3  C   UNL     1       8.060   8.338  18.204  0.00  0.00    +0.000 A 
ATOM      4  N   UNL     1       8.549   7.336  18.945  0.00  0.00    +0.000 NA
ATOM      5  O   UNL     1       7.806   6.239  18.563  0.00  0.00    +0.000 OA
ENDROOT
BRANCH   1   8
ATOM      6  C   UNL     1       4.267   5.405  19.006  0.00  0.00    +0.000 C 
ATOM      7  C   UNL     1       4.892   5.197  17.680  0.00  0.00    +0.000 A 
ATOM      8  C   UNL     1       5.970   5.679  17.036  0.00  0.00    +0.000 A 
ATOM      9  N   UNL     1       6.003   5.164  15.745  0.00  0.00    +0.000 N 
ATOM     10  C   UNL     1       7.118   4.939  14.851  0.00  0.00    +0.000 C 
ATOM     11  O   UNL     1       4.985   4.220  15.587  0.00  0.00    +0.000 OA
ATOM     12  C   UNL     1       4.254   4.237  16.742  0.00  0.00    +0.000 A 
ATOM     13  O   UNL     1       3.264   3.561  16.972  0.00  0.00    +0.000 OA
ENDBRANCH   1   8
BRANCH   3  14
ATOM     14  C   UNL     1       8.574   9.716  18.306  0.00  0.00    +0.000 A 
ATOM     15  C   UNL     1       8.085  10.747  17.502  0.00  0.00    +0.000 A 
ATOM     16  C   UNL     1       8.572  12.067  17.635  0.00  0.00    +0.000 A 
ATOM     17  C   UNL     1       9.564  12.407  18.573  0.00  0.00    +0.000 A 
ATOM     18  C   UNL     1      10.066  11.356  19.358  0.00  0.00    +0.000 A 
ATOM     19  C   UNL     1       9.583  10.041  19.226  0.00  0.00    +0.000 A 
BRANCH  17  20
ATOM     20  C   UNL     1      10.075  13.854  18.775  0.00  0.00    +0.000 C 
ATOM     21  C   UNL     1       8.951  14.914  18.737  0.00  0.00    +0.000 C 
ATOM     22  C   UNL     1      10.773  13.985  20.148  0.00  0.00    +0.000 C 
ATOM     23  C   UNL     1      11.095  14.243  17.681  0.00  0.00    +0.000 C 
ENDBRANCH  17  20
ENDBRANCH   3  14
TORSDOF 3
ENDMDL
MODEL 5
REMARK VINA RESULT:      -7.2      5.814      7.718
REMARK  Name = 
REMARK  8 active torsions:
REMARK  status: ('A' for Active; 'I' for Inactive)
REMARK    1  A    between atoms: C_1  and  C_2
REMARK    2  A    between atoms: C_3  and  C_4
REMARK    3  A    between atoms: C_6  and  C_7
REMARK    4  A    between atoms: C_10  and  C_11
REMARK    5  A    between atoms: C_11  and  C_12
REMARK    6  A    between atoms: C_11  and  C_13
REMARK    7  A    between atoms: C_11  and  C_14
REMARK    8  A    between atoms: N_19  and  C_20
REMARK                            x       y       z     vdW  Elec       q    Type
REMARK                         _______ _______ _______ _____ _____    ______ ____
ROOT
ATOM      1  C   UNL     1       2.985   6.382  18.621  0.00  0.00    +0.000 A 
ATOM      2  N   UNL     1       2.207   6.934  19.550  0.00  0.00    +0.000 NA
ATOM      3  C   UNL     1       1.984   8.227  19.095  0.00  0.00    +0.000 A 
ATOM      4  N   UNL     1       2.594   8.482  17.930  0.00  0.00    +0.000 NA
ATOM      5  O   UNL     1       3.232   7.300  17.617  0.00  0.00    +0.000 OA
ENDROOT
BRANCH   1   8
ATOM      6  C   UNL     1       1.380   3.636  18.147  0.00  0.00    +0.000 C 
ATOM      7  C   UNL     1       2.814   3.941  18.357  0.00  0.00    +0.000 A 
ATOM      8  C   UNL     1       3.545   5.053  18.551  0.00  0.00    +0.000 A 
ATOM      9  N   UNL     1       4.892   4.716  18.602  0.00  0.00    +0.000 N 
ATOM     10  C   UNL     1       6.002   5.373  19.258  0.00  0.00    +0.000 C 
ATOM     11  O   UNL     1       5.032   3.326  18.567  0.00  0.00    +0.000 OA
ATOM     12  C   UNL     1       3.780   2.812  18.379  0.00  0.00    +0.000 A 
ATOM     13  O   UNL     1       3.500   1.628  18.273  0.00  0.00    +0.000 OA
ENDBRANCH   1   8
BRANCH   3  14
ATOM     14  C   UNL     1       1.182   9.242  19.801  0.00  0.00    +0.000 A 
ATOM     15  C   UNL     1       0.904  10.487  19.234  0.00  0.00    +0.000 A 
ATOM     16  C   UNL     1       0.110  11.437  19.916  0.00  0.00    +0.000 A 
ATOM     17  C   UNL     1      -0.432  11.181  21.189  0.00  0.00    +0.000 A 
ATOM     18  C   UNL     1      -0.124   9.935  21.760  0.00  0.00    +0.000 A 
ATOM     19  C   UNL     1       0.667   8.990  21.082  0.00  0.00    +0.000 A 
BRANCH  17  20
ATOM     20  C   UNL     1      -1.348  12.183  21.933  0.00  0.00    +0.000 C 
ATOM     21  C   UNL     1      -2.562  12.646  21.095  0.00  0.00    +0.000 C 
ATOM     22  C   UNL     1      -1.909  11.536  23.221  0.00  0.00    +0.000 C 
ATOM     23  C   UNL     1      -0.570  13.455  22.338  0.00  0.00    +0.000 C 
ENDBRANCH  17  20
ENDBRANCH   3  14
TORSDOF 3
ENDMDL
MODEL 6
REMARK VINA RESULT:      -7.2      5.913      7.892
REMARK  Name = 
REMARK  8 active torsions:
REMARK  status: ('A' for Active; 'I' for Inactive)
REMARK    1  A    between atoms: C_1  and  C_2
REMARK    2  A    between atoms: C_3  and  C_4
REMARK    3  A    between atoms: C_6  and  C_7
REMARK    4  A    between atoms: C_10  and  C_11
REMARK    5  A    between atoms: C_11  and  C_12
REMARK    6  A    between atoms: C_11  and  C_13
REMARK    7  A    between atoms: C_11  and  C_14
REMARK    8  A    between atoms: N_19  and  C_20
REMARK                            x       y       z     vdW  Elec       q    Type
REMARK                         _______ _______ _______ _____ _____    ______ ____
ROOT
ATOM      1  C   UNL     1       3.048   6.338  19.206  0.00  0.00    +0.000 A 
ATOM      2  N   UNL     1       2.322   6.955  20.135  0.00  0.00    +0.000 NA
ATOM      3  C   UNL     1       1.840   8.094  19.502  0.00  0.00    +0.000 A 
ATOM      4  N   UNL     1       2.244   8.191  18.229  0.00  0.00    +0.000 NA
ATOM      5  O   UNL     1       3.014   7.064  18.030  0.00  0.00    +0.000 OA
ENDROOT
BRANCH   1   8
ATOM      6  C   UNL     1       1.948   3.470  20.158  0.00  0.00    +0.000 C 
ATOM      7  C   UNL     1       3.275   3.937  19.698  0.00  0.00    +0.000 A 
ATOM      8  C   UNL     1       3.796   5.105  19.282  0.00  0.00    +0.000 A 
ATOM      9  N   UNL     1       5.115   4.908  18.889  0.00  0.00    +0.000 N 
ATOM     10  C   UNL     1       6.232   5.826  18.852  0.00  0.00    +0.000 C 
ATOM     11  O   UNL     1       5.502   3.596  19.177  0.00  0.00    +0.000 OA
ATOM     12  C   UNL     1       4.389   2.954  19.641  0.00  0.00    +0.000 A 
ATOM     13  O   UNL     1       4.326   1.781  19.976  0.00  0.00    +0.000 OA
ENDBRANCH   1   8
BRANCH   3  14
ATOM     14  C   UNL     1       0.988   9.115  20.137  0.00  0.00    +0.000 A 
ATOM     15  C   UNL     1       0.764   9.135  21.515  0.00  0.00    +0.000 A 
ATOM     16  C   UNL     1      -0.033  10.140  22.108  0.00  0.00    +0.000 A 
ATOM     17  C   UNL     1      -0.639  11.158  21.349  0.00  0.00    +0.000 A 
ATOM     18  C   UNL     1      -0.427  11.112  19.962  0.00  0.00    +0.000 A 
ATOM     19  C   UNL     1       0.366  10.112  19.369  0.00  0.00    +0.000 A 
BRANCH  17  20
ATOM     20  C   UNL     1      -1.472  12.299  21.981  0.00  0.00    +0.000 C 
ATOM     21  C   UNL     1      -0.620  13.511  22.423  0.00  0.00    +0.000 C 
ATOM     22  C   UNL     1      -2.511  12.826  20.964  0.00  0.00    +0.000 C 
ATOM     23  C   UNL     1      -2.235  11.806  23.232  0.00  0.00    +0.000 C 
ENDBRANCH  17  20
ENDBRANCH   3  14
TORSDOF 3
ENDMDL
MODEL 7
REMARK VINA RESULT:      -7.2      6.207     10.076
REMARK  Name = 
REMARK  8 active torsions:
REMARK  status: ('A' for Active; 'I' for Inactive)
REMARK    1  A    between atoms: C_1  and  C_2
REMARK    2  A    between atoms: C_3  and  C_4
REMARK    3  A    between atoms: C_6  and  C_7
REMARK    4  A    between atoms: C_10  and  C_11
REMARK    5  A    between atoms: C_11  and  C_12
REMARK    6  A    between atoms: C_11  and  C_13
REMARK    7  A    between atoms: C_11  and  C_14
REMARK    8  A    between atoms: N_19  and  C_20
REMARK                            x       y       z     vdW  Elec       q    Type
REMARK                         _______ _______ _______ _____ _____    ______ ____
ROOT
ATOM      1  C   UNL     1       1.406  10.633  18.693  0.00  0.00    +0.000 A 
ATOM      2  N   UNL     1       1.372   9.537  19.448  0.00  0.00    +0.000 NA
ATOM      3  C   UNL     1       1.932   8.547  18.650  0.00  0.00    +0.000 A 
ATOM      4  N   UNL     1       2.302   8.998  17.445  0.00  0.00    +0.000 NA
ATOM      5  O   UNL     1       1.973  10.337  17.468  0.00  0.00    +0.000 OA
ENDROOT
BRANCH   1   8
ATOM      6  C   UNL     1      -1.576  11.540  19.484  0.00  0.00    +0.000 C 
ATOM      7  C   UNL     1      -0.311  12.287  19.305  0.00  0.00    +0.000 A 
ATOM      8  C   UNL     1       0.958  11.974  18.987  0.00  0.00    +0.000 A 
ATOM      9  N   UNL     1       1.746  13.117  19.056  0.00  0.00    +0.000 N 
ATOM     10  C   UNL     1       2.973  13.455  18.368  0.00  0.00    +0.000 C 
ATOM     11  O   UNL     1       0.940  14.231  19.303  0.00  0.00    +0.000 OA
ATOM     12  C   UNL     1      -0.328  13.761  19.501  0.00  0.00    +0.000 A 
ATOM     13  O   UNL     1      -1.309  14.437  19.766  0.00  0.00    +0.000 OA
ENDBRANCH   1   8
BRANCH   3  14
ATOM     14  C   UNL     1       2.099   7.138  19.048  0.00  0.00    +0.000 A 
ATOM     15  C   UNL     1       1.861   6.708  20.354  0.00  0.00    +0.000 A 
ATOM     16  C   UNL     1       2.000   5.347  20.709  0.00  0.00    +0.000 A 
ATOM     17  C   UNL     1       2.384   4.367  19.776  0.00  0.00    +0.000 A 
ATOM     18  C   UNL     1       2.646   4.816  18.471  0.00  0.00    +0.000 A 
ATOM     19  C   UNL     1       2.509   6.171  18.117  0.00  0.00    +0.000 A 
BRANCH  17  20
ATOM     20  C   UNL     1       2.492   2.863  20.127  0.00  0.00    +0.000 C 
ATOM     21  C   UNL     1       1.711   1.948  19.156  0.00  0.00    +0.000 C 
ATOM     22  C   UNL     1       3.970   2.410  20.084  0.00  0.00    +0.000 C 
ATOM     23  C   UNL     1       1.947   2.581  21.546  0.00  0.00    +0.000 C 
ENDBRANCH  17  20
ENDBRANCH   3  14
TORSDOF 3
ENDMDL
MODEL 8
REMARK VINA RESULT:      -7.2      5.941      7.960
REMARK  Name = 
REMARK  8 active torsions:
REMARK  status: ('A' for Active; 'I' for Inactive)
REMARK    1  A    between atoms: C_1  and  C_2
REMARK    2  A    between atoms: C_3  and  C_4
REMARK    3  A    between atoms: C_6  and  C_7
REMARK    4  A    between atoms: C_10  and  C_11
REMARK    5  A    between atoms: C_11  and  C_12
REMARK    6  A    between atoms: C_11  and  C_13
REMARK    7  A    between atoms: C_11  and  C_14
REMARK    8  A    between atoms: N_19  and  C_20
REMARK                            x       y       z     vdW  Elec       q    Type
REMARK                         _______ _______ _______ _____ _____    ______ ____
ROOT
ATOM      1  C   UNL     1       2.969   6.345  19.196  0.00  0.00    +0.000 A 
ATOM      2  N   UNL     1       2.284   7.008  20.126  0.00  0.00    +0.000 NA
ATOM      3  C   UNL     1       1.825   8.146  19.476  0.00  0.00    +0.000 A 
ATOM      4  N   UNL     1       2.204   8.201  18.192  0.00  0.00    +0.000 NA
ATOM      5  O   UNL     1       2.932   7.045  18.005  0.00  0.00    +0.000 OA
ENDROOT
BRANCH   1   8
ATOM      6  C   UNL     1       1.746   3.495  20.045  0.00  0.00    +0.000 C 
ATOM      7  C   UNL     1       3.106   3.931  19.656  0.00  0.00    +0.000 A 
ATOM      8  C   UNL     1       3.678   5.091  19.286  0.00  0.00    +0.000 A 
ATOM      9  N   UNL     1       5.008   4.863  18.952  0.00  0.00    +0.000 N 
ATOM     10  C   UNL     1       6.151   5.750  18.986  0.00  0.00    +0.000 C 
ATOM     11  O   UNL     1       5.345   3.537  19.235  0.00  0.00    +0.000 OA
ATOM     12  C   UNL     1       4.194   2.918  19.635  0.00  0.00    +0.000 A 
ATOM     13  O   UNL     1       4.083   1.742  19.946  0.00  0.00    +0.000 OA
ENDBRANCH   1   8
BRANCH   3  14
ATOM     14  C   UNL     1       1.021   9.209  20.104  0.00  0.00    +0.000 A 
ATOM     15  C   UNL     1       0.566  10.314  19.383  0.00  0.00    +0.000 A 
ATOM     16  C   UNL     1      -0.227  11.309  19.998  0.00  0.00    +0.000 A 
ATOM     17  C   UNL     1      -0.594  11.240  21.354  0.00  0.00    +0.000 A 
ATOM     18  C   UNL     1      -0.109  10.137  22.076  0.00  0.00    +0.000 A 
ATOM     19  C   UNL     1       0.682   9.146  21.465  0.00  0.00    +0.000 A 
BRANCH  17  20
ATOM     20  C   UNL     1      -1.505  12.288  22.037  0.00  0.00    +0.000 C 
ATOM     21  C   UNL     1      -0.747  13.551  22.506  0.00  0.00    +0.000 C 
ATOM     22  C   UNL     1      -2.603  12.759  21.056  0.00  0.00    +0.000 C 
ATOM     23  C   UNL     1      -2.201  11.694  23.283  0.00  0.00    +0.000 C 
ENDBRANCH  17  20
ENDBRANCH   3  14
TORSDOF 3
ENDMDL
MODEL 9
REMARK VINA RESULT:      -7.1      5.838      7.670
REMARK  Name = 
REMARK  8 active torsions:
REMARK  status: ('A' for Active; 'I' for Inactive)
REMARK    1  A    between atoms: C_1  and  C_2
REMARK    2  A    between atoms: C_3  and  C_4
REMARK    3  A    between atoms: C_6  and  C_7
REMARK    4  A    between atoms: C_10  and  C_11
REMARK    5  A    between atoms: C_11  and  C_12
REMARK    6  A    between atoms: C_11  and  C_13
REMARK    7  A    between atoms: C_11  and  C_14
REMARK    8  A    between atoms: N_19  and  C_20
REMARK                            x       y       z     vdW  Elec       q    Type
REMARK                         _______ _______ _______ _____ _____    ______ ____
ROOT
ATOM      1  C   UNL     1       2.931   6.799  18.150  0.00  0.00    +0.000 A 
ATOM      2  N   UNL     1       2.144   7.237  19.130  0.00  0.00    +0.000 NA
ATOM      3  C   UNL     1       1.841   8.545  18.775  0.00  0.00    +0.000 A 
ATOM      4  N   UNL     1       2.412   8.917  17.623  0.00  0.00    +0.000 NA
ATOM      5  O   UNL     1       3.108   7.799  17.213  0.00  0.00    +0.000 OA
ENDROOT
BRANCH   1   8
ATOM      6  C   UNL     1       1.468   3.940  17.993  0.00  0.00    +0.000 C 
ATOM      7  C   UNL     1       2.889   4.348  17.923  0.00  0.00    +0.000 A 
ATOM      8  C   UNL     1       3.562   5.512  17.973  0.00  0.00    +0.000 A 
ATOM      9  N   UNL     1       4.915   5.271  17.763  0.00  0.00    +0.000 N 
ATOM     10  C   UNL     1       6.079   6.014  18.193  0.00  0.00    +0.000 C 
ATOM     11  O   UNL     1       5.145   3.894  17.701  0.00  0.00    +0.000 OA
ATOM     12  C   UNL     1       3.920   3.290  17.757  0.00  0.00    +0.000 A 
ATOM     13  O   UNL     1       3.711   2.088  17.707  0.00  0.00    +0.000 OA
ENDBRANCH   1   8
BRANCH   3  14
ATOM     14  C   UNL     1       1.000   9.460  19.568  0.00  0.00    +0.000 A 
ATOM     15  C   UNL     1       0.952   9.397  20.961  0.00  0.00    +0.000 A 
ATOM     16  C   UNL     1       0.161  10.301  21.704  0.00  0.00    +0.000 A 
ATOM     17  C   UNL     1      -0.614  11.299  21.085  0.00  0.00    +0.000 A 
ATOM     18  C   UNL     1      -0.578  11.336  19.682  0.00  0.00    +0.000 A 
ATOM     19  C   UNL     1       0.209  10.435  18.941  0.00  0.00    +0.000 A 
BRANCH  17  20
ATOM     20  C   UNL     1      -1.447  12.334  21.878  0.00  0.00    +0.000 C 
ATOM     21  C   UNL     1      -2.075  11.761  23.169  0.00  0.00    +0.000 C 
ATOM     22  C   UNL     1      -0.555  13.525  22.301  0.00  0.00    +0.000 C 
ATOM     23  C   UNL     1      -2.609  12.889  21.023  0.00  0.00    +0.000 C 
ENDBRANCH  17  20
ENDBRANCH   3  14
TORSDOF 3
ENDMDL
