MODEL 1
REMARK VINA RESULT:      -8.5      0.000      0.000
REMARK  Name = 
REMARK  9 active torsions:
REMARK  status: ('A' for Active; 'I' for Inactive)
REMARK    1  A    between atoms: C_1  and  C_2
REMARK    2  A    between atoms: C_2  and  C_3
REMARK    3  A    between atoms: C_2  and  C_4
REMARK    4  A    between atoms: C_2  and  O_5
REMARK    5  A    between atoms: O_5  and  C_6
REMARK    6  A    between atoms: N_8  and  C_9
REMARK    7  A    between atoms: C_9  and  C_10
REMARK    8  A    between atoms: C_14  and  C_15
REMARK    9  A    between atoms: C_21  and  C_22
REMARK                            x       y       z     vdW  Elec       q    Type
REMARK                         _______ _______ _______ _____ _____    ______ ____
ROOT
ATOM      1  C   UNL     1       0.857  10.056  19.681  0.00  0.00    +0.000 A 
ATOM      2  C   UNL     1       1.397  10.649  18.533  0.00  0.00    +0.000 A 
ATOM      3  C   UNL     1       2.237   9.923  17.694  0.00  0.00    +0.000 A 
ATOM      4  C   UNL     1       2.555   8.599  17.999  0.00  0.00    +0.000 A 
ATOM      5  C   UNL     1       2.061   8.002  19.165  0.00  0.00    +0.000 A 
ATOM      6  C   UNL     1       1.207   8.734  20.001  0.00  0.00    +0.000 A 
ENDROOT
BRANCH   5   7
ATOM      7  C   UNL     1       2.375   6.583  19.513  0.00  0.00    +0.000 A 
ATOM      8  C   UNL     1       1.572   5.970  20.615  0.00  0.00    +0.000 A 
ATOM      9  C   UNL     1       1.866   4.714  20.977  0.00  0.00    +0.000 A 
ATOM     10  C   UNL     1       2.888   4.017  20.301  0.00  0.00    +0.000 A 
ATOM     11  N   UNL     1       3.336   2.792  20.464  0.00  0.00    +0.000 NA
ATOM     12  C   UNL     1       4.316   2.652  19.518  0.00  0.00    +0.000 A 
ATOM     13  C   UNL     1       4.490   3.804  18.765  0.00  0.00    +0.000 A 
ATOM     14  N   UNL     1       3.545   4.680  19.280  0.00  0.00    +0.000 N 
ATOM     15  N   UNL     1       3.307   5.961  18.853  0.00  0.00    +0.000 NA
BRANCH  13  16
ATOM     16  C   UNL     1       5.412   4.083  17.658  0.00  0.00    +0.000 A 
ATOM     17  C   UNL     1       6.706   4.547  17.917  0.00  0.00    +0.000 A 
ATOM     18  C   UNL     1       7.558   4.787  16.849  0.00  0.00    +0.000 A 
ATOM     19  N   UNL     1       7.217   4.604  15.557  0.00  0.00    +0.000 NA
ATOM     20  C   UNL     1       5.962   4.169  15.325  0.00  0.00    +0.000 A 
ATOM     21  C   UNL     1       5.037   3.909  16.323  0.00  0.00    +0.000 A 
ENDBRANCH  13  16
ENDBRANCH   5   7
BRANCH   1  22
ATOM     22  C   UNL     1      -0.116  10.815  20.535  0.00  0.00    +0.000 C 
BRANCH  22  25
ATOM     23  C   UNL     1      -1.948  11.872  19.397  0.00  0.00    +0.000 C 
ATOM     24  O   UNL     1      -1.307  12.906  19.269  0.00  0.00    +0.000 OA
ATOM     25  N   UNL     1      -1.460  10.773  20.034  0.00  0.00    +0.000 N 
ATOM     26  H   UNL     1      -2.012   9.926  20.038  0.00  0.00    +0.000 HD
BRANCH  23  27
ATOM     27  O   UNL     1      -3.203  11.653  18.929  0.00  0.00    +0.000 OA
BRANCH  27  29
ATOM     28  C   UNL     1      -2.066  11.273  16.782  0.00  0.00    +0.000 C 
ATOM     29  C   UNL     1      -3.353  11.087  17.599  0.00  0.00    +0.000 C 
ATOM     30  C   UNL     1      -4.584  11.660  16.881  0.00  0.00    +0.000 C 
ATOM     31  C   UNL     1      -3.573   9.576  17.788  0.00  0.00    +0.000 C 
ENDBRANCH  27  29
ENDBRANCH  23  27
ENDBRANCH  22  25
ENDBRANCH   1  22
TORSDOF 6
ENDMDL
MODEL 2
REMARK VINA RESULT:      -8.4      0.124      1.187
REMARK  Name = 
REMARK  9 active torsions:
REMARK  status: ('A' for Active; 'I' for Inactive)
REMARK    1  A    between atoms: C_1  and  C_2
REMARK    2  A    between atoms: C_2  and  C_3
REMARK    3  A    between atoms: C_2  and  C_4
REMARK    4  A    between atoms: C_2  and  O_5
REMARK    5  A    between atoms: O_5  and  C_6
REMARK    6  A    between atoms: N_8  and  C_9
REMARK    7  A    between atoms: C_9  and  C_10
REMARK    8  A    between atoms: C_14  and  C_15
REMARK    9  A    between atoms: C_21  and  C_22
REMARK                            x       y       z     vdW  Elec       q    Type
REMARK                         _______ _______ _______ _____ _____    ______ ____
ROOT
ATOM      1  C   UNL     1       0.867  10.029  19.730  0.00  0.00    +0.000 A 
ATOM      2  C   UNL     1       1.363  10.606  18.555  0.00  0.00    +0.000 A 
ATOM      3  C   UNL     1       2.162   9.865  17.689  0.00  0.00    +0.000 A 
ATOM      4  C   UNL     1       2.483   8.542  17.994  0.00  0.00    +0.000 A 
ATOM      5  C   UNL     1       2.034   7.961  19.187  0.00  0.00    +0.000 A 
ATOM      6  C   UNL     1       1.221   8.709  20.050  0.00  0.00    +0.000 A 
ENDROOT
BRANCH   5   7
ATOM      7  C   UNL     1       2.352   6.544  19.537  0.00  0.00    +0.000 A 
ATOM      8  C   UNL     1       1.524   5.916  20.611  0.00  0.00    +0.000 A 
ATOM      9  C   UNL     1       1.820   4.662  20.976  0.00  0.00    +0.000 A 
ATOM     10  C   UNL     1       2.869   3.979  20.327  0.00  0.00    +0.000 A 
ATOM     11  N   UNL     1       3.324   2.758  20.497  0.00  0.00    +0.000 NA
ATOM     12  C   UNL     1       4.334   2.633  19.580  0.00  0.00    +0.000 A 
ATOM     13  C   UNL     1       4.518   3.791  18.838  0.00  0.00    +0.000 A 
ATOM     14  N   UNL     1       3.549   4.654  19.329  0.00  0.00    +0.000 N 
ATOM     15  N   UNL     1       3.310   5.935  18.902  0.00  0.00    +0.000 NA
BRANCH  13  16
ATOM     16  C   UNL     1       5.469   4.086  17.760  0.00  0.00    +0.000 A 
ATOM     17  C   UNL     1       5.140   3.803  16.431  0.00  0.00    +0.000 A 
ATOM     18  C   UNL     1       6.055   4.109  15.434  0.00  0.00    +0.000 A 
ATOM     19  N   UNL     1       7.262   4.664  15.665  0.00  0.00    +0.000 NA
ATOM     20  C   UNL     1       7.569   4.918  16.953  0.00  0.00    +0.000 A 
ATOM     21  C   UNL     1       6.725   4.642  18.017  0.00  0.00    +0.000 A 
ENDBRANCH  13  16
ENDBRANCH   5   7
BRANCH   1  22
ATOM     22  C   UNL     1      -0.064  10.805  20.616  0.00  0.00    +0.000 C 
BRANCH  22  25
ATOM     23  C   UNL     1      -1.878  11.905  19.490  0.00  0.00    +0.000 C 
ATOM     24  O   UNL     1      -1.198  12.908  19.318  0.00  0.00    +0.000 OA
ATOM     25  N   UNL     1      -1.420  10.805  20.147  0.00  0.00    +0.000 N 
ATOM     26  H   UNL     1      -2.007   9.982  20.188  0.00  0.00    +0.000 HD
BRANCH  23  27
ATOM     27  O   UNL     1      -3.152  11.726  19.058  0.00  0.00    +0.000 OA
BRANCH  27  29
ATOM     28  C   UNL     1      -4.620  11.673  17.085  0.00  0.00    +0.000 C 
ATOM     29  C   UNL     1      -3.357  11.114  17.755  0.00  0.00    +0.000 C 
ATOM     30  C   UNL     1      -3.383   9.581  17.854  0.00  0.00    +0.000 C 
ATOM     31  C   UNL     1      -2.150  11.514  16.889  0.00  0.00    +0.000 C 
ENDBRANCH  27  29
ENDBRANCH  23  27
ENDBRANCH  22  25
ENDBRANCH   1  22
TORSDOF 6
ENDMDL
MODEL 3
REMARK VINA RESULT:      -8.4      1.818      2.217
REMARK  Name = 
REMARK  9 active torsions:
REMARK  status: ('A' for Active; 'I' for Inactive)
REMARK    1  A    between atoms: C_1  and  C_2
REMARK    2  A    between atoms: C_2  and  C_3
REMARK    3  A    between atoms: C_2  and  C_4
REMARK    4  A    between atoms: C_2  and  O_5
REMARK    5  A    between atoms: O_5  and  C_6
REMARK    6  A    between atoms: N_8  and  C_9
REMARK    7  A    between atoms: C_9  and  C_10
REMARK    8  A    between atoms: C_14  and  C_15
REMARK    9  A    between atoms: C_21  and  C_22
REMARK                            x       y       z     vdW  Elec       q    Type
REMARK                         _______ _______ _______ _____ _____    ______ ____
ROOT
ATOM      1  C   UNL     1       1.031   9.811  20.294  0.00  0.00    +0.000 A 
ATOM      2  C   UNL     1       1.204  10.379  19.026  0.00  0.00    +0.000 A 
ATOM      3  C   UNL     1       1.716   9.619  17.978  0.00  0.00    +0.000 A 
ATOM      4  C   UNL     1       2.069   8.285  18.190  0.00  0.00    +0.000 A 
ATOM      5  C   UNL     1       1.945   7.712  19.462  0.00  0.00    +0.000 A 
ATOM      6  C   UNL     1       1.420   8.480  20.511  0.00  0.00    +0.000 A 
ENDROOT
BRANCH   5   7
ATOM      7  C   UNL     1       2.305   6.285  19.717  0.00  0.00    +0.000 A 
ATOM      8  C   UNL     1       1.506   5.568  20.756  0.00  0.00    +0.000 A 
ATOM      9  C   UNL     1       1.841   4.301  21.037  0.00  0.00    +0.000 A 
ATOM     10  C   UNL     1       2.900   3.691  20.336  0.00  0.00    +0.000 A 
ATOM     11  N   UNL     1       3.390   2.474  20.423  0.00  0.00    +0.000 NA
ATOM     12  C   UNL     1       4.392   2.436  19.490  0.00  0.00    +0.000 A 
ATOM     13  C   UNL     1       4.536   3.643  18.822  0.00  0.00    +0.000 A 
ATOM     14  N   UNL     1       3.550   4.447  19.377  0.00  0.00    +0.000 N 
ATOM     15  N   UNL     1       3.272   5.745  19.035  0.00  0.00    +0.000 NA
BRANCH  13  16
ATOM     16  C   UNL     1       5.467   4.033  17.757  0.00  0.00    +0.000 A 
ATOM     17  C   UNL     1       6.663   4.687  18.069  0.00  0.00    +0.000 A 
ATOM     18  C   UNL     1       7.529   5.027  17.040  0.00  0.00    +0.000 A 
ATOM     19  N   UNL     1       7.290   4.770  15.738  0.00  0.00    +0.000 NA
ATOM     20  C   UNL     1       6.127   4.150  15.454  0.00  0.00    +0.000 A 
ATOM     21  C   UNL     1       5.196   3.777  16.410  0.00  0.00    +0.000 A 
ENDBRANCH  13  16
ENDBRANCH   5   7
BRANCH   1  22
ATOM     22  C   UNL     1       0.399  10.610  21.397  0.00  0.00    +0.000 C 
BRANCH  22  25
ATOM     23  C   UNL     1      -1.244  12.348  21.182  0.00  0.00    +0.000 C 
ATOM     24  O   UNL     1      -0.436  13.193  21.540  0.00  0.00    +0.000 OA
ATOM     25  N   UNL     1      -0.942  11.024  21.099  0.00  0.00    +0.000 N 
ATOM     26  H   UNL     1      -1.633  10.387  20.723  0.00  0.00    +0.000 HD
BRANCH  23  27
ATOM     27  O   UNL     1      -2.528  12.583  20.810  0.00  0.00    +0.000 OA
BRANCH  27  29
ATOM     28  C   UNL     1      -3.465  14.609  21.843  0.00  0.00    +0.000 C 
ATOM     29  C   UNL     1      -3.457  13.074  21.815  0.00  0.00    +0.000 C 
ATOM     30  C   UNL     1      -3.158  12.470  23.196  0.00  0.00    +0.000 C 
ATOM     31  C   UNL     1      -4.857  12.605  21.384  0.00  0.00    +0.000 C 
ENDBRANCH  27  29
ENDBRANCH  23  27
ENDBRANCH  22  25
ENDBRANCH   1  22
TORSDOF 6
ENDMDL
MODEL 4
REMARK VINA RESULT:      -8.3      1.900      2.541
REMARK  Name = 
REMARK  9 active torsions:
REMARK  status: ('A' for Active; 'I' for Inactive)
REMARK    1  A    between atoms: C_1  and  C_2
REMARK    2  A    between atoms: C_2  and  C_3
REMARK    3  A    between atoms: C_2  and  C_4
REMARK    4  A    between atoms: C_2  and  O_5
REMARK    5  A    between atoms: O_5  and  C_6
REMARK    6  A    between atoms: N_8  and  C_9
REMARK    7  A    between atoms: C_9  and  C_10
REMARK    8  A    between atoms: C_14  and  C_15
REMARK    9  A    between atoms: C_21  and  C_22
REMARK                            x       y       z     vdW  Elec       q    Type
REMARK                         _______ _______ _______ _____ _____    ______ ____
ROOT
ATOM      1  C   UNL     1       1.040   9.771  20.406  0.00  0.00    +0.000 A 
ATOM      2  C   UNL     1       1.176  10.361  19.144  0.00  0.00    +0.000 A 
ATOM      3  C   UNL     1       1.658   9.620  18.068  0.00  0.00    +0.000 A 
ATOM      4  C   UNL     1       2.021   8.284  18.246  0.00  0.00    +0.000 A 
ATOM      5  C   UNL     1       1.935   7.689  19.511  0.00  0.00    +0.000 A 
ATOM      6  C   UNL     1       1.438   8.437  20.588  0.00  0.00    +0.000 A 
ENDROOT
BRANCH   5   7
ATOM      7  C   UNL     1       2.305   6.258  19.731  0.00  0.00    +0.000 A 
ATOM      8  C   UNL     1       1.508   5.509  20.750  0.00  0.00    +0.000 A 
ATOM      9  C   UNL     1       1.852   4.238  20.999  0.00  0.00    +0.000 A 
ATOM     10  C   UNL     1       2.918   3.654  20.285  0.00  0.00    +0.000 A 
ATOM     11  N   UNL     1       3.417   2.439  20.343  0.00  0.00    +0.000 NA
ATOM     12  C   UNL     1       4.422   2.432  19.413  0.00  0.00    +0.000 A 
ATOM     13  C   UNL     1       4.559   3.657  18.776  0.00  0.00    +0.000 A 
ATOM     14  N   UNL     1       3.565   4.439  19.348  0.00  0.00    +0.000 N 
ATOM     15  N   UNL     1       3.278   5.743  19.039  0.00  0.00    +0.000 NA
BRANCH  13  16
ATOM     16  C   UNL     1       5.490   4.081  17.724  0.00  0.00    +0.000 A 
ATOM     17  C   UNL     1       5.201   3.822  16.380  0.00  0.00    +0.000 A 
ATOM     18  C   UNL     1       6.094   4.249  15.408  0.00  0.00    +0.000 A 
ATOM     19  N   UNL     1       7.243   4.904  15.677  0.00  0.00    +0.000 NA
ATOM     20  C   UNL     1       7.511   5.134  16.978  0.00  0.00    +0.000 A 
ATOM     21  C   UNL     1       6.686   4.740  18.018  0.00  0.00    +0.000 A 
ENDBRANCH  13  16
ENDBRANCH   5   7
BRANCH   1  22
ATOM     22  C   UNL     1       0.439  10.548  21.540  0.00  0.00    +0.000 C 
BRANCH  22  25
ATOM     23  C   UNL     1      -1.017  12.454  21.668  0.00  0.00    +0.000 C 
ATOM     24  O   UNL     1      -0.240  13.031  22.416  0.00  0.00    +0.000 OA
ATOM     25  N   UNL     1      -0.790  11.201  21.189  0.00  0.00    +0.000 N 
ATOM     26  H   UNL     1      -1.435  10.812  20.514  0.00  0.00    +0.000 HD
BRANCH  23  27
ATOM     27  O   UNL     1      -2.187  12.956  21.197  0.00  0.00    +0.000 OA
BRANCH  27  29
ATOM     28  C   UNL     1      -3.060  12.230  23.379  0.00  0.00    +0.000 C 
ATOM     29  C   UNL     1      -3.307  13.070  22.117  0.00  0.00    +0.000 C 
ATOM     30  C   UNL     1      -4.634  12.711  21.432  0.00  0.00    +0.000 C 
ATOM     31  C   UNL     1      -3.376  14.547  22.543  0.00  0.00    +0.000 C 
ENDBRANCH  27  29
ENDBRANCH  23  27
ENDBRANCH  22  25
ENDBRANCH   1  22
TORSDOF 6
ENDMDL
MODEL 5
REMARK VINA RESULT:      -8.3      3.845      9.380
REMARK  Name = 
REMARK  9 active torsions:
REMARK  status: ('A' for Active; 'I' for Inactive)
REMARK    1  A    between atoms: C_1  and  C_2
REMARK    2  A    between atoms: C_2  and  C_3
REMARK    3  A    between atoms: C_2  and  C_4
REMARK    4  A    between atoms: C_2  and  O_5
REMARK    5  A    between atoms: O_5  and  C_6
REMARK    6  A    between atoms: N_8  and  C_9
REMARK    7  A    between atoms: C_9  and  C_10
REMARK    8  A    between atoms: C_14  and  C_15
REMARK    9  A    between atoms: C_21  and  C_22
REMARK                            x       y       z     vdW  Elec       q    Type
REMARK                         _______ _______ _______ _____ _____    ______ ____
ROOT
ATOM      1  C   UNL     1       2.345   6.916  19.475  0.00  0.00    +0.000 A 
ATOM      2  C   UNL     1       2.548   7.349  18.159  0.00  0.00    +0.000 A 
ATOM      3  C   UNL     1       2.110   8.607  17.756  0.00  0.00    +0.000 A 
ATOM      4  C   UNL     1       1.455   9.442  18.662  0.00  0.00    +0.000 A 
ATOM      5  C   UNL     1       1.202   9.010  19.970  0.00  0.00    +0.000 A 
ATOM      6  C   UNL     1       1.654   7.746  20.373  0.00  0.00    +0.000 A 
ENDROOT
BRANCH   5   7
ATOM      7  C   UNL     1       0.512   9.884  20.965  0.00  0.00    +0.000 A 
ATOM      8  C   UNL     1      -0.106   9.202  22.143  0.00  0.00    +0.000 A 
ATOM      9  C   UNL     1      -0.771   9.959  23.025  0.00  0.00    +0.000 A 
ATOM     10  C   UNL     1      -0.841  11.353  22.830  0.00  0.00    +0.000 A 
ATOM     11  N   UNL     1      -1.412  12.287  23.558  0.00  0.00    +0.000 NA
ATOM     12  C   UNL     1      -1.141  13.456  22.897  0.00  0.00    +0.000 A 
ATOM     13  C   UNL     1      -0.404  13.248  21.740  0.00  0.00    +0.000 A 
ATOM     14  N   UNL     1      -0.208  11.875  21.717  0.00  0.00    +0.000 N 
ATOM     15  N   UNL     1       0.487  11.170  20.768  0.00  0.00    +0.000 NA
BRANCH  13  16
ATOM     16  C   UNL     1       0.102  14.209  20.753  0.00  0.00    +0.000 A 
ATOM     17  C   UNL     1       1.410  14.695  20.847  0.00  0.00    +0.000 A 
ATOM     18  C   UNL     1       1.863  15.590  19.889  0.00  0.00    +0.000 A 
ATOM     19  N   UNL     1       1.114  16.033  18.858  0.00  0.00    +0.000 NA
ATOM     20  C   UNL     1      -0.149  15.564  18.790  0.00  0.00    +0.000 A 
ATOM     21  C   UNL     1      -0.693  14.675  19.703  0.00  0.00    +0.000 A 
ENDBRANCH  13  16
ENDBRANCH   5   7
BRANCH   1  22
ATOM     22  C   UNL     1       2.895   5.595  19.926  0.00  0.00    +0.000 C 
BRANCH  22  25
ATOM     23  C   UNL     1       4.795   4.463  18.991  0.00  0.00    +0.000 C 
ATOM     24  O   UNL     1       4.074   3.614  18.486  0.00  0.00    +0.000 OA
ATOM     25  N   UNL     1       4.315   5.484  19.751  0.00  0.00    +0.000 N 
ATOM     26  H   UNL     1       4.956   6.195  20.076  0.00  0.00    +0.000 HD
BRANCH  23  27
ATOM     27  O   UNL     1       6.145   4.533  18.870  0.00  0.00    +0.000 OA
BRANCH  27  29
ATOM     28  C   UNL     1       7.634   6.436  18.408  0.00  0.00    +0.000 C 
ATOM     29  C   UNL     1       6.700   5.369  17.818  0.00  0.00    +0.000 C 
ATOM     30  C   UNL     1       5.592   5.984  16.949  0.00  0.00    +0.000 C 
ATOM     31  C   UNL     1       7.547   4.446  16.926  0.00  0.00    +0.000 C 
ENDBRANCH  27  29
ENDBRANCH  23  27
ENDBRANCH  22  25
ENDBRANCH   1  22
TORSDOF 6
ENDMDL
MODEL 6
REMARK VINA RESULT:      -8.3      1.810      2.594
REMARK  Name = 
REMARK  9 active torsions:
REMARK  status: ('A' for Active; 'I' for Inactive)
REMARK    1  A    between atoms: C_1  and  C_2
REMARK    2  A    between atoms: C_2  and  C_3
REMARK    3  A    between atoms: C_2  and  C_4
REMARK    4  A    between atoms: C_2  and  O_5
REMARK    5  A    between atoms: O_5  and  C_6
REMARK    6  A    between atoms: N_8  and  C_9
REMARK    7  A    between atoms: C_9  and  C_10
REMARK    8  A    between atoms: C_14  and  C_15
REMARK    9  A    between atoms: C_21  and  C_22
REMARK                            x       y       z     vdW  Elec       q    Type
REMARK                         _______ _______ _______ _____ _____    ______ ____
ROOT
ATOM      1  C   UNL     1       0.886   9.809  20.128  0.00  0.00    +0.000 A 
ATOM      2  C   UNL     1       1.208  10.399  18.900  0.00  0.00    +0.000 A 
ATOM      3  C   UNL     1       1.878   9.670  17.921  0.00  0.00    +0.000 A 
ATOM      4  C   UNL     1       2.243   8.345  18.165  0.00  0.00    +0.000 A 
ATOM      5  C   UNL     1       1.970   7.751  19.403  0.00  0.00    +0.000 A 
ATOM      6  C   UNL     1       1.287   8.487  20.381  0.00  0.00    +0.000 A 
ENDROOT
BRANCH   5   7
ATOM      7  C   UNL     1       2.340   6.332  19.690  0.00  0.00    +0.000 A 
ATOM      8  C   UNL     1       1.555   5.637  20.756  0.00  0.00    +0.000 A 
ATOM      9  C   UNL     1       1.899   4.380  21.065  0.00  0.00    +0.000 A 
ATOM     10  C   UNL     1       2.952   3.756  20.366  0.00  0.00    +0.000 A 
ATOM     11  N   UNL     1       3.449   2.544  20.479  0.00  0.00    +0.000 NA
ATOM     12  C   UNL     1       4.440   2.486  19.535  0.00  0.00    +0.000 A 
ATOM     13  C   UNL     1       4.571   3.677  18.836  0.00  0.00    +0.000 A 
ATOM     14  N   UNL     1       3.588   4.490  19.381  0.00  0.00    +0.000 N 
ATOM     15  N   UNL     1       3.301   5.779  19.011  0.00  0.00    +0.000 NA
BRANCH  13  16
ATOM     16  C   UNL     1       5.488   4.043  17.750  0.00  0.00    +0.000 A 
ATOM     17  C   UNL     1       5.134   3.809  16.418  0.00  0.00    +0.000 A 
ATOM     18  C   UNL     1       6.017   4.182  15.414  0.00  0.00    +0.000 A 
ATOM     19  N   UNL     1       7.215   4.759  15.641  0.00  0.00    +0.000 NA
ATOM     20  C   UNL     1       7.545   4.965  16.932  0.00  0.00    +0.000 A 
ATOM     21  C   UNL     1       6.735   4.622  18.001  0.00  0.00    +0.000 A 
ENDBRANCH  13  16
ENDBRANCH   5   7
BRANCH   1  22
ATOM     22  C   UNL     1       0.089  10.571  21.144  0.00  0.00    +0.000 C 
BRANCH  22  25
ATOM     23  C   UNL     1      -0.819  12.766  20.785  0.00  0.00    +0.000 C 
ATOM     24  O   UNL     1      -1.931  12.301  20.578  0.00  0.00    +0.000 OA
ATOM     25  N   UNL     1       0.268  11.992  21.053  0.00  0.00    +0.000 N 
ATOM     26  H   UNL     1       1.142  12.443  21.290  0.00  0.00    +0.000 HD
BRANCH  23  27
ATOM     27  O   UNL     1      -0.498  14.085  20.795  0.00  0.00    +0.000 OA
BRANCH  27  29
ATOM     28  C   UNL     1      -0.306  13.795  18.360  0.00  0.00    +0.000 C 
ATOM     29  C   UNL     1       0.029  14.673  19.574  0.00  0.00    +0.000 C 
ATOM     30  C   UNL     1       1.536  14.950  19.691  0.00  0.00    +0.000 C 
ATOM     31  C   UNL     1      -0.689  16.021  19.392  0.00  0.00    +0.000 C 
ENDBRANCH  27  29
ENDBRANCH  23  27
ENDBRANCH  22  25
ENDBRANCH   1  22
TORSDOF 6
ENDMDL
MODEL 7
REMARK VINA RESULT:      -8.3      2.095      2.774
REMARK  Name = 
REMARK  9 active torsions:
REMARK  status: ('A' for Active; 'I' for Inactive)
REMARK    1  A    between atoms: C_1  and  C_2
REMARK    2  A    between atoms: C_2  and  C_3
REMARK    3  A    between atoms: C_2  and  C_4
REMARK    4  A    between atoms: C_2  and  O_5
REMARK    5  A    between atoms: O_5  and  C_6
REMARK    6  A    between atoms: N_8  and  C_9
REMARK    7  A    between atoms: C_9  and  C_10
REMARK    8  A    between atoms: C_14  and  C_15
REMARK    9  A    between atoms: C_21  and  C_22
REMARK                            x       y       z     vdW  Elec       q    Type
REMARK                         _______ _______ _______ _____ _____    ______ ____
ROOT
ATOM      1  C   UNL     1       0.792   9.857  20.736  0.00  0.00    +0.000 A 
ATOM      2  C   UNL     1       0.903  10.549  19.524  0.00  0.00    +0.000 A 
ATOM      3  C   UNL     1       1.439   9.922  18.402  0.00  0.00    +0.000 A 
ATOM      4  C   UNL     1       1.878   8.599  18.483  0.00  0.00    +0.000 A 
ATOM      5  C   UNL     1       1.816   7.905  19.698  0.00  0.00    +0.000 A 
ATOM      6  C   UNL     1       1.266   8.539  20.822  0.00  0.00    +0.000 A 
ENDROOT
BRANCH   5   7
ATOM      7  C   UNL     1       2.268   6.486  19.815  0.00  0.00    +0.000 A 
ATOM      8  C   UNL     1       1.494   5.610  20.745  0.00  0.00    +0.000 A 
ATOM      9  C   UNL     1       1.909   4.346  20.902  0.00  0.00    +0.000 A 
ATOM     10  C   UNL     1       3.027   3.886  20.177  0.00  0.00    +0.000 A 
ATOM     11  N   UNL     1       3.599   2.703  20.153  0.00  0.00    +0.000 NA
ATOM     12  C   UNL     1       4.626   2.832  19.256  0.00  0.00    +0.000 A 
ATOM     13  C   UNL     1       4.702   4.111  18.723  0.00  0.00    +0.000 A 
ATOM     14  N   UNL     1       3.648   4.783  19.325  0.00  0.00    +0.000 N 
ATOM     15  N   UNL     1       3.289   6.089  19.113  0.00  0.00    +0.000 NA
BRANCH  13  16
ATOM     16  C   UNL     1       5.632   4.674  17.737  0.00  0.00    +0.000 A 
ATOM     17  C   UNL     1       5.684   4.155  16.440  0.00  0.00    +0.000 A 
ATOM     18  C   UNL     1       6.562   4.720  15.526  0.00  0.00    +0.000 A 
ATOM     19  N   UNL     1       7.386   5.749  15.812  0.00  0.00    +0.000 NA
ATOM     20  C   UNL     1       7.333   6.228  17.071  0.00  0.00    +0.000 A 
ATOM     21  C   UNL     1       6.495   5.726  18.053  0.00  0.00    +0.000 A 
ENDBRANCH  13  16
ENDBRANCH   5   7
BRANCH   1  22
ATOM     22  C   UNL     1       0.135  10.509  21.917  0.00  0.00    +0.000 C 
BRANCH  22  25
ATOM     23  C   UNL     1      -1.104  12.550  22.182  0.00  0.00    +0.000 C 
ATOM     24  O   UNL     1      -0.346  12.927  23.064  0.00  0.00    +0.000 OA
ATOM     25  N   UNL     1      -0.973  11.348  21.557  0.00  0.00    +0.000 N 
ATOM     26  H   UNL     1      -1.587  11.129  20.784  0.00  0.00    +0.000 HD
BRANCH  23  27
ATOM     27  O   UNL     1      -2.159  13.247  21.688  0.00  0.00    +0.000 OA
BRANCH  27  29
ATOM     28  C   UNL     1      -4.618  13.286  21.728  0.00  0.00    +0.000 C 
ATOM     29  C   UNL     1      -3.322  13.430  22.540  0.00  0.00    +0.000 C 
ATOM     30  C   UNL     1      -3.258  14.766  23.297  0.00  0.00    +0.000 C 
ATOM     31  C   UNL     1      -3.289  12.294  23.576  0.00  0.00    +0.000 C 
ENDBRANCH  27  29
ENDBRANCH  23  27
ENDBRANCH  22  25
ENDBRANCH   1  22
TORSDOF 6
ENDMDL
MODEL 8
REMARK VINA RESULT:      -8.3      1.874      2.511
REMARK  Name = 
REMARK  9 active torsions:
REMARK  status: ('A' for Active; 'I' for Inactive)
REMARK    1  A    between atoms: C_1  and  C_2
REMARK    2  A    between atoms: C_2  and  C_3
REMARK    3  A    between atoms: C_2  and  C_4
REMARK    4  A    between atoms: C_2  and  O_5
REMARK    5  A    between atoms: O_5  and  C_6
REMARK    6  A    between atoms: N_8  and  C_9
REMARK    7  A    between atoms: C_9  and  C_10
REMARK    8  A    between atoms: C_14  and  C_15
REMARK    9  A    between atoms: C_21  and  C_22
REMARK                            x       y       z     vdW  Elec       q    Type
REMARK                         _______ _______ _______ _____ _____    ______ ____
ROOT
ATOM      1  C   UNL     1       0.750   9.664  20.875  0.00  0.00    +0.000 A 
ATOM      2  C   UNL     1       0.878  10.389  19.684  0.00  0.00    +0.000 A 
ATOM      3  C   UNL     1       1.430   9.795  18.553  0.00  0.00    +0.000 A 
ATOM      4  C   UNL     1       1.871   8.472  18.604  0.00  0.00    +0.000 A 
ATOM      5  C   UNL     1       1.794   7.744  19.798  0.00  0.00    +0.000 A 
ATOM      6  C   UNL     1       1.227   8.344  20.931  0.00  0.00    +0.000 A 
ENDROOT
BRANCH   5   7
ATOM      7  C   UNL     1       2.249   6.323  19.881  0.00  0.00    +0.000 A 
ATOM      8  C   UNL     1       1.524   5.443  20.847  0.00  0.00    +0.000 A 
ATOM      9  C   UNL     1       1.944   4.177  20.974  0.00  0.00    +0.000 A 
ATOM     10  C   UNL     1       3.019   3.719  20.186  0.00  0.00    +0.000 A 
ATOM     11  N   UNL     1       3.586   2.535  20.124  0.00  0.00    +0.000 NA
ATOM     12  C   UNL     1       4.563   2.667  19.173  0.00  0.00    +0.000 A 
ATOM     13  C   UNL     1       4.614   3.949  18.645  0.00  0.00    +0.000 A 
ATOM     14  N   UNL     1       3.595   4.619  19.307  0.00  0.00    +0.000 N 
ATOM     15  N   UNL     1       3.228   5.927  19.122  0.00  0.00    +0.000 NA
BRANCH  13  16
ATOM     16  C   UNL     1       5.490   4.516  17.613  0.00  0.00    +0.000 A 
ATOM     17  C   UNL     1       6.506   5.410  17.963  0.00  0.00    +0.000 A 
ATOM     18  C   UNL     1       7.328   5.914  16.965  0.00  0.00    +0.000 A 
ATOM     19  N   UNL     1       7.206   5.600  15.659  0.00  0.00    +0.000 NA
ATOM     20  C   UNL     1       6.213   4.748  15.338  0.00  0.00    +0.000 A 
ATOM     21  C   UNL     1       5.339   4.197  16.261  0.00  0.00    +0.000 A 
ENDBRANCH  13  16
ENDBRANCH   5   7
BRANCH   1  22
ATOM     22  C   UNL     1       0.075  10.281  22.065  0.00  0.00    +0.000 C 
BRANCH  22  25
ATOM     23  C   UNL     1      -1.423  12.101  22.522  0.00  0.00    +0.000 C 
ATOM     24  O   UNL     1      -2.075  11.407  23.290  0.00  0.00    +0.000 OA
ATOM     25  N   UNL     1      -0.344  11.635  21.838  0.00  0.00    +0.000 N 
ATOM     26  H   UNL     1       0.196  12.281  21.277  0.00  0.00    +0.000 HD
BRANCH  23  27
ATOM     27  O   UNL     1      -1.653  13.410  22.245  0.00  0.00    +0.000 OA
BRANCH  27  29
ATOM     28  C   UNL     1      -4.063  13.843  22.474  0.00  0.00    +0.000 C 
ATOM     29  C   UNL     1      -2.863  13.758  21.519  0.00  0.00    +0.000 C 
ATOM     30  C   UNL     1      -3.116  12.789  20.354  0.00  0.00    +0.000 C 
ATOM     31  C   UNL     1      -2.633  15.160  20.930  0.00  0.00    +0.000 C 
ENDBRANCH  27  29
ENDBRANCH  23  27
ENDBRANCH  22  25
ENDBRANCH   1  22
TORSDOF 6
ENDMDL
MODEL 9
REMARK VINA RESULT:      -8.2      3.781      9.357
REMARK  Name = 
REMARK  9 active torsions:
REMARK  status: ('A' for Active; 'I' for Inactive)
REMARK    1  A    between atoms: C_1  and  C_2
REMARK    2  A    between atoms: C_2  and  C_3
REMARK    3  A    between atoms: C_2  and  C_4
REMARK    4  A    between atoms: C_2  and  O_5
REMARK    5  A    between atoms: O_5  and  C_6
REMARK    6  A    between atoms: N_8  and  C_9
REMARK    7  A    between atoms: C_9  and  C_10
REMARK    8  A    between atoms: C_14  and  C_15
REMARK    9  A    between atoms: C_21  and  C_22
REMARK                            x       y       z     vdW  Elec       q    Type
REMARK                         _______ _______ _______ _____ _____    ______ ____
ROOT
ATOM      1  C   UNL     1       2.430   6.947  19.309  0.00  0.00    +0.000 A 
ATOM      2  C   UNL     1       2.646   7.420  18.009  0.00  0.00    +0.000 A 
ATOM      3  C   UNL     1       2.212   8.690  17.640  0.00  0.00    +0.000 A 
ATOM      4  C   UNL     1       1.547   9.496  18.565  0.00  0.00    +0.000 A 
ATOM      5  C   UNL     1       1.281   9.024  19.856  0.00  0.00    +0.000 A 
ATOM      6  C   UNL     1       1.729   7.748  20.225  0.00  0.00    +0.000 A 
ENDROOT
BRANCH   5   7
ATOM      7  C   UNL     1       0.580   9.867  20.871  0.00  0.00    +0.000 A 
ATOM      8  C   UNL     1      -0.035   9.150  22.029  0.00  0.00    +0.000 A 
ATOM      9  C   UNL     1      -0.710   9.880  22.928  0.00  0.00    +0.000 A 
ATOM     10  C   UNL     1      -0.792  11.278  22.767  0.00  0.00    +0.000 A 
ATOM     11  N   UNL     1      -1.373  12.188  23.516  0.00  0.00    +0.000 NA
ATOM     12  C   UNL     1      -1.111  13.375  22.885  0.00  0.00    +0.000 A 
ATOM     13  C   UNL     1      -0.369  13.203  21.726  0.00  0.00    +0.000 A 
ATOM     14  N   UNL     1      -0.160  11.832  21.668  0.00  0.00    +0.000 N 
ATOM     15  N   UNL     1       0.543  11.157  20.705  0.00  0.00    +0.000 NA
BRANCH  13  16
ATOM     16  C   UNL     1       0.131  14.192  20.764  0.00  0.00    +0.000 A 
ATOM     17  C   UNL     1      -0.714  14.704  19.774  0.00  0.00    +0.000 A 
ATOM     18  C   UNL     1      -0.215  15.650  18.890  0.00  0.00    +0.000 A 
ATOM     19  N   UNL     1       1.052  16.112  18.918  0.00  0.00    +0.000 NA
ATOM     20  C   UNL     1       1.856  15.598  19.870  0.00  0.00    +0.000 A 
ATOM     21  C   UNL     1       1.452  14.646  20.792  0.00  0.00    +0.000 A 
ENDBRANCH  13  16
ENDBRANCH   5   7
BRANCH   1  22
ATOM     22  C   UNL     1       2.976   5.612  19.726  0.00  0.00    +0.000 C 
BRANCH  22  25
ATOM     23  C   UNL     1       4.918   4.747  18.609  0.00  0.00    +0.000 C 
ATOM     24  O   UNL     1       5.656   5.260  19.438  0.00  0.00    +0.000 OA
ATOM     25  N   UNL     1       3.564   4.879  18.642  0.00  0.00    +0.000 N 
ATOM     26  H   UNL     1       3.007   4.366  17.970  0.00  0.00    +0.000 HD
BRANCH  23  27
ATOM     27  O   UNL     1       5.311   3.977  17.562  0.00  0.00    +0.000 OA
BRANCH  27  29
ATOM     28  C   UNL     1       7.522   4.766  16.826  0.00  0.00    +0.000 C 
ATOM     29  C   UNL     1       6.035   4.613  16.474  0.00  0.00    +0.000 C 
ATOM     30  C   UNL     1       5.391   5.952  16.080  0.00  0.00    +0.000 C 
ATOM     31  C   UNL     1       5.934   3.664  15.267  0.00  0.00    +0.000 C 
ENDBRANCH  27  29
ENDBRANCH  23  27
ENDBRANCH  22  25
ENDBRANCH   1  22
TORSDOF 6
ENDMDL
