MODEL 1
REMARK VINA RESULT:      -8.5      0.000      0.000
REMARK  Name = 
REMARK  8 active torsions:
REMARK  status: ('A' for Active; 'I' for Inactive)
REMARK    1  A    between atoms: C_2  and  C_3
REMARK    2  A    between atoms: C_3  and  C_4
REMARK    3  A    between atoms: C_4  and  C_5
REMARK    4  A    between atoms: C_8  and  C_9
REMARK    5  A    between atoms: C_9  and  C_10
REMARK    6  A    between atoms: C_14  and  C_15
REMARK    7  A    between atoms: N_21  and  C_22
REMARK    8  A    between atoms: C_22  and  C_23
REMARK                            x       y       z     vdW  Elec       q    Type
REMARK                         _______ _______ _______ _____ _____    ______ ____
ROOT
ATOM      1  C   UNL     1       7.830   7.261  17.951  0.00  0.00    +0.000 A 
ATOM      2  N   UNL     1       7.348   8.148  17.106  0.00  0.00    +0.000 NA
ATOM      3  N   UNL     1       7.822   9.377  17.515  0.00  0.00    +0.000 NA
ATOM      4  C   UNL     1       8.553   9.158  18.588  0.00  0.00    +0.000 A 
ATOM      5  O   UNL     1       8.609   7.827  18.927  0.00  0.00    +0.000 OA
ENDROOT
BRANCH   1   6
ATOM      6  C   UNL     1       7.667   5.788  17.959  0.00  0.00    +0.000 C 
BRANCH   6   7
ATOM      7  C   UNL     1       6.274   5.379  17.477  0.00  0.00    +0.000 C 
BRANCH   7   9
ATOM      8  O   UNL     1       5.389   5.338  19.722  0.00  0.00    +0.000 OA
ATOM      9  C   UNL     1       5.223   5.634  18.544  0.00  0.00    +0.000 C 
ATOM     10  N   UNL     1       4.080   6.221  18.063  0.00  0.00    +0.000 N 
ATOM     11  H   UNL     1       3.981   6.376  17.073  0.00  0.00    +0.000 HD
BRANCH  10  12
ATOM     12  C   UNL     1       2.926   6.502  18.899  0.00  0.00    +0.000 C 
BRANCH  12  13
ATOM     13  C   UNL     1       2.132   5.238  19.122  0.00  0.00    +0.000 A 
ATOM     14  C   UNL     1       1.737   4.866  20.414  0.00  0.00    +0.000 A 
ATOM     15  C   UNL     1       1.104   3.641  20.636  0.00  0.00    +0.000 A 
ATOM     16  C   UNL     1       0.859   2.778  19.570  0.00  0.00    +0.000 A 
ATOM     17  C   UNL     1       1.224   3.147  18.277  0.00  0.00    +0.000 A 
ATOM     18  C   UNL     1       1.855   4.373  18.052  0.00  0.00    +0.000 A 
ENDBRANCH  12  13
ENDBRANCH  10  12
ENDBRANCH   7   9
ENDBRANCH   6   7
ENDBRANCH   1   6
BRANCH   4  19
ATOM     19  C   UNL     1       9.382  10.110  19.372  0.00  0.00    +0.000 C 
BRANCH  19  20
ATOM     20  C   UNL     1       9.734  11.383  18.632  0.00  0.00    +0.000 A 
ATOM     21  C   UNL     1      10.922  11.468  17.893  0.00  0.00    +0.000 A 
ATOM     22  C   UNL     1      11.259  12.641  17.219  0.00  0.00    +0.000 A 
ATOM     23  C   UNL     1      10.412  13.748  17.271  0.00  0.00    +0.000 A 
ATOM     24  C   UNL     1       9.214  13.690  17.997  0.00  0.00    +0.000 A 
ATOM     25  C   UNL     1       8.885  12.503  18.677  0.00  0.00    +0.000 A 
BRANCH  24  26
ATOM     26  C   UNL     1       8.291  14.886  18.054  0.00  0.00    +0.000 C 
ATOM     27  F   UNL     1       7.150  14.728  17.326  0.00  0.00    +0.000 F 
ATOM     28  F   UNL     1       7.883  15.170  19.322  0.00  0.00    +0.000 F 
ATOM     29  F   UNL     1       8.876  16.022  17.585  0.00  0.00    +0.000 F 
ENDBRANCH  24  26
ENDBRANCH  19  20
ENDBRANCH   4  19
TORSDOF 8
ENDMDL
MODEL 2
REMARK VINA RESULT:      -8.2      5.654      8.452
REMARK  Name = 
REMARK  8 active torsions:
REMARK  status: ('A' for Active; 'I' for Inactive)
REMARK    1  A    between atoms: C_2  and  C_3
REMARK    2  A    between atoms: C_3  and  C_4
REMARK    3  A    between atoms: C_4  and  C_5
REMARK    4  A    between atoms: C_8  and  C_9
REMARK    5  A    between atoms: C_9  and  C_10
REMARK    6  A    between atoms: C_14  and  C_15
REMARK    7  A    between atoms: N_21  and  C_22
REMARK    8  A    between atoms: C_22  and  C_23
REMARK                            x       y       z     vdW  Elec       q    Type
REMARK                         _______ _______ _______ _____ _____    ______ ____
ROOT
ATOM      1  C   UNL     1       1.848   6.218  20.274  0.00  0.00    +0.000 A 
ATOM      2  N   UNL     1       1.456   7.025  21.237  0.00  0.00    +0.000 NA
ATOM      3  N   UNL     1       1.433   8.295  20.699  0.00  0.00    +0.000 NA
ATOM      4  C   UNL     1       1.822   8.178  19.447  0.00  0.00    +0.000 A 
ATOM      5  O   UNL     1       2.102   6.878  19.099  0.00  0.00    +0.000 OA
ENDROOT
BRANCH   1   6
ATOM      6  C   UNL     1       2.012   4.745  20.293  0.00  0.00    +0.000 C 
BRANCH   6   7
ATOM      7  C   UNL     1       1.713   4.133  18.924  0.00  0.00    +0.000 C 
BRANCH   7   9
ATOM      8  O   UNL     1       3.404   2.553  18.236  0.00  0.00    +0.000 OA
ATOM      9  C   UNL     1       2.990   3.708  18.219  0.00  0.00    +0.000 C 
ATOM     10  N   UNL     1       3.629   4.732  17.569  0.00  0.00    +0.000 N 
ATOM     11  H   UNL     1       3.272   5.671  17.651  0.00  0.00    +0.000 HD
BRANCH  10  12
ATOM     12  C   UNL     1       4.895   4.561  16.877  0.00  0.00    +0.000 C 
BRANCH  12  13
ATOM     13  C   UNL     1       5.938   5.470  17.481  0.00  0.00    +0.000 A 
ATOM     14  C   UNL     1       6.207   6.720  16.910  0.00  0.00    +0.000 A 
ATOM     15  C   UNL     1       7.249   7.513  17.396  0.00  0.00    +0.000 A 
ATOM     16  C   UNL     1       8.031   7.062  18.458  0.00  0.00    +0.000 A 
ATOM     17  C   UNL     1       7.757   5.832  19.051  0.00  0.00    +0.000 A 
ATOM     18  C   UNL     1       6.714   5.039  18.568  0.00  0.00    +0.000 A 
ENDBRANCH  12  13
ENDBRANCH  10  12
ENDBRANCH   7   9
ENDBRANCH   6   7
ENDBRANCH   1   6
BRANCH   4  19
ATOM     19  C   UNL     1       1.881   9.211  18.380  0.00  0.00    +0.000 C 
BRANCH  19  20
ATOM     20  C   UNL     1       0.668  10.114  18.322  0.00  0.00    +0.000 A 
ATOM     21  C   UNL     1       0.730  11.419  18.832  0.00  0.00    +0.000 A 
ATOM     22  C   UNL     1      -0.388  12.252  18.794  0.00  0.00    +0.000 A 
ATOM     23  C   UNL     1      -1.584  11.796  18.240  0.00  0.00    +0.000 A 
ATOM     24  C   UNL     1      -1.674  10.499  17.716  0.00  0.00    +0.000 A 
ATOM     25  C   UNL     1      -0.542   9.664  17.764  0.00  0.00    +0.000 A 
BRANCH  24  26
ATOM     26  C   UNL     1      -2.967  10.002  17.113  0.00  0.00    +0.000 C 
ATOM     27  F   UNL     1      -2.823   9.503  15.853  0.00  0.00    +0.000 F 
ATOM     28  F   UNL     1      -3.532   9.000  17.844  0.00  0.00    +0.000 F 
ATOM     29  F   UNL     1      -3.911  10.977  17.020  0.00  0.00    +0.000 F 
ENDBRANCH  24  26
ENDBRANCH  19  20
ENDBRANCH   4  19
TORSDOF 8
ENDMDL
MODEL 3
REMARK VINA RESULT:      -8.1      6.175      8.400
REMARK  Name = 
REMARK  8 active torsions:
REMARK  status: ('A' for Active; 'I' for Inactive)
REMARK    1  A    between atoms: C_2  and  C_3
REMARK    2  A    between atoms: C_3  and  C_4
REMARK    3  A    between atoms: C_4  and  C_5
REMARK    4  A    between atoms: C_8  and  C_9
REMARK    5  A    between atoms: C_9  and  C_10
REMARK    6  A    between atoms: C_14  and  C_15
REMARK    7  A    between atoms: N_21  and  C_22
REMARK    8  A    between atoms: C_22  and  C_23
REMARK                            x       y       z     vdW  Elec       q    Type
REMARK                         _______ _______ _______ _____ _____    ______ ____
ROOT
ATOM      1  C   UNL     1       1.963   6.406  20.313  0.00  0.00    +0.000 A 
ATOM      2  N   UNL     1       2.463   6.974  19.235  0.00  0.00    +0.000 NA
ATOM      3  N   UNL     1       2.057   8.292  19.262  0.00  0.00    +0.000 NA
ATOM      4  C   UNL     1       1.328   8.437  20.348  0.00  0.00    +0.000 A 
ATOM      5  O   UNL     1       1.225   7.275  21.076  0.00  0.00    +0.000 OA
ENDROOT
BRANCH   1   6
ATOM      6  C   UNL     1       2.117   5.014  20.798  0.00  0.00    +0.000 C 
BRANCH   6   7
ATOM      7  C   UNL     1       1.206   4.054  20.034  0.00  0.00    +0.000 C 
BRANCH   7   9
ATOM      8  O   UNL     1       1.146   3.651  17.655  0.00  0.00    +0.000 OA
ATOM      9  C   UNL     1       1.804   3.675  18.690  0.00  0.00    +0.000 C 
ATOM     10  N   UNL     1       3.138   3.364  18.747  0.00  0.00    +0.000 N 
ATOM     11  H   UNL     1       3.604   3.337  19.640  0.00  0.00    +0.000 HD
BRANCH  10  12
ATOM     12  C   UNL     1       3.897   2.920  17.589  0.00  0.00    +0.000 C 
BRANCH  12  13
ATOM     13  C   UNL     1       4.921   3.964  17.215  0.00  0.00    +0.000 A 
ATOM     14  C   UNL     1       5.575   3.905  15.978  0.00  0.00    +0.000 A 
ATOM     15  C   UNL     1       6.604   4.801  15.676  0.00  0.00    +0.000 A 
ATOM     16  C   UNL     1       6.986   5.764  16.608  0.00  0.00    +0.000 A 
ATOM     17  C   UNL     1       6.326   5.849  17.832  0.00  0.00    +0.000 A 
ATOM     18  C   UNL     1       5.295   4.956  18.134  0.00  0.00    +0.000 A 
ENDBRANCH  12  13
ENDBRANCH  10  12
ENDBRANCH   7   9
ENDBRANCH   6   7
ENDBRANCH   1   6
BRANCH   4  19
ATOM     19  C   UNL     1       0.729   9.671  20.921  0.00  0.00    +0.000 C 
BRANCH  19  20
ATOM     20  C   UNL     1       0.026  10.549  19.907  0.00  0.00    +0.000 A 
ATOM     21  C   UNL     1       0.379  11.899  19.774  0.00  0.00    +0.000 A 
ATOM     22  C   UNL     1      -0.271  12.717  18.851  0.00  0.00    +0.000 A 
ATOM     23  C   UNL     1      -1.283  12.198  18.045  0.00  0.00    +0.000 A 
ATOM     24  C   UNL     1      -1.654  10.849  18.151  0.00  0.00    +0.000 A 
ATOM     25  C   UNL     1      -0.993  10.033  19.088  0.00  0.00    +0.000 A 
BRANCH  24  26
ATOM     26  C   UNL     1      -2.748  10.282  17.277  0.00  0.00    +0.000 C 
ATOM     27  F   UNL     1      -3.788  11.139  17.082  0.00  0.00    +0.000 F 
ATOM     28  F   UNL     1      -2.302   9.952  16.033  0.00  0.00    +0.000 F 
ATOM     29  F   UNL     1      -3.294   9.147  17.793  0.00  0.00    +0.000 F 
ENDBRANCH  24  26
ENDBRANCH  19  20
ENDBRANCH   4  19
TORSDOF 8
ENDMDL
MODEL 4
REMARK VINA RESULT:      -8.1      5.740      6.870
REMARK  Name = 
REMARK  8 active torsions:
REMARK  status: ('A' for Active; 'I' for Inactive)
REMARK    1  A    between atoms: C_2  and  C_3
REMARK    2  A    between atoms: C_3  and  C_4
REMARK    3  A    between atoms: C_4  and  C_5
REMARK    4  A    between atoms: C_8  and  C_9
REMARK    5  A    between atoms: C_9  and  C_10
REMARK    6  A    between atoms: C_14  and  C_15
REMARK    7  A    between atoms: N_21  and  C_22
REMARK    8  A    between atoms: C_22  and  C_23
REMARK                            x       y       z     vdW  Elec       q    Type
REMARK                         _______ _______ _______ _____ _____    ______ ____
ROOT
ATOM      1  C   UNL     1       4.291   5.509  17.013  0.00  0.00    +0.000 A 
ATOM      2  N   UNL     1       3.150   4.975  17.397  0.00  0.00    +0.000 NA
ATOM      3  N   UNL     1       2.350   6.018  17.815  0.00  0.00    +0.000 NA
ATOM      4  C   UNL     1       3.060   7.117  17.669  0.00  0.00    +0.000 A 
ATOM      5  O   UNL     1       4.312   6.873  17.156  0.00  0.00    +0.000 OA
ENDROOT
BRANCH   1   6
ATOM      6  C   UNL     1       5.490   4.851  16.442  0.00  0.00    +0.000 C 
BRANCH   6   7
ATOM      7  C   UNL     1       6.586   4.682  17.494  0.00  0.00    +0.000 C 
BRANCH   7   9
ATOM      8  O   UNL     1       6.169   5.037  19.845  0.00  0.00    +0.000 OA
ATOM      9  C   UNL     1       6.001   4.335  18.852  0.00  0.00    +0.000 C 
ATOM     10  N   UNL     1       5.277   3.171  18.861  0.00  0.00    +0.000 N 
ATOM     11  H   UNL     1       5.236   2.606  18.028  0.00  0.00    +0.000 HD
BRANCH  10  12
ATOM     12  C   UNL     1       4.677   2.622  20.065  0.00  0.00    +0.000 C 
BRANCH  12  13
ATOM     13  C   UNL     1       3.184   2.840  20.041  0.00  0.00    +0.000 A 
ATOM     14  C   UNL     1       2.371   2.094  19.177  0.00  0.00    +0.000 A 
ATOM     15  C   UNL     1       1.007   2.374  19.070  0.00  0.00    +0.000 A 
ATOM     16  C   UNL     1       0.443   3.400  19.825  0.00  0.00    +0.000 A 
ATOM     17  C   UNL     1       1.235   4.132  20.707  0.00  0.00    +0.000 A 
ATOM     18  C   UNL     1       2.599   3.852  20.818  0.00  0.00    +0.000 A 
ENDBRANCH  12  13
ENDBRANCH  10  12
ENDBRANCH   7   9
ENDBRANCH   6   7
ENDBRANCH   1   6
BRANCH   4  19
ATOM     19  C   UNL     1       2.654   8.533  17.868  0.00  0.00    +0.000 C 
BRANCH  19  20
ATOM     20  C   UNL     1       1.766   8.761  19.072  0.00  0.00    +0.000 A 
ATOM     21  C   UNL     1       1.835   7.901  20.177  0.00  0.00    +0.000 A 
ATOM     22  C   UNL     1       1.011   8.098  21.285  0.00  0.00    +0.000 A 
ATOM     23  C   UNL     1       0.107   9.160  21.307  0.00  0.00    +0.000 A 
ATOM     24  C   UNL     1       0.020  10.040  20.218  0.00  0.00    +0.000 A 
ATOM     25  C   UNL     1       0.853   9.830  19.104  0.00  0.00    +0.000 A 
BRANCH  24  26
ATOM     26  C   UNL     1      -0.956  11.193  20.239  0.00  0.00    +0.000 C 
ATOM     27  F   UNL     1      -1.982  11.053  19.352  0.00  0.00    +0.000 F 
ATOM     28  F   UNL     1      -1.542  11.358  21.458  0.00  0.00    +0.000 F 
ATOM     29  F   UNL     1      -0.368  12.383  19.940  0.00  0.00    +0.000 F 
ENDBRANCH  24  26
ENDBRANCH  19  20
ENDBRANCH   4  19
TORSDOF 8
ENDMDL
MODEL 5
REMARK VINA RESULT:      -8.1      5.180     10.642
REMARK  Name = 
REMARK  8 active torsions:
REMARK  status: ('A' for Active; 'I' for Inactive)
REMARK    1  A    between atoms: C_2  and  C_3
REMARK    2  A    between atoms: C_3  and  C_4
REMARK    3  A    between atoms: C_4  and  C_5
REMARK    4  A    between atoms: C_8  and  C_9
REMARK    5  A    between atoms: C_9  and  C_10
REMARK    6  A    between atoms: C_14  and  C_15
REMARK    7  A    between atoms: N_21  and  C_22
REMARK    8  A    between atoms: C_22  and  C_23
REMARK                            x       y       z     vdW  Elec       q    Type
REMARK                         _______ _______ _______ _____ _____    ______ ____
ROOT
ATOM      1  C   UNL     1       7.835   7.948  17.838  0.00  0.00    +0.000 A 
ATOM      2  N   UNL     1       8.251   6.984  18.632  0.00  0.00    +0.000 NA
ATOM      3  N   UNL     1       7.508   5.866  18.315  0.00  0.00    +0.000 NA
ATOM      4  C   UNL     1       6.681   6.227  17.355  0.00  0.00    +0.000 A 
ATOM      5  O   UNL     1       6.833   7.544  16.993  0.00  0.00    +0.000 OA
ENDROOT
BRANCH   1   6
ATOM      6  C   UNL     1       8.315   9.346  17.728  0.00  0.00    +0.000 C 
BRANCH   6   7
ATOM      7  C   UNL     1       8.998   9.803  19.017  0.00  0.00    +0.000 C 
BRANCH   7   9
ATOM      8  O   UNL     1      10.059  11.492  17.658  0.00  0.00    +0.000 OA
ATOM      9  C   UNL     1       9.907  10.995  18.769  0.00  0.00    +0.000 C 
ATOM     10  N   UNL     1      10.538  11.453  19.897  0.00  0.00    +0.000 N 
ATOM     11  H   UNL     1      10.424  10.957  20.766  0.00  0.00    +0.000 HD
BRANCH  10  12
ATOM     12  C   UNL     1      11.495  12.547  19.877  0.00  0.00    +0.000 C 
BRANCH  12  13
ATOM     13  C   UNL     1      10.913  13.751  20.578  0.00  0.00    +0.000 A 
ATOM     14  C   UNL     1       9.883  13.598  21.515  0.00  0.00    +0.000 A 
ATOM     15  C   UNL     1       9.266  14.717  22.078  0.00  0.00    +0.000 A 
ATOM     16  C   UNL     1       9.673  15.998  21.711  0.00  0.00    +0.000 A 
ATOM     17  C   UNL     1      10.713  16.163  20.800  0.00  0.00    +0.000 A 
ATOM     18  C   UNL     1      11.334  15.045  20.237  0.00  0.00    +0.000 A 
ENDBRANCH  12  13
ENDBRANCH  10  12
ENDBRANCH   7   9
ENDBRANCH   6   7
ENDBRANCH   1   6
BRANCH   4  19
ATOM     19  C   UNL     1       5.730   5.396  16.571  0.00  0.00    +0.000 C 
BRANCH  19  20
ATOM     20  C   UNL     1       4.407   5.146  17.262  0.00  0.00    +0.000 A 
ATOM     21  C   UNL     1       3.539   6.212  17.538  0.00  0.00    +0.000 A 
ATOM     22  C   UNL     1       2.324   5.992  18.186  0.00  0.00    +0.000 A 
ATOM     23  C   UNL     1       1.955   4.701  18.565  0.00  0.00    +0.000 A 
ATOM     24  C   UNL     1       2.800   3.614  18.296  0.00  0.00    +0.000 A 
ATOM     25  C   UNL     1       4.026   3.848  17.646  0.00  0.00    +0.000 A 
BRANCH  24  26
ATOM     26  C   UNL     1       2.403   2.214  18.703  0.00  0.00    +0.000 C 
ATOM     27  F   UNL     1       3.262   1.255  18.257  0.00  0.00    +0.000 F 
ATOM     28  F   UNL     1       2.348   2.060  20.055  0.00  0.00    +0.000 F 
ATOM     29  F   UNL     1       1.175   1.860  18.235  0.00  0.00    +0.000 F 
ENDBRANCH  24  26
ENDBRANCH  19  20
ENDBRANCH   4  19
TORSDOF 8
ENDMDL
MODEL 6
REMARK VINA RESULT:      -8.1      5.084     10.370
REMARK  Name = 
REMARK  8 active torsions:
REMARK  status: ('A' for Active; 'I' for Inactive)
REMARK    1  A    between atoms: C_2  and  C_3
REMARK    2  A    between atoms: C_3  and  C_4
REMARK    3  A    between atoms: C_4  and  C_5
REMARK    4  A    between atoms: C_8  and  C_9
REMARK    5  A    between atoms: C_9  and  C_10
REMARK    6  A    between atoms: C_14  and  C_15
REMARK    7  A    between atoms: N_21  and  C_22
REMARK    8  A    between atoms: C_22  and  C_23
REMARK                            x       y       z     vdW  Elec       q    Type
REMARK                         _______ _______ _______ _____ _____    ______ ____
ROOT
ATOM      1  C   UNL     1       7.687   7.928  17.829  0.00  0.00    +0.000 A 
ATOM      2  N   UNL     1       8.104   6.827  18.419  0.00  0.00    +0.000 NA
ATOM      3  N   UNL     1       7.202   5.838  18.087  0.00  0.00    +0.000 NA
ATOM      4  C   UNL     1       6.289   6.405  17.326  0.00  0.00    +0.000 A 
ATOM      5  O   UNL     1       6.533   7.741  17.112  0.00  0.00    +0.000 OA
ENDROOT
BRANCH   1   6
ATOM      6  C   UNL     1       8.300   9.277  17.820  0.00  0.00    +0.000 C 
BRANCH   6   7
ATOM      7  C   UNL     1       8.948   9.604  19.165  0.00  0.00    +0.000 C 
BRANCH   7   9
ATOM      8  O   UNL     1      10.406  11.316  20.041  0.00  0.00    +0.000 OA
ATOM      9  C   UNL     1       9.775  10.876  19.086  0.00  0.00    +0.000 C 
ATOM     10  N   UNL     1       9.743  11.479  17.856  0.00  0.00    +0.000 N 
ATOM     11  H   UNL     1       9.150  11.104  17.133  0.00  0.00    +0.000 HD
BRANCH  10  12
ATOM     12  C   UNL     1      10.417  12.736  17.574  0.00  0.00    +0.000 C 
BRANCH  12  13
ATOM     13  C   UNL     1       9.493  13.892  17.872  0.00  0.00    +0.000 A 
ATOM     14  C   UNL     1       8.105  13.738  17.765  0.00  0.00    +0.000 A 
ATOM     15  C   UNL     1       7.255  14.834  17.927  0.00  0.00    +0.000 A 
ATOM     16  C   UNL     1       7.785  16.094  18.200  0.00  0.00    +0.000 A 
ATOM     17  C   UNL     1       9.162  16.255  18.335  0.00  0.00    +0.000 A 
ATOM     18  C   UNL     1      10.013  15.160  18.175  0.00  0.00    +0.000 A 
ENDBRANCH  12  13
ENDBRANCH  10  12
ENDBRANCH   7   9
ENDBRANCH   6   7
ENDBRANCH   1   6
BRANCH   4  19
ATOM     19  C   UNL     1       5.146   5.784  16.607  0.00  0.00    +0.000 C 
BRANCH  19  20
ATOM     20  C   UNL     1       3.980   5.411  17.498  0.00  0.00    +0.000 A 
ATOM     21  C   UNL     1       3.228   6.408  18.135  0.00  0.00    +0.000 A 
ATOM     22  C   UNL     1       2.160   6.071  18.967  0.00  0.00    +0.000 A 
ATOM     23  C   UNL     1       1.825   4.733  19.172  0.00  0.00    +0.000 A 
ATOM     24  C   UNL     1       2.555   3.715  18.542  0.00  0.00    +0.000 A 
ATOM     25  C   UNL     1       3.633   4.065  17.708  0.00  0.00    +0.000 A 
BRANCH  24  26
ATOM     26  C   UNL     1       2.194   2.264  18.759  0.00  0.00    +0.000 C 
ATOM     27  F   UNL     1       3.071   1.393  18.184  0.00  0.00    +0.000 F 
ATOM     28  F   UNL     1       2.153   1.928  20.079  0.00  0.00    +0.000 F 
ATOM     29  F   UNL     1       0.971   1.947  18.253  0.00  0.00    +0.000 F 
ENDBRANCH  24  26
ENDBRANCH  19  20
ENDBRANCH   4  19
TORSDOF 8
ENDMDL
MODEL 7
REMARK VINA RESULT:      -8.0      5.918      8.224
REMARK  Name = 
REMARK  8 active torsions:
REMARK  status: ('A' for Active; 'I' for Inactive)
REMARK    1  A    between atoms: C_2  and  C_3
REMARK    2  A    between atoms: C_3  and  C_4
REMARK    3  A    between atoms: C_4  and  C_5
REMARK    4  A    between atoms: C_8  and  C_9
REMARK    5  A    between atoms: C_9  and  C_10
REMARK    6  A    between atoms: C_14  and  C_15
REMARK    7  A    between atoms: N_21  and  C_22
REMARK    8  A    between atoms: C_22  and  C_23
REMARK                            x       y       z     vdW  Elec       q    Type
REMARK                         _______ _______ _______ _____ _____    ______ ____
ROOT
ATOM      1  C   UNL     1       2.255   6.312  20.048  0.00  0.00    +0.000 A 
ATOM      2  N   UNL     1       1.585   5.322  20.599  0.00  0.00    +0.000 NA
ATOM      3  N   UNL     1       2.362   4.192  20.454  0.00  0.00    +0.000 NA
ATOM      4  C   UNL     1       3.451   4.567  19.814  0.00  0.00    +0.000 A 
ATOM      5  O   UNL     1       3.457   5.910  19.524  0.00  0.00    +0.000 OA
ENDROOT
BRANCH   1   6
ATOM      6  C   UNL     1       1.901   7.748  19.956  0.00  0.00    +0.000 C 
BRANCH   6   7
ATOM      7  C   UNL     1       2.104   8.282  18.538  0.00  0.00    +0.000 C 
BRANCH   7   9
ATOM      8  O   UNL     1       2.180  10.621  17.946  0.00  0.00    +0.000 OA
ATOM      9  C   UNL     1       1.528   9.680  18.387  0.00  0.00    +0.000 C 
ATOM     10  N   UNL     1       0.222   9.785  18.789  0.00  0.00    +0.000 N 
ATOM     11  H   UNL     1      -0.235   8.990  19.206  0.00  0.00    +0.000 HD
BRANCH  10  12
ATOM     12  C   UNL     1      -0.508  11.042  18.783  0.00  0.00    +0.000 C 
BRANCH  12  13
ATOM     13  C   UNL     1      -1.814  10.875  18.044  0.00  0.00    +0.000 A 
ATOM     14  C   UNL     1      -1.901  10.015  16.942  0.00  0.00    +0.000 A 
ATOM     15  C   UNL     1      -3.074   9.946  16.188  0.00  0.00    +0.000 A 
ATOM     16  C   UNL     1      -4.171  10.736  16.530  0.00  0.00    +0.000 A 
ATOM     17  C   UNL     1      -4.105  11.576  17.639  0.00  0.00    +0.000 A 
ATOM     18  C   UNL     1      -2.933  11.644  18.396  0.00  0.00    +0.000 A 
ENDBRANCH  12  13
ENDBRANCH  10  12
ENDBRANCH   7   9
ENDBRANCH   6   7
ENDBRANCH   1   6
BRANCH   4  19
ATOM     19  C   UNL     1       4.668   3.779  19.487  0.00  0.00    +0.000 C 
BRANCH  19  20
ATOM     20  C   UNL     1       5.619   4.471  18.534  0.00  0.00    +0.000 A 
ATOM     21  C   UNL     1       6.598   5.348  19.021  0.00  0.00    +0.000 A 
ATOM     22  C   UNL     1       7.469   5.999  18.149  0.00  0.00    +0.000 A 
ATOM     23  C   UNL     1       7.377   5.781  16.774  0.00  0.00    +0.000 A 
ATOM     24  C   UNL     1       6.412   4.904  16.258  0.00  0.00    +0.000 A 
ATOM     25  C   UNL     1       5.535   4.256  17.147  0.00  0.00    +0.000 A 
BRANCH  24  26
ATOM     26  C   UNL     1       6.311   4.663  14.770  0.00  0.00    +0.000 C 
ATOM     27  F   UNL     1       6.281   3.343  14.433  0.00  0.00    +0.000 F 
ATOM     28  F   UNL     1       5.186   5.208  14.229  0.00  0.00    +0.000 F 
ATOM     29  F   UNL     1       7.356   5.198  14.080  0.00  0.00    +0.000 F 
ENDBRANCH  24  26
ENDBRANCH  19  20
ENDBRANCH   4  19
TORSDOF 8
ENDMDL
MODEL 8
REMARK VINA RESULT:      -8.0      5.171     10.111
REMARK  Name = 
REMARK  8 active torsions:
REMARK  status: ('A' for Active; 'I' for Inactive)
REMARK    1  A    between atoms: C_2  and  C_3
REMARK    2  A    between atoms: C_3  and  C_4
REMARK    3  A    between atoms: C_4  and  C_5
REMARK    4  A    between atoms: C_8  and  C_9
REMARK    5  A    between atoms: C_9  and  C_10
REMARK    6  A    between atoms: C_14  and  C_15
REMARK    7  A    between atoms: N_21  and  C_22
REMARK    8  A    between atoms: C_22  and  C_23
REMARK                            x       y       z     vdW  Elec       q    Type
REMARK                         _______ _______ _______ _____ _____    ______ ____
ROOT
ATOM      1  C   UNL     1       7.382   7.419  17.488  0.00  0.00    +0.000 A 
ATOM      2  N   UNL     1       7.570   6.434  16.635  0.00  0.00    +0.000 NA
ATOM      3  N   UNL     1       6.318   6.004  16.248  0.00  0.00    +0.000 NA
ATOM      4  C   UNL     1       5.449   6.748  16.900  0.00  0.00    +0.000 A 
ATOM      5  O   UNL     1       6.054   7.680  17.711  0.00  0.00    +0.000 OA
ENDROOT
BRANCH   1   6
ATOM      6  C   UNL     1       8.382   8.262  18.183  0.00  0.00    +0.000 C 
BRANCH   6   7
ATOM      7  C   UNL     1       8.125   9.749  17.937  0.00  0.00    +0.000 C 
BRANCH   7   9
ATOM      8  O   UNL     1      10.187  10.970  17.652  0.00  0.00    +0.000 OA
ATOM      9  C   UNL     1       9.295  10.597  18.406  0.00  0.00    +0.000 C 
ATOM     10  N   UNL     1       9.256  10.900  19.743  0.00  0.00    +0.000 N 
ATOM     11  H   UNL     1       8.531  10.505  20.321  0.00  0.00    +0.000 HD
BRANCH  10  12
ATOM     12  C   UNL     1      10.303  11.653  20.413  0.00  0.00    +0.000 C 
BRANCH  12  13
ATOM     13  C   UNL     1       9.700  12.536  21.479  0.00  0.00    +0.000 A 
ATOM     14  C   UNL     1       8.716  12.037  22.341  0.00  0.00    +0.000 A 
ATOM     15  C   UNL     1       8.075  12.882  23.250  0.00  0.00    +0.000 A 
ATOM     16  C   UNL     1       8.414  14.232  23.306  0.00  0.00    +0.000 A 
ATOM     17  C   UNL     1       9.409  14.735  22.471  0.00  0.00    +0.000 A 
ATOM     18  C   UNL     1      10.053  13.891  21.563  0.00  0.00    +0.000 A 
ENDBRANCH  12  13
ENDBRANCH  10  12
ENDBRANCH   7   9
ENDBRANCH   6   7
ENDBRANCH   1   6
BRANCH   4  19
ATOM     19  C   UNL     1       3.968   6.784  16.785  0.00  0.00    +0.000 C 
BRANCH  19  20
ATOM     20  C   UNL     1       3.242   6.017  17.870  0.00  0.00    +0.000 A 
ATOM     21  C   UNL     1       2.929   6.636  19.088  0.00  0.00    +0.000 A 
ATOM     22  C   UNL     1       2.272   5.932  20.097  0.00  0.00    +0.000 A 
ATOM     23  C   UNL     1       1.913   4.599  19.901  0.00  0.00    +0.000 A 
ATOM     24  C   UNL     1       2.206   3.955  18.690  0.00  0.00    +0.000 A 
ATOM     25  C   UNL     1       2.874   4.673  17.681  0.00  0.00    +0.000 A 
BRANCH  24  26
ATOM     26  C   UNL     1       1.816   2.512  18.474  0.00  0.00    +0.000 C 
ATOM     27  F   UNL     1       2.273   1.673  19.446  0.00  0.00    +0.000 F 
ATOM     28  F   UNL     1       0.465   2.336  18.439  0.00  0.00    +0.000 F 
ATOM     29  F   UNL     1       2.290   2.012  17.299  0.00  0.00    +0.000 F 
ENDBRANCH  24  26
ENDBRANCH  19  20
ENDBRANCH   4  19
TORSDOF 8
ENDMDL
MODEL 9
REMARK VINA RESULT:      -8.0      6.290      8.397
REMARK  Name = 
REMARK  8 active torsions:
REMARK  status: ('A' for Active; 'I' for Inactive)
REMARK    1  A    between atoms: C_2  and  C_3
REMARK    2  A    between atoms: C_3  and  C_4
REMARK    3  A    between atoms: C_4  and  C_5
REMARK    4  A    between atoms: C_8  and  C_9
REMARK    5  A    between atoms: C_9  and  C_10
REMARK    6  A    between atoms: C_14  and  C_15
REMARK    7  A    between atoms: N_21  and  C_22
REMARK    8  A    between atoms: C_22  and  C_23
REMARK                            x       y       z     vdW  Elec       q    Type
REMARK                         _______ _______ _______ _____ _____    ______ ____
ROOT
ATOM      1  C   UNL     1       1.831   6.350  20.542  0.00  0.00    +0.000 A 
ATOM      2  N   UNL     1       1.367   7.245  21.388  0.00  0.00    +0.000 NA
ATOM      3  N   UNL     1       1.291   8.436  20.696  0.00  0.00    +0.000 NA
ATOM      4  C   UNL     1       1.724   8.189  19.477  0.00  0.00    +0.000 A 
ATOM      5  O   UNL     1       2.085   6.875  19.300  0.00  0.00    +0.000 OA
ENDROOT
BRANCH   1   6
ATOM      6  C   UNL     1       2.074   4.902  20.747  0.00  0.00    +0.000 C 
BRANCH   6   7
ATOM      7  C   UNL     1       1.151   4.052  19.874  0.00  0.00    +0.000 C 
BRANCH   7   9
ATOM      8  O   UNL     1       1.982   2.057  18.800  0.00  0.00    +0.000 OA
ATOM      9  C   UNL     1       1.936   3.282  18.826  0.00  0.00    +0.000 C 
ATOM     10  N   UNL     1       2.584   4.084  17.922  0.00  0.00    +0.000 N 
ATOM     11  H   UNL     1       2.562   5.085  18.040  0.00  0.00    +0.000 HD
BRANCH  10  12
ATOM     12  C   UNL     1       3.437   3.559  16.869  0.00  0.00    +0.000 C 
BRANCH  12  13
ATOM     13  C   UNL     1       4.751   4.303  16.853  0.00  0.00    +0.000 A 
ATOM     14  C   UNL     1       5.000   5.323  17.780  0.00  0.00    +0.000 A 
ATOM     15  C   UNL     1       6.165   6.089  17.694  0.00  0.00    +0.000 A 
ATOM     16  C   UNL     1       7.091   5.840  16.683  0.00  0.00    +0.000 A 
ATOM     17  C   UNL     1       6.867   4.811  15.772  0.00  0.00    +0.000 A 
ATOM     18  C   UNL     1       5.704   4.042  15.857  0.00  0.00    +0.000 A 
ENDBRANCH  12  13
ENDBRANCH  10  12
ENDBRANCH   7   9
ENDBRANCH   6   7
ENDBRANCH   1   6
BRANCH   4  19
ATOM     19  C   UNL     1       1.760   9.085  18.292  0.00  0.00    +0.000 C 
BRANCH  19  20
ATOM     20  C   UNL     1       0.621  10.081  18.232  0.00  0.00    +0.000 A 
ATOM     21  C   UNL     1       0.820  11.410  18.631  0.00  0.00    +0.000 A 
ATOM     22  C   UNL     1      -0.227  12.330  18.590  0.00  0.00    +0.000 A 
ATOM     23  C   UNL     1      -1.489  11.937  18.146  0.00  0.00    +0.000 A 
ATOM     24  C   UNL     1      -1.716  10.616  17.734  0.00  0.00    +0.000 A 
ATOM     25  C   UNL     1      -0.654   9.695  17.783  0.00  0.00    +0.000 A 
BRANCH  24  26
ATOM     26  C   UNL     1      -3.081  10.187  17.249  0.00  0.00    +0.000 C 
ATOM     27  F   UNL     1      -4.050  11.122  17.453  0.00  0.00    +0.000 F 
ATOM     28  F   UNL     1      -3.100   9.921  15.913  0.00  0.00    +0.000 F 
ATOM     29  F   UNL     1      -3.523   9.055  17.863  0.00  0.00    +0.000 F 
ENDBRANCH  24  26
ENDBRANCH  19  20
ENDBRANCH   4  19
TORSDOF 8
ENDMDL
