MODEL 1
REMARK VINA RESULT:      -5.1      0.000      0.000
REMARK  Name = 
REMARK  9 active torsions:
REMARK  status: ('A' for Active; 'I' for Inactive)
REMARK    1  A    between atoms: C_1  and  C_2
REMARK    2  A    between atoms: C_2  and  C_3
REMARK    3  A    between atoms: C_3  and  C_4
REMARK    4  A    between atoms: C_4  and  C_5
REMARK    5  A    between atoms: C_5  and  C_7
REMARK    6  A    between atoms: C_7  and  C_9
REMARK    7  A    between atoms: C_9  and  O_10
REMARK    8  A    between atoms: C_9  and  C_11
REMARK    9  A    between atoms: C_11  and  O_12
REMARK                            x       y       z     vdW  Elec       q    Type
REMARK                         _______ _______ _______ _____ _____    ______ ____
ROOT
ATOM      1  C   UNL     1       3.973   3.919  17.947  0.00  0.00    +0.000 C 
ATOM      2  O   UNL     1       4.082   4.638  16.960  0.00  0.00    +0.000 OA
ENDROOT
BRANCH   1   3
ATOM      3  C   UNL     1       2.882   2.877  17.973  0.00  0.00    +0.000 C 
ATOM      4  O   UNL     1       3.207   1.697  17.924  0.00  0.00    +0.000 OA
BRANCH   3   5
ATOM      5  C   UNL     1       1.469   3.406  18.024  0.00  0.00    +0.000 C 
BRANCH   5   6
ATOM      6  C   UNL     1       0.727   2.876  19.248  0.00  0.00    +0.000 C 
BRANCH   6   8
ATOM      7  C   UNL     1       1.719   2.729  21.556  0.00  0.00    +0.000 C 
ATOM      8  C   UNL     1       1.099   3.647  20.514  0.00  0.00    +0.000 C 
ENDBRANCH   6   8
ENDBRANCH   5   6
ENDBRANCH   3   5
ENDBRANCH   1   3
BRANCH   1   9
ATOM      9  C   UNL     1       4.839   4.015  19.192  0.00  0.00    +0.000 C 
BRANCH   9  10
ATOM     10  O   UNL     1       5.246   2.762  19.732  0.00  0.00    +0.000 OA
ATOM     11  H   UNL     1       6.218   2.698  19.648  0.00  0.00    +0.000 HD
ENDBRANCH   9  10
BRANCH   9  12
ATOM     12  C   UNL     1       6.055   4.898  18.898  0.00  0.00    +0.000 C 
BRANCH  12  13
ATOM     13  O   UNL     1       7.031   4.203  18.122  0.00  0.00    +0.000 OA
ATOM     14  H   UNL     1       6.940   4.486  17.194  0.00  0.00    +0.000 HD
ENDBRANCH  12  13
ENDBRANCH   9  12
ENDBRANCH   1   9
TORSDOF 8
ENDMDL
MODEL 2
REMARK VINA RESULT:      -5.0      4.302      6.476
REMARK  Name = 
REMARK  9 active torsions:
REMARK  status: ('A' for Active; 'I' for Inactive)
REMARK    1  A    between atoms: C_1  and  C_2
REMARK    2  A    between atoms: C_2  and  C_3
REMARK    3  A    between atoms: C_3  and  C_4
REMARK    4  A    between atoms: C_4  and  C_5
REMARK    5  A    between atoms: C_5  and  C_7
REMARK    6  A    between atoms: C_7  and  C_9
REMARK    7  A    between atoms: C_9  and  O_10
REMARK    8  A    between atoms: C_9  and  C_11
REMARK    9  A    between atoms: C_11  and  O_12
REMARK                            x       y       z     vdW  Elec       q    Type
REMARK                         _______ _______ _______ _____ _____    ______ ____
ROOT
ATOM      1  C   UNL     1       6.941   4.990  15.928  0.00  0.00    +0.000 C 
ATOM      2  O   UNL     1       7.762   4.411  16.631  0.00  0.00    +0.000 OA
ENDROOT
BRANCH   1   3
ATOM      3  C   UNL     1       7.039   4.852  14.428  0.00  0.00    +0.000 C 
ATOM      4  O   UNL     1       7.817   5.583  13.828  0.00  0.00    +0.000 OA
BRANCH   3   5
ATOM      5  C   UNL     1       6.124   3.828  13.801  0.00  0.00    +0.000 C 
BRANCH   5   6
ATOM      6  C   UNL     1       6.507   3.565  12.346  0.00  0.00    +0.000 C 
BRANCH   6   8
ATOM      7  C   UNL     1       4.205   3.253  11.379  0.00  0.00    +0.000 C 
ATOM      8  C   UNL     1       5.541   2.590  11.674  0.00  0.00    +0.000 C 
ENDBRANCH   6   8
ENDBRANCH   5   6
ENDBRANCH   3   5
ENDBRANCH   1   3
BRANCH   1   9
ATOM      9  C   UNL     1       5.831   5.887  16.447  0.00  0.00    +0.000 C 
BRANCH   9  10
ATOM     10  O   UNL     1       5.329   6.823  15.499  0.00  0.00    +0.000 OA
ATOM     11  H   UNL     1       5.906   6.793  14.710  0.00  0.00    +0.000 HD
ENDBRANCH   9  10
BRANCH   9  12
ATOM     12  C   UNL     1       4.697   5.020  17.004  0.00  0.00    +0.000 C 
BRANCH  12  13
ATOM     13  O   UNL     1       4.638   5.087  18.428  0.00  0.00    +0.000 OA
ATOM     14  H   UNL     1       5.512   4.842  18.781  0.00  0.00    +0.000 HD
ENDBRANCH  12  13
ENDBRANCH   9  12
ENDBRANCH   1   9
TORSDOF 8
ENDMDL
MODEL 3
REMARK VINA RESULT:      -4.9      4.501      6.488
REMARK  Name = 
REMARK  9 active torsions:
REMARK  status: ('A' for Active; 'I' for Inactive)
REMARK    1  A    between atoms: C_1  and  C_2
REMARK    2  A    between atoms: C_2  and  C_3
REMARK    3  A    between atoms: C_3  and  C_4
REMARK    4  A    between atoms: C_4  and  C_5
REMARK    5  A    between atoms: C_5  and  C_7
REMARK    6  A    between atoms: C_7  and  C_9
REMARK    7  A    between atoms: C_9  and  O_10
REMARK    8  A    between atoms: C_9  and  C_11
REMARK    9  A    between atoms: C_11  and  O_12
REMARK                            x       y       z     vdW  Elec       q    Type
REMARK                         _______ _______ _______ _____ _____    ______ ____
ROOT
ATOM      1  C   UNL     1       6.927   4.789  15.913  0.00  0.00    +0.000 C 
ATOM      2  O   UNL     1       7.900   4.430  16.566  0.00  0.00    +0.000 OA
ENDROOT
BRANCH   1   3
ATOM      3  C   UNL     1       7.014   4.776  14.407  0.00  0.00    +0.000 C 
ATOM      4  O   UNL     1       7.866   5.472  13.870  0.00  0.00    +0.000 OA
BRANCH   3   5
ATOM      5  C   UNL     1       5.997   3.915  13.697  0.00  0.00    +0.000 C 
BRANCH   5   6
ATOM      6  C   UNL     1       6.483   3.528  12.301  0.00  0.00    +0.000 C 
BRANCH   6   8
ATOM      7  C   UNL     1       6.511   1.348  11.044  0.00  0.00    +0.000 C 
ATOM      8  C   UNL     1       5.637   2.407  11.698  0.00  0.00    +0.000 C 
ENDBRANCH   6   8
ENDBRANCH   5   6
ENDBRANCH   3   5
ENDBRANCH   1   3
BRANCH   1   9
ATOM      9  C   UNL     1       5.622   5.295  16.505  0.00  0.00    +0.000 C 
BRANCH   9  10
ATOM     10  O   UNL     1       4.919   4.342  17.296  0.00  0.00    +0.000 OA
ATOM     11  H   UNL     1       4.807   4.719  18.192  0.00  0.00    +0.000 HD
ENDBRANCH   9  10
BRANCH   9  12
ATOM     12  C   UNL     1       5.889   6.572  17.306  0.00  0.00    +0.000 C 
BRANCH  12  13
ATOM     13  O   UNL     1       7.036   7.266  16.818  0.00  0.00    +0.000 OA
ATOM     14  H   UNL     1       6.885   7.484  15.880  0.00  0.00    +0.000 HD
ENDBRANCH  12  13
ENDBRANCH   9  12
ENDBRANCH   1   9
TORSDOF 8
ENDMDL
MODEL 4
REMARK VINA RESULT:      -4.9      3.437      6.655
REMARK  Name = 
REMARK  9 active torsions:
REMARK  status: ('A' for Active; 'I' for Inactive)
REMARK    1  A    between atoms: C_1  and  C_2
REMARK    2  A    between atoms: C_2  and  C_3
REMARK    3  A    between atoms: C_3  and  C_4
REMARK    4  A    between atoms: C_4  and  C_5
REMARK    5  A    between atoms: C_5  and  C_7
REMARK    6  A    between atoms: C_7  and  C_9
REMARK    7  A    between atoms: C_9  and  O_10
REMARK    8  A    between atoms: C_9  and  C_11
REMARK    9  A    between atoms: C_11  and  O_12
REMARK                            x       y       z     vdW  Elec       q    Type
REMARK                         _______ _______ _______ _____ _____    ______ ____
ROOT
ATOM      1  C   UNL     1       6.810   5.389  18.389  0.00  0.00    +0.000 C 
ATOM      2  O   UNL     1       7.106   5.141  19.553  0.00  0.00    +0.000 OA
ENDROOT
BRANCH   1   3
ATOM      3  C   UNL     1       7.535   6.503  17.674  0.00  0.00    +0.000 C 
ATOM      4  O   UNL     1       7.523   6.510  16.450  0.00  0.00    +0.000 OA
BRANCH   3   5
ATOM      5  C   UNL     1       8.245   7.499  18.559  0.00  0.00    +0.000 C 
BRANCH   5   6
ATOM      6  C   UNL     1       8.229   8.895  17.939  0.00  0.00    +0.000 C 
BRANCH   6   8
ATOM      7  C   UNL     1       9.350  11.146  18.021  0.00  0.00    +0.000 C 
ATOM      8  C   UNL     1       8.955   9.913  18.818  0.00  0.00    +0.000 C 
ENDBRANCH   6   8
ENDBRANCH   5   6
ENDBRANCH   3   5
ENDBRANCH   1   3
BRANCH   1   9
ATOM      9  C   UNL     1       5.726   4.678  17.598  0.00  0.00    +0.000 C 
BRANCH   9  10
ATOM     10  O   UNL     1       6.204   3.713  16.666  0.00  0.00    +0.000 OA
ATOM     11  H   UNL     1       6.835   3.129  17.133  0.00  0.00    +0.000 HD
ENDBRANCH   9  10
BRANCH   9  12
ATOM     12  C   UNL     1       4.723   4.044  18.566  0.00  0.00    +0.000 C 
BRANCH  12  13
ATOM     13  O   UNL     1       5.294   2.934  19.258  0.00  0.00    +0.000 OA
ATOM     14  H   UNL     1       5.009   2.117  18.812  0.00  0.00    +0.000 HD
ENDBRANCH  12  13
ENDBRANCH   9  12
ENDBRANCH   1   9
TORSDOF 8
ENDMDL
MODEL 5
REMARK VINA RESULT:      -4.9      3.663      5.315
REMARK  Name = 
REMARK  9 active torsions:
REMARK  status: ('A' for Active; 'I' for Inactive)
REMARK    1  A    between atoms: C_1  and  C_2
REMARK    2  A    between atoms: C_2  and  C_3
REMARK    3  A    between atoms: C_3  and  C_4
REMARK    4  A    between atoms: C_4  and  C_5
REMARK    5  A    between atoms: C_5  and  C_7
REMARK    6  A    between atoms: C_7  and  C_9
REMARK    7  A    between atoms: C_9  and  O_10
REMARK    8  A    between atoms: C_9  and  C_11
REMARK    9  A    between atoms: C_11  and  O_12
REMARK                            x       y       z     vdW  Elec       q    Type
REMARK                         _______ _______ _______ _____ _____    ______ ____
ROOT
ATOM      1  C   UNL     1       6.162   5.495  17.031  0.00  0.00    +0.000 C 
ATOM      2  O   UNL     1       6.505   6.541  16.490  0.00  0.00    +0.000 OA
ENDROOT
BRANCH   1   3
ATOM      3  C   UNL     1       5.498   4.427  16.197  0.00  0.00    +0.000 C 
ATOM      4  O   UNL     1       4.420   3.985  16.573  0.00  0.00    +0.000 OA
BRANCH   3   5
ATOM      5  C   UNL     1       6.263   3.977  14.976  0.00  0.00    +0.000 C 
BRANCH   5   6
ATOM      6  C   UNL     1       5.489   4.288  13.696  0.00  0.00    +0.000 C 
BRANCH   6   8
ATOM      7  C   UNL     1       4.712   3.180  11.575  0.00  0.00    +0.000 C 
ATOM      8  C   UNL     1       5.856   3.327  12.565  0.00  0.00    +0.000 C 
ENDBRANCH   6   8
ENDBRANCH   5   6
ENDBRANCH   3   5
ENDBRANCH   1   3
BRANCH   1   9
ATOM      9  C   UNL     1       6.317   5.191  18.511  0.00  0.00    +0.000 C 
BRANCH   9  10
ATOM     10  O   UNL     1       6.050   3.839  18.872  0.00  0.00    +0.000 OA
ATOM     11  H   UNL     1       6.589   3.261  18.295  0.00  0.00    +0.000 HD
ENDBRANCH   9  10
BRANCH   9  12
ATOM     12  C   UNL     1       7.716   5.608  18.971  0.00  0.00    +0.000 C 
BRANCH  12  13
ATOM     13  O   UNL     1       7.850   5.516  20.389  0.00  0.00    +0.000 OA
ATOM     14  H   UNL     1       6.972   5.654  20.788  0.00  0.00    +0.000 HD
ENDBRANCH  12  13
ENDBRANCH   9  12
ENDBRANCH   1   9
TORSDOF 8
ENDMDL
MODEL 6
REMARK VINA RESULT:      -4.9      4.214      6.159
REMARK  Name = 
REMARK  9 active torsions:
REMARK  status: ('A' for Active; 'I' for Inactive)
REMARK    1  A    between atoms: C_1  and  C_2
REMARK    2  A    between atoms: C_2  and  C_3
REMARK    3  A    between atoms: C_3  and  C_4
REMARK    4  A    between atoms: C_4  and  C_5
REMARK    5  A    between atoms: C_5  and  C_7
REMARK    6  A    between atoms: C_7  and  C_9
REMARK    7  A    between atoms: C_9  and  O_10
REMARK    8  A    between atoms: C_9  and  C_11
REMARK    9  A    between atoms: C_11  and  O_12
REMARK                            x       y       z     vdW  Elec       q    Type
REMARK                         _______ _______ _______ _____ _____    ______ ____
ROOT
ATOM      1  C   UNL     1       6.631   4.794  15.981  0.00  0.00    +0.000 C 
ATOM      2  O   UNL     1       7.588   5.097  16.685  0.00  0.00    +0.000 OA
ENDROOT
BRANCH   1   3
ATOM      3  C   UNL     1       6.800   4.796  14.481  0.00  0.00    +0.000 C 
ATOM      4  O   UNL     1       7.713   5.456  14.002  0.00  0.00    +0.000 OA
BRANCH   3   5
ATOM      5  C   UNL     1       5.783   3.996  13.704  0.00  0.00    +0.000 C 
BRANCH   5   6
ATOM      6  C   UNL     1       6.368   3.496  12.385  0.00  0.00    +0.000 C 
BRANCH   6   8
ATOM      7  C   UNL     1       4.103   3.276  11.310  0.00  0.00    +0.000 C 
ATOM      8  C   UNL     1       5.402   2.564  11.654  0.00  0.00    +0.000 C 
ENDBRANCH   6   8
ENDBRANCH   5   6
ENDBRANCH   3   5
ENDBRANCH   1   3
BRANCH   1   9
ATOM      9  C   UNL     1       5.247   4.445  16.499  0.00  0.00    +0.000 C 
BRANCH   9  10
ATOM     10  O   UNL     1       5.164   3.199  17.184  0.00  0.00    +0.000 OA
ATOM     11  H   UNL     1       4.227   3.046  17.421  0.00  0.00    +0.000 HD
ENDBRANCH   9  10
BRANCH   9  12
ATOM     12  C   UNL     1       4.733   5.584  17.384  0.00  0.00    +0.000 C 
BRANCH  12  13
ATOM     13  O   UNL     1       5.396   5.605  18.647  0.00  0.00    +0.000 OA
ATOM     14  H   UNL     1       4.753   5.882  19.324  0.00  0.00    +0.000 HD
ENDBRANCH  12  13
ENDBRANCH   9  12
ENDBRANCH   1   9
TORSDOF 8
ENDMDL
MODEL 7
REMARK VINA RESULT:      -4.8      1.410      1.554
REMARK  Name = 
REMARK  9 active torsions:
REMARK  status: ('A' for Active; 'I' for Inactive)
REMARK    1  A    between atoms: C_1  and  C_2
REMARK    2  A    between atoms: C_2  and  C_3
REMARK    3  A    between atoms: C_3  and  C_4
REMARK    4  A    between atoms: C_4  and  C_5
REMARK    5  A    between atoms: C_5  and  C_7
REMARK    6  A    between atoms: C_7  and  C_9
REMARK    7  A    between atoms: C_9  and  O_10
REMARK    8  A    between atoms: C_9  and  C_11
REMARK    9  A    between atoms: C_11  and  O_12
REMARK                            x       y       z     vdW  Elec       q    Type
REMARK                         _______ _______ _______ _____ _____    ______ ____
ROOT
ATOM      1  C   UNL     1       4.852   4.136  16.845  0.00  0.00    +0.000 C 
ATOM      2  O   UNL     1       4.826   4.290  15.629  0.00  0.00    +0.000 OA
ENDROOT
BRANCH   1   3
ATOM      3  C   UNL     1       3.687   3.455  17.519  0.00  0.00    +0.000 C 
ATOM      4  O   UNL     1       3.799   2.272  17.816  0.00  0.00    +0.000 OA
BRANCH   3   5
ATOM      5  C   UNL     1       2.460   4.309  17.733  0.00  0.00    +0.000 C 
BRANCH   5   6
ATOM      6  C   UNL     1       1.368   3.531  18.464  0.00  0.00    +0.000 C 
BRANCH   6   8
ATOM      7  C   UNL     1       1.270   2.919  20.902  0.00  0.00    +0.000 C 
ATOM      8  C   UNL     1       1.161   4.046  19.887  0.00  0.00    +0.000 C 
ENDBRANCH   6   8
ENDBRANCH   5   6
ENDBRANCH   3   5
ENDBRANCH   1   3
BRANCH   1   9
ATOM      9  C   UNL     1       5.967   4.617  17.757  0.00  0.00    +0.000 C 
BRANCH   9  10
ATOM     10  O   UNL     1       6.100   3.886  18.972  0.00  0.00    +0.000 OA
ATOM     11  H   UNL     1       5.344   4.117  19.548  0.00  0.00    +0.000 HD
ENDBRANCH   9  10
BRANCH   9  12
ATOM     12  C   UNL     1       7.289   4.625  16.984  0.00  0.00    +0.000 C 
BRANCH  12  13
ATOM     13  O   UNL     1       7.384   5.758  16.122  0.00  0.00    +0.000 OA
ATOM     14  H   UNL     1       7.079   5.494  15.236  0.00  0.00    +0.000 HD
ENDBRANCH  12  13
ENDBRANCH   9  12
ENDBRANCH   1   9
TORSDOF 8
ENDMDL
MODEL 8
REMARK VINA RESULT:      -4.8      1.430      2.171
REMARK  Name = 
REMARK  9 active torsions:
REMARK  status: ('A' for Active; 'I' for Inactive)
REMARK    1  A    between atoms: C_1  and  C_2
REMARK    2  A    between atoms: C_2  and  C_3
REMARK    3  A    between atoms: C_3  and  C_4
REMARK    4  A    between atoms: C_4  and  C_5
REMARK    5  A    between atoms: C_5  and  C_7
REMARK    6  A    between atoms: C_7  and  C_9
REMARK    7  A    between atoms: C_9  and  O_10
REMARK    8  A    between atoms: C_9  and  C_11
REMARK    9  A    between atoms: C_11  and  O_12
REMARK                            x       y       z     vdW  Elec       q    Type
REMARK                         _______ _______ _______ _____ _____    ______ ____
ROOT
ATOM      1  C   UNL     1       4.802   5.098  19.036  0.00  0.00    +0.000 C 
ATOM      2  O   UNL     1       3.894   5.902  19.213  0.00  0.00    +0.000 OA
ENDROOT
BRANCH   1   3
ATOM      3  C   UNL     1       4.483   3.623  19.043  0.00  0.00    +0.000 C 
ATOM      4  O   UNL     1       5.095   2.901  19.819  0.00  0.00    +0.000 OA
BRANCH   3   5
ATOM      5  C   UNL     1       3.443   3.172  18.045  0.00  0.00    +0.000 C 
BRANCH   5   6
ATOM      6  C   UNL     1       2.615   2.014  18.599  0.00  0.00    +0.000 C 
BRANCH   6   8
ATOM      7  C   UNL     1       0.889   3.208  19.988  0.00  0.00    +0.000 C 
ATOM      8  C   UNL     1       1.139   2.387  18.732  0.00  0.00    +0.000 C 
ENDBRANCH   6   8
ENDBRANCH   5   6
ENDBRANCH   3   5
ENDBRANCH   1   3
BRANCH   1   9
ATOM      9  C   UNL     1       6.263   5.466  18.845  0.00  0.00    +0.000 C 
BRANCH   9  10
ATOM     10  O   UNL     1       7.101   5.179  19.961  0.00  0.00    +0.000 OA
ATOM     11  H   UNL     1       6.543   4.794  20.666  0.00  0.00    +0.000 HD
ENDBRANCH   9  10
BRANCH   9  12
ATOM     12  C   UNL     1       6.797   4.788  17.580  0.00  0.00    +0.000 C 
BRANCH  12  13
ATOM     13  O   UNL     1       7.995   4.059  17.843  0.00  0.00    +0.000 OA
ATOM     14  H   UNL     1       8.165   4.087  18.801  0.00  0.00    +0.000 HD
ENDBRANCH  12  13
ENDBRANCH   9  12
ENDBRANCH   1   9
TORSDOF 8
ENDMDL
MODEL 9
REMARK VINA RESULT:      -4.8      3.426      5.674
REMARK  Name = 
REMARK  9 active torsions:
REMARK  status: ('A' for Active; 'I' for Inactive)
REMARK    1  A    between atoms: C_1  and  C_2
REMARK    2  A    between atoms: C_2  and  C_3
REMARK    3  A    between atoms: C_3  and  C_4
REMARK    4  A    between atoms: C_4  and  C_5
REMARK    5  A    between atoms: C_5  and  C_7
REMARK    6  A    between atoms: C_7  and  C_9
REMARK    7  A    between atoms: C_9  and  O_10
REMARK    8  A    between atoms: C_9  and  C_11
REMARK    9  A    between atoms: C_11  and  O_12
REMARK                            x       y       z     vdW  Elec       q    Type
REMARK                         _______ _______ _______ _____ _____    ______ ____
ROOT
ATOM      1  C   UNL     1       5.787   5.384  16.808  0.00  0.00    +0.000 C 
ATOM      2  O   UNL     1       5.414   6.513  16.508  0.00  0.00    +0.000 OA
ENDROOT
BRANCH   1   3
ATOM      3  C   UNL     1       6.991   4.804  16.108  0.00  0.00    +0.000 C 
ATOM      4  O   UNL     1       7.904   4.364  16.795  0.00  0.00    +0.000 OA
BRANCH   3   5
ATOM      5  C   UNL     1       6.964   4.857  14.599  0.00  0.00    +0.000 C 
BRANCH   5   6
ATOM      6  C   UNL     1       5.872   3.950  14.036  0.00  0.00    +0.000 C 
BRANCH   6   8
ATOM      7  C   UNL     1       4.892   3.231  11.834  0.00  0.00    +0.000 C 
ATOM      8  C   UNL     1       6.172   3.529  12.598  0.00  0.00    +0.000 C 
ENDBRANCH   6   8
ENDBRANCH   5   6
ENDBRANCH   3   5
ENDBRANCH   1   3
BRANCH   1   9
ATOM      9  C   UNL     1       5.101   4.483  17.820  0.00  0.00    +0.000 C 
BRANCH   9  10
ATOM     10  O   UNL     1       5.987   3.737  18.650  0.00  0.00    +0.000 OA
ATOM     11  H   UNL     1       6.898   4.044  18.471  0.00  0.00    +0.000 HD
ENDBRANCH   9  10
BRANCH   9  12
ATOM     12  C   UNL     1       4.136   5.315  18.670  0.00  0.00    +0.000 C 
BRANCH  12  13
ATOM     13  O   UNL     1       2.974   5.685  17.930  0.00  0.00    +0.000 OA
ATOM     14  H   UNL     1       3.181   6.487  17.417  0.00  0.00    +0.000 HD
ENDBRANCH  12  13
ENDBRANCH   9  12
ENDBRANCH   1   9
TORSDOF 8
ENDMDL
