MODEL 1
REMARK VINA RESULT:      -8.4      0.000      0.000
REMARK  Name = 
REMARK  8 active torsions:
REMARK  status: ('A' for Active; 'I' for Inactive)
REMARK    1  A    between atoms: C_1  and  C_2
REMARK    2  A    between atoms: C_10  and  C_11
REMARK    3  A    between atoms: C_11  and  C_12
REMARK    4  A    between atoms: N_14  and  C_15
REMARK    5  A    between atoms: C_15  and  C_16
REMARK    6  A    between atoms: N_18  and  C_19
REMARK    7  A    between atoms: C_22  and  C_23
REMARK    8  A    between atoms: C_29  and  C_30
REMARK                            x       y       z     vdW  Elec       q    Type
REMARK                         _______ _______ _______ _____ _____    ______ ____
ROOT
ATOM      1  C   UNL     1       7.993   7.452  17.869  0.00  0.00    +0.000 C 
ENDROOT
BRANCH   1   4
ATOM      2  C   UNL     1       6.209   5.817  17.399  0.00  0.00    +0.000 C 
ATOM      3  O   UNL     1       6.933   4.879  17.737  0.00  0.00    +0.000 OA
ATOM      4  N   UNL     1       6.662   7.115  17.404  0.00  0.00    +0.000 N 
ATOM      5  H   UNL     1       6.184   7.776  16.784  0.00  0.00    +0.000 HD
BRANCH   2   6
ATOM      6  C   UNL     1       4.751   5.640  17.009  0.00  0.00    +0.000 C 
BRANCH   6  16
ATOM      7  C   UNL     1       2.802   8.116  17.881  0.00  0.00    +0.000 C 
ATOM      8  C   UNL     1       2.974   6.778  18.503  0.00  0.00    +0.000 A 
ATOM      9  N   UNL     1       2.233   6.396  19.597  0.00  0.00    +0.000 N 
ATOM     10  C   UNL     1       2.542   5.110  19.959  0.00  0.00    +0.000 A 
ATOM     11  C   UNL     1       2.041   4.292  20.973  0.00  0.00    +0.000 A 
ATOM     12  C   UNL     1       2.592   3.018  21.045  0.00  0.00    +0.000 A 
ATOM     13  C   UNL     1       3.576   2.649  20.137  0.00  0.00    +0.000 A 
ATOM     14  N   UNL     1       4.072   3.425  19.144  0.00  0.00    +0.000 NA
ATOM     15  C   UNL     1       3.526   4.667  19.083  0.00  0.00    +0.000 A 
ATOM     16  C   UNL     1       3.804   5.715  18.161  0.00  0.00    +0.000 A 
ATOM     17  H   UNL     1       1.539   6.969  20.058  0.00  0.00    +0.000 HD
ENDBRANCH   6  16
ENDBRANCH   2   6
ENDBRANCH   1   4
BRANCH   1  18
ATOM     18  C   UNL     1       8.160   8.945  18.154  0.00  0.00    +0.000 C 
ATOM     19  O   UNL     1       7.510   9.781  17.534  0.00  0.00    +0.000 OA
ATOM     20  N   UNL     1       9.125   9.198  19.111  0.00  0.00    +0.000 N 
ATOM     21  H   UNL     1       9.747   8.439  19.380  0.00  0.00    +0.000 HD
BRANCH  20  22
ATOM     22  C   UNL     1       9.399  10.469  19.562  0.00  0.00    +0.000 A 
ATOM     23  O   UNL     1       8.986  10.865  20.793  0.00  0.00    +0.000 OA
ATOM     24  N   UNL     1       9.376  12.172  21.027  0.00  0.00    +0.000 NA
ATOM     25  C   UNL     1      10.032  12.561  19.924  0.00  0.00    +0.000 A 
ATOM     26  C   UNL     1      10.088  11.497  18.964  0.00  0.00    +0.000 A 
ATOM     27  C   UNL     1      10.656  11.505  17.595  0.00  0.00    +0.000 C 
BRANCH  25  28
ATOM     28  C   UNL     1      10.506  13.935  19.763  0.00  0.00    +0.000 A 
ATOM     29  C   UNL     1      11.878  14.220  19.740  0.00  0.00    +0.000 A 
ATOM     30  C   UNL     1      12.333  15.480  19.351  0.00  0.00    +0.000 A 
ATOM     31  C   UNL     1      11.419  16.480  19.030  0.00  0.00    +0.000 A 
ATOM     32  C   UNL     1      10.051  16.236  19.139  0.00  0.00    +0.000 A 
ATOM     33  C   UNL     1       9.593  14.968  19.509  0.00  0.00    +0.000 A 
ENDBRANCH  25  28
ENDBRANCH  20  22
ENDBRANCH   1  18
TORSDOF 6
ENDMDL
MODEL 2
REMARK VINA RESULT:      -8.4      1.499      1.804
REMARK  Name = 
REMARK  8 active torsions:
REMARK  status: ('A' for Active; 'I' for Inactive)
REMARK    1  A    between atoms: C_1  and  C_2
REMARK    2  A    between atoms: C_10  and  C_11
REMARK    3  A    between atoms: C_11  and  C_12
REMARK    4  A    between atoms: N_14  and  C_15
REMARK    5  A    between atoms: C_15  and  C_16
REMARK    6  A    between atoms: N_18  and  C_19
REMARK    7  A    between atoms: C_22  and  C_23
REMARK    8  A    between atoms: C_29  and  C_30
REMARK                            x       y       z     vdW  Elec       q    Type
REMARK                         _______ _______ _______ _____ _____    ______ ____
ROOT
ATOM      1  C   UNL     1       8.115   6.646  18.829  0.00  0.00    +0.000 C 
ENDROOT
BRANCH   1   4
ATOM      2  C   UNL     1       6.911   4.842  17.657  0.00  0.00    +0.000 C 
ATOM      3  O   UNL     1       7.922   4.532  17.026  0.00  0.00    +0.000 OA
ATOM      4  N   UNL     1       6.909   5.893  18.544  0.00  0.00    +0.000 N 
ATOM      5  H   UNL     1       6.006   6.332  18.741  0.00  0.00    +0.000 HD
BRANCH   2   6
ATOM      6  C   UNL     1       5.605   4.069  17.564  0.00  0.00    +0.000 C 
BRANCH   6  16
ATOM      7  C   UNL     1       4.176   6.942  16.933  0.00  0.00    +0.000 C 
ATOM      8  C   UNL     1       3.868   5.937  17.983  0.00  0.00    +0.000 A 
ATOM      9  N   UNL     1       2.824   6.118  18.862  0.00  0.00    +0.000 N 
ATOM     10  C   UNL     1       2.717   5.041  19.705  0.00  0.00    +0.000 A 
ATOM     11  C   UNL     1       1.813   4.758  20.728  0.00  0.00    +0.000 A 
ATOM     12  C   UNL     1       2.002   3.546  21.382  0.00  0.00    +0.000 A 
ATOM     13  C   UNL     1       3.048   2.718  20.991  0.00  0.00    +0.000 A 
ATOM     14  N   UNL     1       3.933   2.972  19.998  0.00  0.00    +0.000 NA
ATOM     15  C   UNL     1       3.738   4.159  19.367  0.00  0.00    +0.000 A 
ATOM     16  C   UNL     1       4.467   4.718  18.281  0.00  0.00    +0.000 A 
ATOM     17  H   UNL     1       2.205   6.917  18.873  0.00  0.00    +0.000 HD
ENDBRANCH   6  16
ENDBRANCH   2   6
ENDBRANCH   1   4
BRANCH   1  18
ATOM     18  C   UNL     1       8.143   8.005  18.127  0.00  0.00    +0.000 C 
ATOM     19  O   UNL     1       7.687   8.139  16.996  0.00  0.00    +0.000 OA
ATOM     20  N   UNL     1       8.764   8.980  18.884  0.00  0.00    +0.000 N 
ATOM     21  H   UNL     1       9.297   8.689  19.701  0.00  0.00    +0.000 HD
BRANCH  20  22
ATOM     22  C   UNL     1       8.849  10.290  18.471  0.00  0.00    +0.000 A 
ATOM     23  O   UNL     1       7.914  10.810  17.635  0.00  0.00    +0.000 OA
ATOM     24  N   UNL     1       8.206  12.134  17.362  0.00  0.00    +0.000 NA
ATOM     25  C   UNL     1       9.326  12.412  18.045  0.00  0.00    +0.000 A 
ATOM     26  C   UNL     1       9.767  11.264  18.786  0.00  0.00    +0.000 A 
ATOM     27  C   UNL     1      10.980  11.103  19.621  0.00  0.00    +0.000 C 
BRANCH  25  28
ATOM     28  C   UNL     1       9.999  13.703  17.916  0.00  0.00    +0.000 A 
ATOM     29  C   UNL     1       9.604  14.796  18.698  0.00  0.00    +0.000 A 
ATOM     30  C   UNL     1      10.388  15.949  18.753  0.00  0.00    +0.000 A 
ATOM     31  C   UNL     1      11.548  16.036  17.986  0.00  0.00    +0.000 A 
ATOM     32  C   UNL     1      11.902  14.992  17.134  0.00  0.00    +0.000 A 
ATOM     33  C   UNL     1      11.128  13.829  17.095  0.00  0.00    +0.000 A 
ENDBRANCH  25  28
ENDBRANCH  20  22
ENDBRANCH   1  18
TORSDOF 6
ENDMDL
MODEL 3
REMARK VINA RESULT:      -8.3      6.483      8.707
REMARK  Name = 
REMARK  8 active torsions:
REMARK  status: ('A' for Active; 'I' for Inactive)
REMARK    1  A    between atoms: C_1  and  C_2
REMARK    2  A    between atoms: C_10  and  C_11
REMARK    3  A    between atoms: C_11  and  C_12
REMARK    4  A    between atoms: N_14  and  C_15
REMARK    5  A    between atoms: C_15  and  C_16
REMARK    6  A    between atoms: N_18  and  C_19
REMARK    7  A    between atoms: C_22  and  C_23
REMARK    8  A    between atoms: C_29  and  C_30
REMARK                            x       y       z     vdW  Elec       q    Type
REMARK                         _______ _______ _______ _____ _____    ______ ____
ROOT
ATOM      1  C   UNL     1       1.663   9.005  17.822  0.00  0.00    +0.000 C 
ENDROOT
BRANCH   1   4
ATOM      2  C   UNL     1       3.501   7.385  17.544  0.00  0.00    +0.000 C 
ATOM      3  O   UNL     1       3.744   7.804  16.411  0.00  0.00    +0.000 OA
ATOM      4  N   UNL     1       2.472   7.899  18.297  0.00  0.00    +0.000 N 
ATOM      5  H   UNL     1       2.085   7.295  19.028  0.00  0.00    +0.000 HD
BRANCH   2   6
ATOM      6  C   UNL     1       4.338   6.319  18.231  0.00  0.00    +0.000 C 
BRANCH   6  16
ATOM      7  C   UNL     1       5.229   3.900  16.219  0.00  0.00    +0.000 C 
ATOM      8  C   UNL     1       4.175   3.925  17.267  0.00  0.00    +0.000 A 
ATOM      9  N   UNL     1       3.416   2.812  17.546  0.00  0.00    +0.000 N 
ATOM     10  C   UNL     1       2.546   3.072  18.574  0.00  0.00    +0.000 A 
ATOM     11  C   UNL     1       1.610   2.262  19.216  0.00  0.00    +0.000 A 
ATOM     12  C   UNL     1       0.892   2.867  20.242  0.00  0.00    +0.000 A 
ATOM     13  C   UNL     1       1.140   4.199  20.552  0.00  0.00    +0.000 A 
ATOM     14  N   UNL     1       2.046   5.001  19.944  0.00  0.00    +0.000 NA
ATOM     15  C   UNL     1       2.742   4.398  18.945  0.00  0.00    +0.000 A 
ATOM     16  C   UNL     1       3.769   4.942  18.124  0.00  0.00    +0.000 A 
ATOM     17  H   UNL     1       3.501   1.919  17.080  0.00  0.00    +0.000 HD
ENDBRANCH   6  16
ENDBRANCH   2   6
ENDBRANCH   1   4
BRANCH   1  18
ATOM     18  C   UNL     1       1.323  10.006  18.927  0.00  0.00    +0.000 C 
ATOM     19  O   UNL     1       1.747  11.157  18.887  0.00  0.00    +0.000 OA
ATOM     20  N   UNL     1       0.562   9.445  19.935  0.00  0.00    +0.000 N 
ATOM     21  H   UNL     1       0.470   8.431  19.962  0.00  0.00    +0.000 HD
BRANCH  20  22
ATOM     22  C   UNL     1       0.093  10.180  21.000  0.00  0.00    +0.000 A 
ATOM     23  O   UNL     1       0.560   9.947  22.254  0.00  0.00    +0.000 OA
ATOM     24  N   UNL     1      -0.050  10.803  23.154  0.00  0.00    +0.000 NA
ATOM     25  C   UNL     1      -0.890  11.558  22.430  0.00  0.00    +0.000 A 
ATOM     26  C   UNL     1      -0.819  11.206  21.040  0.00  0.00    +0.000 A 
ATOM     27  C   UNL     1      -1.609  11.735  19.904  0.00  0.00    +0.000 C 
BRANCH  25  28
ATOM     28  C   UNL     1      -1.794  12.517  23.063  0.00  0.00    +0.000 A 
ATOM     29  C   UNL     1      -3.099  12.146  23.411  0.00  0.00    +0.000 A 
ATOM     30  C   UNL     1      -3.878  12.972  24.222  0.00  0.00    +0.000 A 
ATOM     31  C   UNL     1      -3.374  14.198  24.651  0.00  0.00    +0.000 A 
ATOM     32  C   UNL     1      -2.112  14.618  24.235  0.00  0.00    +0.000 A 
ATOM     33  C   UNL     1      -1.324  13.783  23.440  0.00  0.00    +0.000 A 
ENDBRANCH  25  28
ENDBRANCH  20  22
ENDBRANCH   1  18
TORSDOF 6
ENDMDL
MODEL 4
REMARK VINA RESULT:      -8.2      6.028     10.587
REMARK  Name = 
REMARK  8 active torsions:
REMARK  status: ('A' for Active; 'I' for Inactive)
REMARK    1  A    between atoms: C_1  and  C_2
REMARK    2  A    between atoms: C_10  and  C_11
REMARK    3  A    between atoms: C_11  and  C_12
REMARK    4  A    between atoms: N_14  and  C_15
REMARK    5  A    between atoms: C_15  and  C_16
REMARK    6  A    between atoms: N_18  and  C_19
REMARK    7  A    between atoms: C_22  and  C_23
REMARK    8  A    between atoms: C_29  and  C_30
REMARK                            x       y       z     vdW  Elec       q    Type
REMARK                         _______ _______ _______ _____ _____    ______ ____
ROOT
ATOM      1  C   UNL     1       1.840   9.551  18.327  0.00  0.00    +0.000 C 
ENDROOT
BRANCH   1   4
ATOM      2  C   UNL     1       2.292   7.175  18.805  0.00  0.00    +0.000 C 
ATOM      3  O   UNL     1       2.281   7.383  20.019  0.00  0.00    +0.000 OA
ATOM      4  N   UNL     1       2.115   8.193  17.898  0.00  0.00    +0.000 N 
ATOM      5  H   UNL     1       2.496   8.050  16.959  0.00  0.00    +0.000 HD
BRANCH   2   6
ATOM      6  C   UNL     1       2.440   5.788  18.202  0.00  0.00    +0.000 C 
BRANCH   6  16
ATOM      7  C   UNL     1       3.127   2.867  19.503  0.00  0.00    +0.000 C 
ATOM      8  C   UNL     1       4.043   3.915  18.981  0.00  0.00    +0.000 A 
ATOM      9  N   UNL     1       5.406   3.728  18.961  0.00  0.00    +0.000 N 
ATOM     10  C   UNL     1       6.029   4.813  18.399  0.00  0.00    +0.000 A 
ATOM     11  C   UNL     1       7.375   5.071  18.141  0.00  0.00    +0.000 A 
ATOM     12  C   UNL     1       7.650   6.296  17.543  0.00  0.00    +0.000 A 
ATOM     13  C   UNL     1       6.602   7.161  17.251  0.00  0.00    +0.000 A 
ATOM     14  N   UNL     1       5.289   6.927  17.489  0.00  0.00    +0.000 NA
ATOM     15  C   UNL     1       5.034   5.728  18.073  0.00  0.00    +0.000 A 
ATOM     16  C   UNL     1       3.778   5.167  18.438  0.00  0.00    +0.000 A 
ATOM     17  H   UNL     1       5.885   2.900  19.289  0.00  0.00    +0.000 HD
ENDBRANCH   6  16
ENDBRANCH   2   6
ENDBRANCH   1   4
BRANCH   1  18
ATOM     18  C   UNL     1       0.370   9.772  18.686  0.00  0.00    +0.000 C 
ATOM     19  O   UNL     1      -0.017   9.672  19.846  0.00  0.00    +0.000 OA
ATOM     20  N   UNL     1      -0.414  10.031  17.577  0.00  0.00    +0.000 N 
ATOM     21  H   UNL     1      -0.015   9.862  16.655  0.00  0.00    +0.000 HD
BRANCH  20  22
ATOM     22  C   UNL     1      -1.756  10.317  17.674  0.00  0.00    +0.000 A 
ATOM     23  O   UNL     1      -2.681   9.445  17.197  0.00  0.00    +0.000 OA
ATOM     24  N   UNL     1      -3.955   9.943  17.407  0.00  0.00    +0.000 NA
ATOM     25  C   UNL     1      -3.790  11.125  18.019  0.00  0.00    +0.000 A 
ATOM     26  C   UNL     1      -2.397  11.400  18.227  0.00  0.00    +0.000 A 
ATOM     27  C   UNL     1      -1.761  12.606  18.805  0.00  0.00    +0.000 C 
BRANCH  25  28
ATOM     28  C   UNL     1      -4.925  12.000  18.308  0.00  0.00    +0.000 A 
ATOM     29  C   UNL     1      -5.756  12.458  17.277  0.00  0.00    +0.000 A 
ATOM     30  C   UNL     1      -6.965  13.089  17.569  0.00  0.00    +0.000 A 
ATOM     31  C   UNL     1      -7.330  13.312  18.895  0.00  0.00    +0.000 A 
ATOM     32  C   UNL     1      -6.469  12.944  19.927  0.00  0.00    +0.000 A 
ATOM     33  C   UNL     1      -5.266  12.293  19.636  0.00  0.00    +0.000 A 
ENDBRANCH  25  28
ENDBRANCH  20  22
ENDBRANCH   1  18
TORSDOF 6
ENDMDL
MODEL 5
REMARK VINA RESULT:      -8.2      1.637      2.654
REMARK  Name = 
REMARK  8 active torsions:
REMARK  status: ('A' for Active; 'I' for Inactive)
REMARK    1  A    between atoms: C_1  and  C_2
REMARK    2  A    between atoms: C_10  and  C_11
REMARK    3  A    between atoms: C_11  and  C_12
REMARK    4  A    between atoms: N_14  and  C_15
REMARK    5  A    between atoms: C_15  and  C_16
REMARK    6  A    between atoms: N_18  and  C_19
REMARK    7  A    between atoms: C_22  and  C_23
REMARK    8  A    between atoms: C_29  and  C_30
REMARK                            x       y       z     vdW  Elec       q    Type
REMARK                         _______ _______ _______ _____ _____    ______ ____
ROOT
ATOM      1  C   UNL     1       8.049   6.673  18.708  0.00  0.00    +0.000 C 
ENDROOT
BRANCH   1   4
ATOM      2  C   UNL     1       6.921   4.824  17.530  0.00  0.00    +0.000 C 
ATOM      3  O   UNL     1       7.981   4.458  17.020  0.00  0.00    +0.000 OA
ATOM      4  N   UNL     1       6.858   5.926  18.350  0.00  0.00    +0.000 N 
ATOM      5  H   UNL     1       5.951   6.393  18.432  0.00  0.00    +0.000 HD
BRANCH   2   6
ATOM      6  C   UNL     1       5.612   4.071  17.354  0.00  0.00    +0.000 C 
BRANCH   6  16
ATOM      7  C   UNL     1       4.483   2.429  19.946  0.00  0.00    +0.000 C 
ATOM      8  C   UNL     1       4.094   3.765  19.424  0.00  0.00    +0.000 A 
ATOM      9  N   UNL     1       3.149   4.535  20.062  0.00  0.00    +0.000 N 
ATOM     10  C   UNL     1       2.994   5.735  19.415  0.00  0.00    +0.000 A 
ATOM     11  C   UNL     1       2.185   6.835  19.696  0.00  0.00    +0.000 A 
ATOM     12  C   UNL     1       2.292   7.903  18.812  0.00  0.00    +0.000 A 
ATOM     13  C   UNL     1       3.167   7.811  17.736  0.00  0.00    +0.000 A 
ATOM     14  N   UNL     1       3.963   6.754  17.449  0.00  0.00    +0.000 NA
ATOM     15  C   UNL     1       3.850   5.718  18.319  0.00  0.00    +0.000 A 
ATOM     16  C   UNL     1       4.548   4.477  18.319  0.00  0.00    +0.000 A 
ATOM     17  H   UNL     1       2.654   4.270  20.902  0.00  0.00    +0.000 HD
ENDBRANCH   6  16
ENDBRANCH   2   6
ENDBRANCH   1   4
BRANCH   1  18
ATOM     18  C   UNL     1       8.088   8.064  18.073  0.00  0.00    +0.000 C 
ATOM     19  O   UNL     1       7.591   8.266  16.969  0.00  0.00    +0.000 OA
ATOM     20  N   UNL     1       8.765   8.983  18.851  0.00  0.00    +0.000 N 
ATOM     21  H   UNL     1       9.322   8.638  19.630  0.00  0.00    +0.000 HD
BRANCH  20  22
ATOM     22  C   UNL     1       8.872  10.310  18.498  0.00  0.00    +0.000 A 
ATOM     23  O   UNL     1       8.002  10.857  17.612  0.00  0.00    +0.000 OA
ATOM     24  N   UNL     1       8.303  12.194  17.416  0.00  0.00    +0.000 NA
ATOM     25  C   UNL     1       9.363  12.449  18.197  0.00  0.00    +0.000 A 
ATOM     26  C   UNL     1       9.753  11.275  18.923  0.00  0.00    +0.000 A 
ATOM     27  C   UNL     1      10.898  11.086  19.845  0.00  0.00    +0.000 C 
BRANCH  25  28
ATOM     28  C   UNL     1      10.033  13.748  18.174  0.00  0.00    +0.000 A 
ATOM     29  C   UNL     1      10.988  14.043  17.192  0.00  0.00    +0.000 A 
ATOM     30  C   UNL     1      11.450  15.348  17.022  0.00  0.00    +0.000 A 
ATOM     31  C   UNL     1      10.997  16.360  17.865  0.00  0.00    +0.000 A 
ATOM     32  C   UNL     1      10.117  16.062  18.904  0.00  0.00    +0.000 A 
ATOM     33  C   UNL     1       9.638  14.758  19.063  0.00  0.00    +0.000 A 
ENDBRANCH  25  28
ENDBRANCH  20  22
ENDBRANCH   1  18
TORSDOF 6
ENDMDL
MODEL 6
REMARK VINA RESULT:      -8.2      6.301      8.959
REMARK  Name = 
REMARK  8 active torsions:
REMARK  status: ('A' for Active; 'I' for Inactive)
REMARK    1  A    between atoms: C_1  and  C_2
REMARK    2  A    between atoms: C_10  and  C_11
REMARK    3  A    between atoms: C_11  and  C_12
REMARK    4  A    between atoms: N_14  and  C_15
REMARK    5  A    between atoms: C_15  and  C_16
REMARK    6  A    between atoms: N_18  and  C_19
REMARK    7  A    between atoms: C_22  and  C_23
REMARK    8  A    between atoms: C_29  and  C_30
REMARK                            x       y       z     vdW  Elec       q    Type
REMARK                         _______ _______ _______ _____ _____    ______ ____
ROOT
ATOM      1  C   UNL     1       2.055   9.498  17.908  0.00  0.00    +0.000 C 
ENDROOT
BRANCH   1   4
ATOM      2  C   UNL     1       2.287   7.200  18.769  0.00  0.00    +0.000 C 
ATOM      3  O   UNL     1       2.439   7.610  19.920  0.00  0.00    +0.000 OA
ATOM      4  N   UNL     1       2.124   8.063  17.711  0.00  0.00    +0.000 N 
ATOM      5  H   UNL     1       2.376   7.713  16.783  0.00  0.00    +0.000 HD
BRANCH   2   6
ATOM      6  C   UNL     1       2.208   5.723  18.419  0.00  0.00    +0.000 C 
BRANCH   6  16
ATOM      7  C   UNL     1       3.201   3.230  20.287  0.00  0.00    +0.000 C 
ATOM      8  C   UNL     1       3.925   3.962  19.215  0.00  0.00    +0.000 A 
ATOM      9  N   UNL     1       5.201   3.606  18.842  0.00  0.00    +0.000 N 
ATOM     10  C   UNL     1       5.635   4.399  17.811  0.00  0.00    +0.000 A 
ATOM     11  C   UNL     1       6.830   4.402  17.091  0.00  0.00    +0.000 A 
ATOM     12  C   UNL     1       6.928   5.361  16.089  0.00  0.00    +0.000 A 
ATOM     13  C   UNL     1       5.867   6.233  15.876  0.00  0.00    +0.000 A 
ATOM     14  N   UNL     1       4.698   6.244  16.560  0.00  0.00    +0.000 NA
ATOM     15  C   UNL     1       4.614   5.302  17.535  0.00  0.00    +0.000 A 
ATOM     16  C   UNL     1       3.531   5.030  18.418  0.00  0.00    +0.000 A 
ATOM     17  H   UNL     1       5.737   2.852  19.249  0.00  0.00    +0.000 HD
ENDBRANCH   6  16
ENDBRANCH   2   6
ENDBRANCH   1   4
BRANCH   1  18
ATOM     18  C   UNL     1       0.952   9.909  18.884  0.00  0.00    +0.000 C 
ATOM     19  O   UNL     1      -0.232   9.756  18.599  0.00  0.00    +0.000 OA
ATOM     20  N   UNL     1       1.452  10.488  20.036  0.00  0.00    +0.000 N 
ATOM     21  H   UNL     1       2.432  10.763  20.050  0.00  0.00    +0.000 HD
BRANCH  20  22
ATOM     22  C   UNL     1       0.639  10.880  21.075  0.00  0.00    +0.000 A 
ATOM     23  O   UNL     1       0.520  10.105  22.184  0.00  0.00    +0.000 OA
ATOM     24  N   UNL     1      -0.342  10.700  23.088  0.00  0.00    +0.000 NA
ATOM     25  C   UNL     1      -0.741  11.845  22.515  0.00  0.00    +0.000 A 
ATOM     26  C   UNL     1      -0.124  12.012  21.230  0.00  0.00    +0.000 A 
ATOM     27  C   UNL     1      -0.323  13.090  20.234  0.00  0.00    +0.000 C 
BRANCH  25  28
ATOM     28  C   UNL     1      -1.750  12.700  23.138  0.00  0.00    +0.000 A 
ATOM     29  C   UNL     1      -3.046  12.224  23.370  0.00  0.00    +0.000 A 
ATOM     30  C   UNL     1      -3.933  12.943  24.172  0.00  0.00    +0.000 A 
ATOM     31  C   UNL     1      -3.546  14.170  24.707  0.00  0.00    +0.000 A 
ATOM     32  C   UNL     1      -2.291  14.697  24.408  0.00  0.00    +0.000 A 
ATOM     33  C   UNL     1      -1.395  13.968  23.622  0.00  0.00    +0.000 A 
ENDBRANCH  25  28
ENDBRANCH  20  22
ENDBRANCH   1  18
TORSDOF 6
ENDMDL
MODEL 7
REMARK VINA RESULT:      -8.2      5.326      7.852
REMARK  Name = 
REMARK  8 active torsions:
REMARK  status: ('A' for Active; 'I' for Inactive)
REMARK    1  A    between atoms: C_1  and  C_2
REMARK    2  A    between atoms: C_10  and  C_11
REMARK    3  A    between atoms: C_11  and  C_12
REMARK    4  A    between atoms: N_14  and  C_15
REMARK    5  A    between atoms: C_15  and  C_16
REMARK    6  A    between atoms: N_18  and  C_19
REMARK    7  A    between atoms: C_22  and  C_23
REMARK    8  A    between atoms: C_29  and  C_30
REMARK                            x       y       z     vdW  Elec       q    Type
REMARK                         _______ _______ _______ _____ _____    ______ ____
ROOT
ATOM      1  C   UNL     1       2.762   4.094  20.255  0.00  0.00    +0.000 C 
ENDROOT
BRANCH   1   4
ATOM      2  C   UNL     1       4.369   3.093  18.676  0.00  0.00    +0.000 C 
ATOM      3  O   UNL     1       4.828   2.362  19.554  0.00  0.00    +0.000 OA
ATOM      4  N   UNL     1       3.370   4.000  18.942  0.00  0.00    +0.000 N 
ATOM      5  H   UNL     1       3.295   4.806  18.315  0.00  0.00    +0.000 HD
BRANCH   2   6
ATOM      6  C   UNL     1       4.812   3.024  17.223  0.00  0.00    +0.000 C 
BRANCH   6  16
ATOM      7  C   UNL     1       5.032   4.347  14.241  0.00  0.00    +0.000 C 
ATOM      8  C   UNL     1       5.693   4.748  15.510  0.00  0.00    +0.000 A 
ATOM      9  N   UNL     1       6.520   5.846  15.570  0.00  0.00    +0.000 N 
ATOM     10  C   UNL     1       6.973   6.034  16.851  0.00  0.00    +0.000 A 
ATOM     11  C   UNL     1       7.801   7.013  17.402  0.00  0.00    +0.000 A 
ATOM     12  C   UNL     1       8.050   6.894  18.764  0.00  0.00    +0.000 A 
ATOM     13  C   UNL     1       7.482   5.841  19.471  0.00  0.00    +0.000 A 
ATOM     14  N   UNL     1       6.673   4.884  18.956  0.00  0.00    +0.000 NA
ATOM     15  C   UNL     1       6.437   5.011  17.625  0.00  0.00    +0.000 A 
ATOM     16  C   UNL     1       5.627   4.196  16.784  0.00  0.00    +0.000 A 
ATOM     17  H   UNL     1       6.745   6.448  14.790  0.00  0.00    +0.000 HD
ENDBRANCH   6  16
ENDBRANCH   2   6
ENDBRANCH   1   4
BRANCH   1  18
ATOM     18  C   UNL     1       1.829   5.298  20.390  0.00  0.00    +0.000 C 
ATOM     19  O   UNL     1       0.639   5.147  20.646  0.00  0.00    +0.000 OA
ATOM     20  N   UNL     1       2.472   6.497  20.145  0.00  0.00    +0.000 N 
ATOM     21  H   UNL     1       3.398   6.469  19.722  0.00  0.00    +0.000 HD
BRANCH  20  22
ATOM     22  C   UNL     1       1.837   7.712  20.267  0.00  0.00    +0.000 A 
ATOM     23  O   UNL     1       1.322   8.101  21.462  0.00  0.00    +0.000 OA
ATOM     24  N   UNL     1       0.738   9.349  21.342  0.00  0.00    +0.000 NA
ATOM     25  C   UNL     1       0.908   9.712  20.062  0.00  0.00    +0.000 A 
ATOM     26  C   UNL     1       1.623   8.701  19.338  0.00  0.00    +0.000 A 
ATOM     27  C   UNL     1       1.974   8.657  17.899  0.00  0.00    +0.000 C 
BRANCH  25  28
ATOM     28  C   UNL     1       0.322  10.944  19.534  0.00  0.00    +0.000 A 
ATOM     29  C   UNL     1       1.118  12.075  19.312  0.00  0.00    +0.000 A 
ATOM     30  C   UNL     1       0.620  13.161  18.592  0.00  0.00    +0.000 A 
ATOM     31  C   UNL     1      -0.695  13.145  18.132  0.00  0.00    +0.000 A 
ATOM     32  C   UNL     1      -1.524  12.065  18.427  0.00  0.00    +0.000 A 
ATOM     33  C   UNL     1      -1.020  10.967  19.130  0.00  0.00    +0.000 A 
ENDBRANCH  25  28
ENDBRANCH  20  22
ENDBRANCH   1  18
TORSDOF 6
ENDMDL
MODEL 8
REMARK VINA RESULT:      -8.1      1.167      1.361
REMARK  Name = 
REMARK  8 active torsions:
REMARK  status: ('A' for Active; 'I' for Inactive)
REMARK    1  A    between atoms: C_1  and  C_2
REMARK    2  A    between atoms: C_10  and  C_11
REMARK    3  A    between atoms: C_11  and  C_12
REMARK    4  A    between atoms: N_14  and  C_15
REMARK    5  A    between atoms: C_15  and  C_16
REMARK    6  A    between atoms: N_18  and  C_19
REMARK    7  A    between atoms: C_22  and  C_23
REMARK    8  A    between atoms: C_29  and  C_30
REMARK                            x       y       z     vdW  Elec       q    Type
REMARK                         _______ _______ _______ _____ _____    ______ ____
ROOT
ATOM      1  C   UNL     1       7.882   6.718  18.598  0.00  0.00    +0.000 C 
ENDROOT
BRANCH   1   4
ATOM      2  C   UNL     1       6.331   5.549  17.080  0.00  0.00    +0.000 C 
ATOM      3  O   UNL     1       7.241   5.299  16.288  0.00  0.00    +0.000 OA
ATOM      4  N   UNL     1       6.553   6.271  18.228  0.00  0.00    +0.000 N 
ATOM      5  H   UNL     1       5.748   6.759  18.633  0.00  0.00    +0.000 HD
BRANCH   2   6
ATOM      6  C   UNL     1       4.910   5.041  16.897  0.00  0.00    +0.000 C 
BRANCH   6  16
ATOM      7  C   UNL     1       3.235   7.767  17.570  0.00  0.00    +0.000 C 
ATOM      8  C   UNL     1       3.302   6.484  18.317  0.00  0.00    +0.000 A 
ATOM      9  N   UNL     1       2.567   6.284  19.462  0.00  0.00    +0.000 N 
ATOM     10  C   UNL     1       2.766   5.014  19.942  0.00  0.00    +0.000 A 
ATOM     11  C   UNL     1       2.226   4.351  21.044  0.00  0.00    +0.000 A 
ATOM     12  C   UNL     1       2.657   3.041  21.228  0.00  0.00    +0.000 A 
ATOM     13  C   UNL     1       3.570   2.493  20.335  0.00  0.00    +0.000 A 
ATOM     14  N   UNL     1       4.101   3.119  19.258  0.00  0.00    +0.000 NA
ATOM     15  C   UNL     1       3.673   4.396  19.088  0.00  0.00    +0.000 A 
ATOM     16  C   UNL     1       4.015   5.319  18.060  0.00  0.00    +0.000 A 
ATOM     17  H   UNL     1       1.947   6.963  19.882  0.00  0.00    +0.000 HD
ENDBRANCH   6  16
ENDBRANCH   2   6
ENDBRANCH   1   4
BRANCH   1  18
ATOM     18  C   UNL     1       8.146   8.174  18.211  0.00  0.00    +0.000 C 
ATOM     19  O   UNL     1       7.686   8.643  17.174  0.00  0.00    +0.000 OA
ATOM     20  N   UNL     1       8.967   8.823  19.113  0.00  0.00    +0.000 N 
ATOM     21  H   UNL     1       9.462   8.261  19.803  0.00  0.00    +0.000 HD
BRANCH  20  22
ATOM     22  C   UNL     1       9.289  10.155  18.991  0.00  0.00    +0.000 A 
ATOM     23  O   UNL     1       9.628  10.672  17.782  0.00  0.00    +0.000 OA
ATOM     24  N   UNL     1       9.905  12.022  17.905  0.00  0.00    +0.000 NA
ATOM     25  C   UNL     1       9.727  12.317  19.201  0.00  0.00    +0.000 A 
ATOM     26  C   UNL     1       9.314  11.154  19.934  0.00  0.00    +0.000 A 
ATOM     27  C   UNL     1       9.067  11.008  21.388  0.00  0.00    +0.000 C 
BRANCH  25  28
ATOM     28  C   UNL     1      10.033  13.644  19.732  0.00  0.00    +0.000 A 
ATOM     29  C   UNL     1      11.360  14.081  19.844  0.00  0.00    +0.000 A 
ATOM     30  C   UNL     1      11.645  15.418  20.120  0.00  0.00    +0.000 A 
ATOM     31  C   UNL     1      10.604  16.319  20.337  0.00  0.00    +0.000 A 
ATOM     32  C   UNL     1       9.283  15.877  20.319  0.00  0.00    +0.000 A 
ATOM     33  C   UNL     1       8.996  14.542  20.022  0.00  0.00    +0.000 A 
ENDBRANCH  25  28
ENDBRANCH  20  22
ENDBRANCH   1  18
TORSDOF 6
ENDMDL
MODEL 9
REMARK VINA RESULT:      -8.1      5.208      7.798
REMARK  Name = 
REMARK  8 active torsions:
REMARK  status: ('A' for Active; 'I' for Inactive)
REMARK    1  A    between atoms: C_1  and  C_2
REMARK    2  A    between atoms: C_10  and  C_11
REMARK    3  A    between atoms: C_11  and  C_12
REMARK    4  A    between atoms: N_14  and  C_15
REMARK    5  A    between atoms: C_15  and  C_16
REMARK    6  A    between atoms: N_18  and  C_19
REMARK    7  A    between atoms: C_22  and  C_23
REMARK    8  A    between atoms: C_29  and  C_30
REMARK                            x       y       z     vdW  Elec       q    Type
REMARK                         _______ _______ _______ _____ _____    ______ ____
ROOT
ATOM      1  C   UNL     1       3.128   3.873  20.033  0.00  0.00    +0.000 C 
ENDROOT
BRANCH   1   4
ATOM      2  C   UNL     1       3.931   3.051  17.852  0.00  0.00    +0.000 C 
ATOM      3  O   UNL     1       2.778   2.863  17.461  0.00  0.00    +0.000 OA
ATOM      4  N   UNL     1       4.195   3.517  19.118  0.00  0.00    +0.000 N 
ATOM      5  H   UNL     1       5.117   3.301  19.509  0.00  0.00    +0.000 HD
BRANCH   2   6
ATOM      6  C   UNL     1       5.150   2.847  16.968  0.00  0.00    +0.000 C 
BRANCH   6  16
ATOM      7  C   UNL     1       5.199   4.350  14.064  0.00  0.00    +0.000 C 
ATOM      8  C   UNL     1       5.835   4.742  15.348  0.00  0.00    +0.000 A 
ATOM      9  N   UNL     1       6.553   5.911  15.464  0.00  0.00    +0.000 N 
ATOM     10  C   UNL     1       7.003   6.070  16.750  0.00  0.00    +0.000 A 
ATOM     11  C   UNL     1       7.739   7.092  17.348  0.00  0.00    +0.000 A 
ATOM     12  C   UNL     1       8.018   6.922  18.700  0.00  0.00    +0.000 A 
ATOM     13  C   UNL     1       7.564   5.781  19.350  0.00  0.00    +0.000 A 
ATOM     14  N   UNL     1       6.846   4.780  18.788  0.00  0.00    +0.000 NA
ATOM     15  C   UNL     1       6.579   4.957  17.468  0.00  0.00    +0.000 A 
ATOM     16  C   UNL     1       5.841   4.116  16.589  0.00  0.00    +0.000 A 
ATOM     17  H   UNL     1       6.707   6.574  14.717  0.00  0.00    +0.000 HD
ENDBRANCH   6  16
ENDBRANCH   2   6
ENDBRANCH   1   4
BRANCH   1  18
ATOM     18  C   UNL     1       2.292   5.053  19.536  0.00  0.00    +0.000 C 
ATOM     19  O   UNL     1       1.086   4.932  19.340  0.00  0.00    +0.000 OA
ATOM     20  N   UNL     1       3.053   6.183  19.305  0.00  0.00    +0.000 N 
ATOM     21  H   UNL     1       4.066   6.086  19.288  0.00  0.00    +0.000 HD
BRANCH  20  22
ATOM     22  C   UNL     1       2.496   7.378  18.908  0.00  0.00    +0.000 A 
ATOM     23  O   UNL     1       2.704   7.850  17.652  0.00  0.00    +0.000 OA
ATOM     24  N   UNL     1       2.049   9.056  17.485  0.00  0.00    +0.000 NA
ATOM     25  C   UNL     1       1.439   9.308  18.653  0.00  0.00    +0.000 A 
ATOM     26  C   UNL     1       1.683   8.250  19.591  0.00  0.00    +0.000 A 
ATOM     27  C   UNL     1       1.259   8.144  21.007  0.00  0.00    +0.000 C 
BRANCH  25  28
ATOM     28  C   UNL     1       0.727  10.563  18.888  0.00  0.00    +0.000 A 
ATOM     29  C   UNL     1       1.422  11.777  18.958  0.00  0.00    +0.000 A 
ATOM     30  C   UNL     1       0.733  12.990  18.942  0.00  0.00    +0.000 A 
ATOM     31  C   UNL     1      -0.660  12.997  18.907  0.00  0.00    +0.000 A 
ATOM     32  C   UNL     1      -1.364  11.795  18.930  0.00  0.00    +0.000 A 
ATOM     33  C   UNL     1      -0.675  10.579  18.925  0.00  0.00    +0.000 A 
ENDBRANCH  25  28
ENDBRANCH  20  22
ENDBRANCH   1  18
TORSDOF 6
ENDMDL
