MODEL 1
REMARK VINA RESULT:      -8.0      0.000      0.000
REMARK  Name = 
REMARK  5 active torsions:
REMARK  status: ('A' for Active; 'I' for Inactive)
REMARK    1  A    between atoms: C_1  and  C_2
REMARK    2  A    between atoms: C_2  and  C_3
REMARK    3  A    between atoms: C_2  and  C_21
REMARK    4  A    between atoms: C_3  and  C_4
REMARK    5  A    between atoms: C_7  and  C_8
REMARK                            x       y       z     vdW  Elec       q    Type
REMARK                         _______ _______ _______ _____ _____    ______ ____
ROOT
ATOM      1  C   UNL     1       5.416   4.918  19.336  0.00  0.00    +0.000 A 
ATOM      2  N   UNL     1       4.397   5.664  19.616  0.00  0.00    +0.000 NA
ATOM      3  N   UNL     1       3.254   4.980  19.924  0.00  0.00    +0.000 N 
ATOM      4  C   UNL     1       1.995   5.500  20.210  0.00  0.00    +0.000 A 
ATOM      5  N   UNL     1       1.147   4.501  20.430  0.00  0.00    +0.000 NA
ATOM      6  C   UNL     1       1.861   3.340  20.292  0.00  0.00    +0.000 A 
ATOM      7  C   UNL     1       3.160   3.621  19.966  0.00  0.00    +0.000 A 
ATOM      8  C   UNL     1       4.293   2.810  19.690  0.00  0.00    +0.000 A 
ATOM      9  O   UNL     1       4.315   1.587  19.711  0.00  0.00    +0.000 OA
ATOM     10  N   UNL     1       5.407   3.548  19.370  0.00  0.00    +0.000 N 
ATOM     11  H   UNL     1       6.244   3.006  19.196  0.00  0.00    +0.000 HD
ENDROOT
BRANCH   4  12
ATOM     12  C   UNL     1       1.663   6.937  20.236  0.00  0.00    +0.000 A 
ATOM     13  C   UNL     1       1.130   7.511  21.409  0.00  0.00    +0.000 A 
ATOM     14  C   UNL     1       0.795   8.865  21.479  0.00  0.00    +0.000 A 
ATOM     15  C   UNL     1       1.012   9.689  20.384  0.00  0.00    +0.000 A 
ATOM     16  C   UNL     1       1.555   9.154  19.217  0.00  0.00    +0.000 A 
ATOM     17  C   UNL     1       1.874   7.790  19.136  0.00  0.00    +0.000 A 
ATOM     18 CL   UNL     1       2.484   7.241  17.611  0.00  0.00    +0.000 Cl
ENDBRANCH   4  12
BRANCH   1  19
ATOM     19  C   UNL     1       6.714   5.574  18.899  0.00  0.00    +0.000 C 
BRANCH  19  21
ATOM     20  C   UNL     1       7.651   7.370  17.343  0.00  0.00    +0.000 C 
ATOM     21  C   UNL     1       6.717   6.167  17.483  0.00  0.00    +0.000 C 
BRANCH  21  22
ATOM     22  C   UNL     1       6.944   5.127  16.389  0.00  0.00    +0.000 C 
ATOM     23  F   UNL     1       7.421   5.665  15.249  0.00  0.00    +0.000 F 
ATOM     24  F   UNL     1       7.805   4.159  16.777  0.00  0.00    +0.000 F 
ATOM     25  F   UNL     1       5.778   4.508  16.089  0.00  0.00    +0.000 F 
ENDBRANCH  21  22
ENDBRANCH  19  21
ENDBRANCH   1  19
TORSDOF 4
ENDMDL
MODEL 2
REMARK VINA RESULT:      -7.9      1.675      2.215
REMARK  Name = 
REMARK  5 active torsions:
REMARK  status: ('A' for Active; 'I' for Inactive)
REMARK    1  A    between atoms: C_1  and  C_2
REMARK    2  A    between atoms: C_2  and  C_3
REMARK    3  A    between atoms: C_2  and  C_21
REMARK    4  A    between atoms: C_3  and  C_4
REMARK    5  A    between atoms: C_7  and  C_8
REMARK                            x       y       z     vdW  Elec       q    Type
REMARK                         _______ _______ _______ _____ _____    ______ ____
ROOT
ATOM      1  C   UNL     1       5.060   4.656  18.155  0.00  0.00    +0.000 A 
ATOM      2  N   UNL     1       4.242   5.617  18.442  0.00  0.00    +0.000 NA
ATOM      3  N   UNL     1       3.368   5.342  19.456  0.00  0.00    +0.000 N 
ATOM      4  C   UNL     1       2.345   6.148  19.947  0.00  0.00    +0.000 A 
ATOM      5  N   UNL     1       1.707   5.504  20.919  0.00  0.00    +0.000 NA
ATOM      6  C   UNL     1       2.323   4.288  21.058  0.00  0.00    +0.000 A 
ATOM      7  C   UNL     1       3.342   4.170  20.151  0.00  0.00    +0.000 A 
ATOM      8  C   UNL     1       4.265   3.133  19.852  0.00  0.00    +0.000 A 
ATOM      9  O   UNL     1       4.329   2.051  20.422  0.00  0.00    +0.000 OA
ATOM     10  N   UNL     1       5.106   3.455  18.815  0.00  0.00    +0.000 N 
ATOM     11  H   UNL     1       5.800   2.752  18.591  0.00  0.00    +0.000 HD
ENDROOT
BRANCH   4  12
ATOM     12  C   UNL     1       2.016   7.494  19.441  0.00  0.00    +0.000 A 
ATOM     13  C   UNL     1       2.280   7.819  18.094  0.00  0.00    +0.000 A 
ATOM     14  C   UNL     1       1.990   9.082  17.572  0.00  0.00    +0.000 A 
ATOM     15  C   UNL     1       1.402  10.046  18.378  0.00  0.00    +0.000 A 
ATOM     16  C   UNL     1       1.111   9.747  19.708  0.00  0.00    +0.000 A 
ATOM     17  C   UNL     1       1.419   8.486  20.242  0.00  0.00    +0.000 A 
ATOM     18 CL   UNL     1       1.064   8.265  21.922  0.00  0.00    +0.000 Cl
ENDBRANCH   4  12
BRANCH   1  19
ATOM     19  C   UNL     1       6.017   4.823  16.989  0.00  0.00    +0.000 C 
BRANCH  19  21
ATOM     20  C   UNL     1       5.295   6.666  15.374  0.00  0.00    +0.000 C 
ATOM     21  C   UNL     1       5.370   5.162  15.638  0.00  0.00    +0.000 C 
BRANCH  21  22
ATOM     22  C   UNL     1       5.978   4.397  14.465  0.00  0.00    +0.000 C 
ATOM     23  F   UNL     1       5.088   4.161  13.481  0.00  0.00    +0.000 F 
ATOM     24  F   UNL     1       7.028   5.053  13.920  0.00  0.00    +0.000 F 
ATOM     25  F   UNL     1       6.448   3.200  14.885  0.00  0.00    +0.000 F 
ENDBRANCH  21  22
ENDBRANCH  19  21
ENDBRANCH   1  19
TORSDOF 4
ENDMDL
MODEL 3
REMARK VINA RESULT:      -7.8      1.328      1.763
REMARK  Name = 
REMARK  5 active torsions:
REMARK  status: ('A' for Active; 'I' for Inactive)
REMARK    1  A    between atoms: C_1  and  C_2
REMARK    2  A    between atoms: C_2  and  C_3
REMARK    3  A    between atoms: C_2  and  C_21
REMARK    4  A    between atoms: C_3  and  C_4
REMARK    5  A    between atoms: C_7  and  C_8
REMARK                            x       y       z     vdW  Elec       q    Type
REMARK                         _______ _______ _______ _____ _____    ______ ____
ROOT
ATOM      1  C   UNL     1       5.356   4.495  18.865  0.00  0.00    +0.000 A 
ATOM      2  N   UNL     1       4.479   5.443  18.959  0.00  0.00    +0.000 NA
ATOM      3  N   UNL     1       3.376   5.131  19.703  0.00  0.00    +0.000 N 
ATOM      4  C   UNL     1       2.250   5.915  19.936  0.00  0.00    +0.000 A 
ATOM      5  N   UNL     1       1.390   5.237  20.688  0.00  0.00    +0.000 NA
ATOM      6  C   UNL     1       1.965   4.020  20.945  0.00  0.00    +0.000 A 
ATOM      7  C   UNL     1       3.186   3.936  20.331  0.00  0.00    +0.000 A 
ATOM      8  C   UNL     1       4.168   2.914  20.251  0.00  0.00    +0.000 A 
ATOM      9  O   UNL     1       4.097   1.815  20.785  0.00  0.00    +0.000 OA
ATOM     10  N   UNL     1       5.245   3.274  19.478  0.00  0.00    +0.000 N 
ATOM     11  H   UNL     1       5.982   2.582  19.421  0.00  0.00    +0.000 HD
ENDROOT
BRANCH   4  12
ATOM     12  C   UNL     1       2.046   7.276  19.402  0.00  0.00    +0.000 A 
ATOM     13  C   UNL     1       2.368   7.556  18.059  0.00  0.00    +0.000 A 
ATOM     14  C   UNL     1       2.197   8.830  17.511  0.00  0.00    +0.000 A 
ATOM     15  C   UNL     1       1.671   9.852  18.288  0.00  0.00    +0.000 A 
ATOM     16  C   UNL     1       1.325   9.599  19.615  0.00  0.00    +0.000 A 
ATOM     17  C   UNL     1       1.514   8.326  20.174  0.00  0.00    +0.000 A 
ATOM     18 CL   UNL     1       1.102   8.162  21.848  0.00  0.00    +0.000 Cl
ENDBRANCH   4  12
BRANCH   1  19
ATOM     19  C   UNL     1       6.581   4.705  17.994  0.00  0.00    +0.000 C 
BRANCH  19  21
ATOM     20  C   UNL     1       7.415   6.883  16.950  0.00  0.00    +0.000 C 
ATOM     21  C   UNL     1       6.422   5.723  16.855  0.00  0.00    +0.000 C 
BRANCH  21  22
ATOM     22  C   UNL     1       6.407   5.086  15.468  0.00  0.00    +0.000 C 
ATOM     23  F   UNL     1       7.487   5.415  14.732  0.00  0.00    +0.000 F 
ATOM     24  F   UNL     1       6.349   3.737  15.529  0.00  0.00    +0.000 F 
ATOM     25  F   UNL     1       5.310   5.489  14.785  0.00  0.00    +0.000 F 
ENDBRANCH  21  22
ENDBRANCH  19  21
ENDBRANCH   1  19
TORSDOF 4
ENDMDL
MODEL 4
REMARK VINA RESULT:      -7.8      3.911      5.383
REMARK  Name = 
REMARK  5 active torsions:
REMARK  status: ('A' for Active; 'I' for Inactive)
REMARK    1  A    between atoms: C_1  and  C_2
REMARK    2  A    between atoms: C_2  and  C_3
REMARK    3  A    between atoms: C_2  and  C_21
REMARK    4  A    between atoms: C_3  and  C_4
REMARK    5  A    between atoms: C_7  and  C_8
REMARK                            x       y       z     vdW  Elec       q    Type
REMARK                         _______ _______ _______ _____ _____    ______ ____
ROOT
ATOM      1  C   UNL     1       5.860   4.169  15.170  0.00  0.00    +0.000 A 
ATOM      2  N   UNL     1       4.932   3.999  16.055  0.00  0.00    +0.000 NA
ATOM      3  N   UNL     1       5.023   4.818  17.145  0.00  0.00    +0.000 N 
ATOM      4  C   UNL     1       4.213   4.832  18.277  0.00  0.00    +0.000 A 
ATOM      5  N   UNL     1       4.651   5.762  19.119  0.00  0.00    +0.000 NA
ATOM      6  C   UNL     1       5.737   6.351  18.527  0.00  0.00    +0.000 A 
ATOM      7  C   UNL     1       5.986   5.768  17.314  0.00  0.00    +0.000 A 
ATOM      8  C   UNL     1       6.981   5.971  16.322  0.00  0.00    +0.000 A 
ATOM      9  O   UNL     1       7.880   6.801  16.373  0.00  0.00    +0.000 OA
ATOM     10  N   UNL     1       6.852   5.110  15.259  0.00  0.00    +0.000 N 
ATOM     11  H   UNL     1       7.526   5.244  14.515  0.00  0.00    +0.000 HD
ENDROOT
BRANCH   4  12
ATOM     12  C   UNL     1       3.066   3.932  18.503  0.00  0.00    +0.000 A 
ATOM     13  C   UNL     1       1.808   4.248  17.950  0.00  0.00    +0.000 A 
ATOM     14  C   UNL     1       0.693   3.428  18.142  0.00  0.00    +0.000 A 
ATOM     15  C   UNL     1       0.814   2.255  18.872  0.00  0.00    +0.000 A 
ATOM     16  C   UNL     1       2.050   1.907  19.415  0.00  0.00    +0.000 A 
ATOM     17  C   UNL     1       3.168   2.737  19.241  0.00  0.00    +0.000 A 
ATOM     18 CL   UNL     1       4.627   2.221  20.019  0.00  0.00    +0.000 Cl
ENDBRANCH   4  12
BRANCH   1  19
ATOM     19  C   UNL     1       5.903   3.255  13.959  0.00  0.00    +0.000 C 
BRANCH  19  21
ATOM     20  C   UNL     1       7.083   4.138  11.873  0.00  0.00    +0.000 C 
ATOM     21  C   UNL     1       5.749   3.945  12.596  0.00  0.00    +0.000 C 
BRANCH  21  22
ATOM     22  C   UNL     1       4.694   3.299  11.702  0.00  0.00    +0.000 C 
ATOM     23  F   UNL     1       4.347   4.078  10.659  0.00  0.00    +0.000 F 
ATOM     24  F   UNL     1       5.105   2.110  11.208  0.00  0.00    +0.000 F 
ATOM     25  F   UNL     1       3.571   3.052  12.416  0.00  0.00    +0.000 F 
ENDBRANCH  21  22
ENDBRANCH  19  21
ENDBRANCH   1  19
TORSDOF 4
ENDMDL
MODEL 5
REMARK VINA RESULT:      -7.7      3.705      5.985
REMARK  Name = 
REMARK  5 active torsions:
REMARK  status: ('A' for Active; 'I' for Inactive)
REMARK    1  A    between atoms: C_1  and  C_2
REMARK    2  A    between atoms: C_2  and  C_3
REMARK    3  A    between atoms: C_2  and  C_21
REMARK    4  A    between atoms: C_3  and  C_4
REMARK    5  A    between atoms: C_7  and  C_8
REMARK                            x       y       z     vdW  Elec       q    Type
REMARK                         _______ _______ _______ _____ _____    ______ ____
ROOT
ATOM      1  C   UNL     1       1.955   5.501  20.113  0.00  0.00    +0.000 A 
ATOM      2  N   UNL     1       3.121   5.630  19.568  0.00  0.00    +0.000 NA
ATOM      3  N   UNL     1       3.476   4.615  18.725  0.00  0.00    +0.000 N 
ATOM      4  C   UNL     1       4.678   4.447  18.044  0.00  0.00    +0.000 A 
ATOM      5  N   UNL     1       4.634   3.315  17.348  0.00  0.00    +0.000 NA
ATOM      6  C   UNL     1       3.403   2.759  17.576  0.00  0.00    +0.000 A 
ATOM      7  C   UNL     1       2.683   3.544  18.436  0.00  0.00    +0.000 A 
ATOM      8  C   UNL     1       1.391   3.427  19.012  0.00  0.00    +0.000 A 
ATOM      9  O   UNL     1       0.601   2.513  18.809  0.00  0.00    +0.000 OA
ATOM     10  N   UNL     1       1.094   4.464  19.863  0.00  0.00    +0.000 N 
ATOM     11  H   UNL     1       0.168   4.432  20.271  0.00  0.00    +0.000 HD
ENDROOT
BRANCH   4  12
ATOM     12  C   UNL     1       5.822   5.376  18.112  0.00  0.00    +0.000 A 
ATOM     13  C   UNL     1       6.783   5.228  19.133  0.00  0.00    +0.000 A 
ATOM     14  C   UNL     1       7.880   6.086  19.242  0.00  0.00    +0.000 A 
ATOM     15  C   UNL     1       8.059   7.101  18.313  0.00  0.00    +0.000 A 
ATOM     16  C   UNL     1       7.135   7.260  17.281  0.00  0.00    +0.000 A 
ATOM     17  C   UNL     1       6.021   6.412  17.181  0.00  0.00    +0.000 A 
ATOM     18 CL   UNL     1       4.918   6.756  15.890  0.00  0.00    +0.000 Cl
ENDBRANCH   4  12
BRANCH   1  19
ATOM     19  C   UNL     1       1.496   6.529  21.131  0.00  0.00    +0.000 C 
BRANCH  19  21
ATOM     20  C   UNL     1       1.765   8.135  19.162  0.00  0.00    +0.000 C 
ATOM     21  C   UNL     1       1.546   7.993  20.669  0.00  0.00    +0.000 C 
BRANCH  21  22
ATOM     22  C   UNL     1       0.369   8.827  21.166  0.00  0.00    +0.000 C 
ATOM     23  F   UNL     1      -0.654   8.071  21.611  0.00  0.00    +0.000 F 
ATOM     24  F   UNL     1       0.725   9.665  22.165  0.00  0.00    +0.000 F 
ATOM     25  F   UNL     1      -0.105   9.603  20.163  0.00  0.00    +0.000 F 
ENDBRANCH  21  22
ENDBRANCH  19  21
ENDBRANCH   1  19
TORSDOF 4
ENDMDL
MODEL 6
REMARK VINA RESULT:      -7.6      3.053      5.857
REMARK  Name = 
REMARK  5 active torsions:
REMARK  status: ('A' for Active; 'I' for Inactive)
REMARK    1  A    between atoms: C_1  and  C_2
REMARK    2  A    between atoms: C_2  and  C_3
REMARK    3  A    between atoms: C_2  and  C_21
REMARK    4  A    between atoms: C_3  and  C_4
REMARK    5  A    between atoms: C_7  and  C_8
REMARK                            x       y       z     vdW  Elec       q    Type
REMARK                         _______ _______ _______ _____ _____    ______ ____
ROOT
ATOM      1  C   UNL     1       2.478   6.145  19.617  0.00  0.00    +0.000 A 
ATOM      2  N   UNL     1       3.288   5.685  18.720  0.00  0.00    +0.000 NA
ATOM      3  N   UNL     1       3.282   4.325  18.584  0.00  0.00    +0.000 N 
ATOM      4  C   UNL     1       4.076   3.543  17.751  0.00  0.00    +0.000 A 
ATOM      5  N   UNL     1       3.780   2.261  17.937  0.00  0.00    +0.000 NA
ATOM      6  C   UNL     1       2.791   2.219  18.884  0.00  0.00    +0.000 A 
ATOM      7  C   UNL     1       2.484   3.486  19.303  0.00  0.00    +0.000 A 
ATOM      8  C   UNL     1       1.574   4.001  20.263  0.00  0.00    +0.000 A 
ATOM      9  O   UNL     1       0.810   3.334  20.950  0.00  0.00    +0.000 OA
ATOM     10  N   UNL     1       1.635   5.369  20.370  0.00  0.00    +0.000 N 
ATOM     11  H   UNL     1       0.978   5.778  21.024  0.00  0.00    +0.000 HD
ENDROOT
BRANCH   4  12
ATOM     12  C   UNL     1       5.101   4.068  16.828  0.00  0.00    +0.000 A 
ATOM     13  C   UNL     1       4.939   3.905  15.437  0.00  0.00    +0.000 A 
ATOM     14  C   UNL     1       5.885   4.380  14.525  0.00  0.00    +0.000 A 
ATOM     15  C   UNL     1       7.007   5.056  14.981  0.00  0.00    +0.000 A 
ATOM     16  C   UNL     1       7.184   5.249  16.351  0.00  0.00    +0.000 A 
ATOM     17  C   UNL     1       6.246   4.756  17.270  0.00  0.00    +0.000 A 
ATOM     18 CL   UNL     1       6.617   5.009  18.943  0.00  0.00    +0.000 Cl
ENDBRANCH   4  12
BRANCH   1  19
ATOM     19  C   UNL     1       2.466   7.634  19.909  0.00  0.00    +0.000 C 
BRANCH  19  21
ATOM     20  C   UNL     1       0.595   9.273  20.492  0.00  0.00    +0.000 C 
ATOM     21  C   UNL     1       1.232   8.401  19.410  0.00  0.00    +0.000 C 
BRANCH  21  22
ATOM     22  C   UNL     1       1.479   9.172  18.115  0.00  0.00    +0.000 C 
ATOM     23  F   UNL     1       2.047  10.376  18.326  0.00  0.00    +0.000 F 
ATOM     24  F   UNL     1       2.272   8.488  17.260  0.00  0.00    +0.000 F 
ATOM     25  F   UNL     1       0.307   9.381  17.471  0.00  0.00    +0.000 F 
ENDBRANCH  21  22
ENDBRANCH  19  21
ENDBRANCH   1  19
TORSDOF 4
ENDMDL
MODEL 7
REMARK VINA RESULT:      -7.6      3.405      5.751
REMARK  Name = 
REMARK  5 active torsions:
REMARK  status: ('A' for Active; 'I' for Inactive)
REMARK    1  A    between atoms: C_1  and  C_2
REMARK    2  A    between atoms: C_2  and  C_3
REMARK    3  A    between atoms: C_2  and  C_21
REMARK    4  A    between atoms: C_3  and  C_4
REMARK    5  A    between atoms: C_7  and  C_8
REMARK                            x       y       z     vdW  Elec       q    Type
REMARK                         _______ _______ _______ _____ _____    ______ ____
ROOT
ATOM      1  C   UNL     1       1.960   6.141  20.361  0.00  0.00    +0.000 A 
ATOM      2  N   UNL     1       3.141   6.084  19.837  0.00  0.00    +0.000 NA
ATOM      3  N   UNL     1       3.658   4.824  19.724  0.00  0.00    +0.000 N 
ATOM      4  C   UNL     1       4.915   4.452  19.257  0.00  0.00    +0.000 A 
ATOM      5  N   UNL     1       5.039   3.131  19.333  0.00  0.00    +0.000 NA
ATOM      6  C   UNL     1       3.861   2.653  19.842  0.00  0.00    +0.000 A 
ATOM      7  C   UNL     1       3.004   3.689  20.101  0.00  0.00    +0.000 A 
ATOM      8  C   UNL     1       1.694   3.757  20.644  0.00  0.00    +0.000 A 
ATOM      9  O   UNL     1       1.021   2.800  21.003  0.00  0.00    +0.000 OA
ATOM     10  N   UNL     1       1.232   5.047  20.751  0.00  0.00    +0.000 N 
ATOM     11  H   UNL     1       0.288   5.136  21.107  0.00  0.00    +0.000 HD
ENDROOT
BRANCH   4  12
ATOM     12  C   UNL     1       5.948   5.391  18.779  0.00  0.00    +0.000 A 
ATOM     13  C   UNL     1       7.136   5.562  19.521  0.00  0.00    +0.000 A 
ATOM     14  C   UNL     1       8.139   6.443  19.111  0.00  0.00    +0.000 A 
ATOM     15  C   UNL     1       7.992   7.158  17.930  0.00  0.00    +0.000 A 
ATOM     16  C   UNL     1       6.837   6.995  17.167  0.00  0.00    +0.000 A 
ATOM     17  C   UNL     1       5.818   6.126  17.586  0.00  0.00    +0.000 A 
ATOM     18 CL   UNL     1       4.411   6.063  16.578  0.00  0.00    +0.000 Cl
ENDBRANCH   4  12
BRANCH   1  19
ATOM     19  C   UNL     1       1.326   7.497  20.609  0.00  0.00    +0.000 C 
BRANCH  19  21
ATOM     20  C   UNL     1       1.897   8.032  18.178  0.00  0.00    +0.000 C 
ATOM     21  C   UNL     1       1.661   8.589  19.582  0.00  0.00    +0.000 C 
BRANCH  21  22
ATOM     22  C   UNL     1       0.672   9.752  19.587  0.00  0.00    +0.000 C 
ATOM     23  F   UNL     1       0.203  10.041  18.357  0.00  0.00    +0.000 F 
ATOM     24  F   UNL     1      -0.392   9.511  20.385  0.00  0.00    +0.000 F 
ATOM     25  F   UNL     1       1.271  10.867  20.067  0.00  0.00    +0.000 F 
ENDBRANCH  21  22
ENDBRANCH  19  21
ENDBRANCH   1  19
TORSDOF 4
ENDMDL
MODEL 8
REMARK VINA RESULT:      -7.6      3.551      5.856
REMARK  Name = 
REMARK  5 active torsions:
REMARK  status: ('A' for Active; 'I' for Inactive)
REMARK    1  A    between atoms: C_1  and  C_2
REMARK    2  A    between atoms: C_2  and  C_3
REMARK    3  A    between atoms: C_2  and  C_21
REMARK    4  A    between atoms: C_3  and  C_4
REMARK    5  A    between atoms: C_7  and  C_8
REMARK                            x       y       z     vdW  Elec       q    Type
REMARK                         _______ _______ _______ _____ _____    ______ ____
ROOT
ATOM      1  C   UNL     1       1.776   5.314  20.455  0.00  0.00    +0.000 A 
ATOM      2  N   UNL     1       2.893   5.297  19.802  0.00  0.00    +0.000 NA
ATOM      3  N   UNL     1       3.605   4.135  19.914  0.00  0.00    +0.000 N 
ATOM      4  C   UNL     1       4.855   3.841  19.378  0.00  0.00    +0.000 A 
ATOM      5  N   UNL     1       5.210   2.613  19.740  0.00  0.00    +0.000 NA
ATOM      6  C   UNL     1       4.187   2.114  20.501  0.00  0.00    +0.000 A 
ATOM      7  C   UNL     1       3.195   3.049  20.628  0.00  0.00    +0.000 A 
ATOM      8  C   UNL     1       1.952   3.064  21.315  0.00  0.00    +0.000 A 
ATOM      9  O   UNL     1       1.492   2.141  21.974  0.00  0.00    +0.000 OA
ATOM     10  N   UNL     1       1.289   4.260  21.183  0.00  0.00    +0.000 N 
ATOM     11  H   UNL     1       0.383   4.300  21.634  0.00  0.00    +0.000 HD
ENDROOT
BRANCH   4  12
ATOM     12  C   UNL     1       5.660   4.768  18.559  0.00  0.00    +0.000 A 
ATOM     13  C   UNL     1       6.695   5.514  19.160  0.00  0.00    +0.000 A 
ATOM     14  C   UNL     1       7.480   6.407  18.426  0.00  0.00    +0.000 A 
ATOM     15  C   UNL     1       7.266   6.558  17.064  0.00  0.00    +0.000 A 
ATOM     16  C   UNL     1       6.262   5.820  16.439  0.00  0.00    +0.000 A 
ATOM     17  C   UNL     1       5.459   4.936  17.176  0.00  0.00    +0.000 A 
ATOM     18 CL   UNL     1       4.209   4.128  16.291  0.00  0.00    +0.000 Cl
ENDBRANCH   4  12
BRANCH   1  19
ATOM     19  C   UNL     1       0.947   6.585  20.467  0.00  0.00    +0.000 C 
BRANCH  19  21
ATOM     20  C   UNL     1       1.956   8.469  19.068  0.00  0.00    +0.000 C 
ATOM     21  C   UNL     1       1.741   7.899  20.471  0.00  0.00    +0.000 C 
BRANCH  21  22
ATOM     22  C   UNL     1       1.188   8.941  21.440  0.00  0.00    +0.000 C 
ATOM     23  F   UNL     1       1.087  10.165  20.887  0.00  0.00    +0.000 F 
ATOM     24  F   UNL     1      -0.034   8.600  21.910  0.00  0.00    +0.000 F 
ATOM     25  F   UNL     1       1.999   9.047  22.519  0.00  0.00    +0.000 F 
ENDBRANCH  21  22
ENDBRANCH  19  21
ENDBRANCH   1  19
TORSDOF 4
ENDMDL
MODEL 9
REMARK VINA RESULT:      -7.6      1.814      2.328
REMARK  Name = 
REMARK  5 active torsions:
REMARK  status: ('A' for Active; 'I' for Inactive)
REMARK    1  A    between atoms: C_1  and  C_2
REMARK    2  A    between atoms: C_2  and  C_3
REMARK    3  A    between atoms: C_2  and  C_21
REMARK    4  A    between atoms: C_3  and  C_4
REMARK    5  A    between atoms: C_7  and  C_8
REMARK                            x       y       z     vdW  Elec       q    Type
REMARK                         _______ _______ _______ _____ _____    ______ ____
ROOT
ATOM      1  C   UNL     1       5.179   4.673  18.308  0.00  0.00    +0.000 A 
ATOM      2  N   UNL     1       4.336   5.624  18.548  0.00  0.00    +0.000 NA
ATOM      3  N   UNL     1       3.373   5.317  19.468  0.00  0.00    +0.000 N 
ATOM      4  C   UNL     1       2.306   6.107  19.888  0.00  0.00    +0.000 A 
ATOM      5  N   UNL     1       1.583   5.432  20.776  0.00  0.00    +0.000 NA
ATOM      6  C   UNL     1       2.188   4.213  20.933  0.00  0.00    +0.000 A 
ATOM      7  C   UNL     1       3.286   4.124  20.121  0.00  0.00    +0.000 A 
ATOM      8  C   UNL     1       4.236   3.097  19.876  0.00  0.00    +0.000 A 
ATOM      9  O   UNL     1       4.251   1.998  20.415  0.00  0.00    +0.000 OA
ATOM     10  N   UNL     1       5.168   3.452  18.931  0.00  0.00    +0.000 N 
ATOM     11  H   UNL     1       5.881   2.756  18.750  0.00  0.00    +0.000 HD
ENDROOT
BRANCH   4  12
ATOM     12  C   UNL     1       2.021   7.468  19.396  0.00  0.00    +0.000 A 
ATOM     13  C   UNL     1       2.313   7.804  18.058  0.00  0.00    +0.000 A 
ATOM     14  C   UNL     1       2.065   9.082  17.549  0.00  0.00    +0.000 A 
ATOM     15  C   UNL     1       1.492  10.050  18.360  0.00  0.00    +0.000 A 
ATOM     16  C   UNL     1       1.175   9.741  19.682  0.00  0.00    +0.000 A 
ATOM     17  C   UNL     1       1.440   8.465  20.202  0.00  0.00    +0.000 A 
ATOM     18 CL   UNL     1       1.056   8.231  21.875  0.00  0.00    +0.000 Cl
ENDBRANCH   4  12
BRANCH   1  19
ATOM     19  C   UNL     1       6.239   4.877  17.241  0.00  0.00    +0.000 C 
BRANCH  19  21
ATOM     20  C   UNL     1       6.637   7.400  17.224  0.00  0.00    +0.000 C 
ATOM     21  C   UNL     1       7.233   6.018  17.498  0.00  0.00    +0.000 C 
BRANCH  21  22
ATOM     22  C   UNL     1       7.909   5.940  18.865  0.00  0.00    +0.000 C 
ATOM     23  F   UNL     1       7.025   5.905  19.882  0.00  0.00    +0.000 F 
ATOM     24  F   UNL     1       8.705   4.853  18.976  0.00  0.00    +0.000 F 
ATOM     25  F   UNL     1       8.703   7.020  19.052  0.00  0.00    +0.000 F 
ENDBRANCH  21  22
ENDBRANCH  19  21
ENDBRANCH   1  19
TORSDOF 4
ENDMDL
