MODEL 1
REMARK VINA RESULT:      -7.9      0.000      0.000
REMARK  Name = 
REMARK  6 active torsions:
REMARK  status: ('A' for Active; 'I' for Inactive)
REMARK    1  A    between atoms: C_1  and  C_2
REMARK    2  A    between atoms: C_5  and  O_6
REMARK    3  A    between atoms: O_6  and  C_7
REMARK    4  A    between atoms: N_16  and  C_17
REMARK    5  A    between atoms: C_18  and  O_19
REMARK    6  A    between atoms: C_22  and  O_23
REMARK                            x       y       z     vdW  Elec       q    Type
REMARK                         _______ _______ _______ _____ _____    ______ ____
ROOT
ATOM      1  C   UNL     1       1.841   6.420  20.184  0.00  0.00    +0.000 A 
ATOM      2  N   UNL     1       1.005   5.438  20.543  0.00  0.00    +0.000 NA
ATOM      3  C   UNL     1       1.328   4.202  20.139  0.00  0.00    +0.000 A 
ATOM      4  N   UNL     1       0.603   3.172  20.724  0.00  0.00    +0.000 N 
ATOM      5  C   UNL     1       2.431   3.958  19.323  0.00  0.00    +0.000 A 
ATOM      6  C   UNL     1       2.732   2.602  18.827  0.00  0.00    +0.000 A 
ATOM      7  O   UNL     1       2.061   1.612  19.121  0.00  0.00    +0.000 OA
ATOM      8  C   UNL     1       3.847   2.454  17.886  0.00  0.00    +0.000 A 
ATOM      9  C   UNL     1       4.527   3.552  17.562  0.00  0.00    +0.000 A 
ATOM     10  N   UNL     1       4.320   4.825  18.066  0.00  0.00    +0.000 N 
ATOM     11  C   UNL     1       3.214   5.046  18.945  0.00  0.00    +0.000 A 
ATOM     12  N   UNL     1       2.926   6.286  19.395  0.00  0.00    +0.000 NA
ATOM     13  H   UNL     1      -0.263   3.485  21.148  0.00  0.00    +0.000 HD
ATOM     14  H   UNL     1       0.556   2.314  20.171  0.00  0.00    +0.000 HD
ENDROOT
BRANCH  10  15
ATOM     15  C   UNL     1       5.256   5.959  17.848  0.00  0.00    +0.000 C 
ATOM     16  C   UNL     1       6.495   5.943  18.785  0.00  0.00    +0.000 C 
ATOM     17  C   UNL     1       7.488   6.846  18.060  0.00  0.00    +0.000 C 
ATOM     18  C   UNL     1       7.303   6.514  16.578  0.00  0.00    +0.000 C 
ATOM     19  C   UNL     1       5.870   5.987  16.425  0.00  0.00    +0.000 C 
BRANCH  16  20
ATOM     20  O   UNL     1       7.114   4.671  18.984  0.00  0.00    +0.000 OA
ATOM     21  H   UNL     1       6.469   4.050  19.362  0.00  0.00    +0.000 HD
ENDBRANCH  16  20
BRANCH  19  22
ATOM     22  O   UNL     1       5.145   6.820  15.523  0.00  0.00    +0.000 OA
ATOM     23  H   UNL     1       5.005   7.690  15.937  0.00  0.00    +0.000 HD
ENDBRANCH  19  22
ENDBRANCH  10  15
BRANCH   1  24
ATOM     24  O   UNL     1       1.672   7.682  20.719  0.00  0.00    +0.000 OA
BRANCH  24  29
ATOM     25  C   UNL     1      -0.868  11.497  22.109  0.00  0.00    +0.000 C 
ATOM     26  C   UNL     1       0.476  10.767  22.213  0.00  0.00    +0.000 C 
ATOM     27  C   UNL     1       0.310   9.376  22.832  0.00  0.00    +0.000 C 
ATOM     28  C   UNL     1      -0.402   8.409  21.890  0.00  0.00    +0.000 C 
ATOM     29  C   UNL     1       0.354   8.245  20.556  0.00  0.00    +0.000 C 
ATOM     30  C   UNL     1       0.527   9.639  19.909  0.00  0.00    +0.000 C 
ATOM     31  C   UNL     1       1.181  10.659  20.853  0.00  0.00    +0.000 C 
ENDBRANCH  24  29
ENDBRANCH   1  24
TORSDOF 5
ENDMDL
MODEL 2
REMARK VINA RESULT:      -7.4      0.808      1.151
REMARK  Name = 
REMARK  6 active torsions:
REMARK  status: ('A' for Active; 'I' for Inactive)
REMARK    1  A    between atoms: C_1  and  C_2
REMARK    2  A    between atoms: C_5  and  O_6
REMARK    3  A    between atoms: O_6  and  C_7
REMARK    4  A    between atoms: N_16  and  C_17
REMARK    5  A    between atoms: C_18  and  O_19
REMARK    6  A    between atoms: C_22  and  O_23
REMARK                            x       y       z     vdW  Elec       q    Type
REMARK                         _______ _______ _______ _____ _____    ______ ____
ROOT
ATOM      1  C   UNL     1       1.952   6.742  19.995  0.00  0.00    +0.000 A 
ATOM      2  N   UNL     1       1.095   5.811  20.432  0.00  0.00    +0.000 NA
ATOM      3  C   UNL     1       1.377   4.542  20.107  0.00  0.00    +0.000 A 
ATOM      4  N   UNL     1       0.633   3.575  20.773  0.00  0.00    +0.000 N 
ATOM      5  C   UNL     1       2.458   4.212  19.293  0.00  0.00    +0.000 A 
ATOM      6  C   UNL     1       2.713   2.817  18.886  0.00  0.00    +0.000 A 
ATOM      7  O   UNL     1       2.019   1.869  19.257  0.00  0.00    +0.000 OA
ATOM      8  C   UNL     1       3.806   2.574  17.941  0.00  0.00    +0.000 A 
ATOM      9  C   UNL     1       4.512   3.628  17.533  0.00  0.00    +0.000 A 
ATOM     10  N   UNL     1       4.349   4.937  17.951  0.00  0.00    +0.000 N 
ATOM     11  C   UNL     1       3.264   5.248  18.831  0.00  0.00    +0.000 A 
ATOM     12  N   UNL     1       3.019   6.524  19.200  0.00  0.00    +0.000 NA
ATOM     13  H   UNL     1      -0.216   3.941  21.187  0.00  0.00    +0.000 HD
ATOM     14  H   UNL     1       0.553   2.684  20.280  0.00  0.00    +0.000 HD
ENDROOT
BRANCH  10  15
ATOM     15  C   UNL     1       5.312   6.027  17.643  0.00  0.00    +0.000 C 
ATOM     16  C   UNL     1       6.557   6.048  18.571  0.00  0.00    +0.000 C 
ATOM     17  C   UNL     1       7.568   6.867  17.774  0.00  0.00    +0.000 C 
ATOM     18  C   UNL     1       7.362   6.429  16.323  0.00  0.00    +0.000 C 
ATOM     19  C   UNL     1       5.915   5.930  16.218  0.00  0.00    +0.000 C 
BRANCH  16  20
ATOM     20  O   UNL     1       7.145   4.778  18.862  0.00  0.00    +0.000 OA
ATOM     21  H   UNL     1       7.516   4.397  18.049  0.00  0.00    +0.000 HD
ENDBRANCH  16  20
BRANCH  19  22
ATOM     22  O   UNL     1       5.204   6.713  15.260  0.00  0.00    +0.000 OA
ATOM     23  H   UNL     1       5.301   6.303  14.383  0.00  0.00    +0.000 HD
ENDBRANCH  19  22
ENDBRANCH  10  15
BRANCH   1  24
ATOM     24  O   UNL     1       1.827   8.041  20.446  0.00  0.00    +0.000 OA
BRANCH  24  29
ATOM     25  C   UNL     1       0.006  12.316  19.285  0.00  0.00    +0.000 C 
ATOM     26  C   UNL     1       1.282  11.532  19.610  0.00  0.00    +0.000 C 
ATOM     27  C   UNL     1       1.239  10.957  21.029  0.00  0.00    +0.000 C 
ATOM     28  C   UNL     1       0.232   9.816  21.156  0.00  0.00    +0.000 C 
ATOM     29  C   UNL     1       0.550   8.660  20.188  0.00  0.00    +0.000 C 
ATOM     30  C   UNL     1       0.592   9.217  18.746  0.00  0.00    +0.000 C 
ATOM     31  C   UNL     1       1.545  10.411  18.594  0.00  0.00    +0.000 C 
ENDBRANCH  24  29
ENDBRANCH   1  24
TORSDOF 5
ENDMDL
MODEL 3
REMARK VINA RESULT:      -6.6      2.311      4.740
REMARK  Name = 
REMARK  6 active torsions:
REMARK  status: ('A' for Active; 'I' for Inactive)
REMARK    1  A    between atoms: C_1  and  C_2
REMARK    2  A    between atoms: C_5  and  O_6
REMARK    3  A    between atoms: O_6  and  C_7
REMARK    4  A    between atoms: N_16  and  C_17
REMARK    5  A    between atoms: C_18  and  O_19
REMARK    6  A    between atoms: C_22  and  O_23
REMARK                            x       y       z     vdW  Elec       q    Type
REMARK                         _______ _______ _______ _____ _____    ______ ____
ROOT
ATOM      1  C   UNL     1       3.032   7.688  18.149  0.00  0.00    +0.000 A 
ATOM      2  N   UNL     1       3.923   7.973  17.193  0.00  0.00    +0.000 NA
ATOM      3  C   UNL     1       4.497   6.927  16.581  0.00  0.00    +0.000 A 
ATOM      4  N   UNL     1       5.218   7.227  15.432  0.00  0.00    +0.000 N 
ATOM      5  C   UNL     1       4.241   5.614  16.971  0.00  0.00    +0.000 A 
ATOM      6  C   UNL     1       4.934   4.477  16.336  0.00  0.00    +0.000 A 
ATOM      7  O   UNL     1       5.745   4.610  15.418  0.00  0.00    +0.000 OA
ATOM      8  C   UNL     1       4.687   3.140  16.882  0.00  0.00    +0.000 A 
ATOM      9  C   UNL     1       3.832   3.039  17.899  0.00  0.00    +0.000 A 
ATOM     10  N   UNL     1       3.108   4.072  18.468  0.00  0.00    +0.000 N 
ATOM     11  C   UNL     1       3.346   5.409  18.018  0.00  0.00    +0.000 A 
ATOM     12  N   UNL     1       2.722   6.455  18.600  0.00  0.00    +0.000 NA
ATOM     13  H   UNL     1       5.469   8.206  15.364  0.00  0.00    +0.000 HD
ATOM     14  H   UNL     1       5.947   6.551  15.197  0.00  0.00    +0.000 HD
ENDROOT
BRANCH  10  15
ATOM     15  C   UNL     1       2.000   3.865  19.438  0.00  0.00    +0.000 C 
ATOM     16  C   UNL     1       1.209   2.546  19.218  0.00  0.00    +0.000 C 
ATOM     17  C   UNL     1       0.519   2.331  20.562  0.00  0.00    +0.000 C 
ATOM     18  C   UNL     1       1.555   2.759  21.602  0.00  0.00    +0.000 C 
ATOM     19  C   UNL     1       2.479   3.769  20.909  0.00  0.00    +0.000 C 
BRANCH  16  20
ATOM     20  O   UNL     1       1.991   1.386  18.929  0.00  0.00    +0.000 OA
ATOM     21  H   UNL     1       1.441   0.591  19.022  0.00  0.00    +0.000 HD
ENDBRANCH  16  20
BRANCH  19  22
ATOM     22  O   UNL     1       2.427   5.018  21.594  0.00  0.00    +0.000 OA
ATOM     23  H   UNL     1       1.999   5.677  21.019  0.00  0.00    +0.000 HD
ENDBRANCH  19  22
ENDBRANCH  10  15
BRANCH   1  24
ATOM     24  O   UNL     1       2.270   8.706  18.689  0.00  0.00    +0.000 OA
BRANCH  24  29
ATOM     25  C   UNL     1      -0.642  12.505  18.561  0.00  0.00    +0.000 C 
ATOM     26  C   UNL     1       0.093  11.506  19.462  0.00  0.00    +0.000 C 
ATOM     27  C   UNL     1      -0.384  10.072  19.212  0.00  0.00    +0.000 C 
ATOM     28  C   UNL     1       0.077   9.540  17.857  0.00  0.00    +0.000 C 
ATOM     29  C   UNL     1       1.613   9.556  17.728  0.00  0.00    +0.000 C 
ATOM     30  C   UNL     1       2.117  10.998  17.969  0.00  0.00    +0.000 C 
ATOM     31  C   UNL     1       1.617  11.592  19.294  0.00  0.00    +0.000 C 
ENDBRANCH  24  29
ENDBRANCH   1  24
TORSDOF 5
ENDMDL
MODEL 4
REMARK VINA RESULT:      -6.5      1.699      2.034
REMARK  Name = 
REMARK  6 active torsions:
REMARK  status: ('A' for Active; 'I' for Inactive)
REMARK    1  A    between atoms: C_1  and  C_2
REMARK    2  A    between atoms: C_5  and  O_6
REMARK    3  A    between atoms: O_6  and  C_7
REMARK    4  A    between atoms: N_16  and  C_17
REMARK    5  A    between atoms: C_18  and  O_19
REMARK    6  A    between atoms: C_22  and  O_23
REMARK                            x       y       z     vdW  Elec       q    Type
REMARK                         _______ _______ _______ _____ _____    ______ ____
ROOT
ATOM      1  C   UNL     1       2.279   6.804  18.955  0.00  0.00    +0.000 A 
ATOM      2  N   UNL     1       1.407   6.179  19.754  0.00  0.00    +0.000 NA
ATOM      3  C   UNL     1       1.482   4.841  19.789  0.00  0.00    +0.000 A 
ATOM      4  N   UNL     1       0.755   4.226  20.801  0.00  0.00    +0.000 N 
ATOM      5  C   UNL     1       2.366   4.131  18.979  0.00  0.00    +0.000 A 
ATOM      6  C   UNL     1       2.388   2.656  18.976  0.00  0.00    +0.000 A 
ATOM      7  O   UNL     1       1.662   1.970  19.697  0.00  0.00    +0.000 OA
ATOM      8  C   UNL     1       3.272   1.991  18.014  0.00  0.00    +0.000 A 
ATOM      9  C   UNL     1       4.015   2.765  17.225  0.00  0.00    +0.000 A 
ATOM     10  N   UNL     1       4.075   4.148  17.252  0.00  0.00    +0.000 N 
ATOM     11  C   UNL     1       3.197   4.858  18.130  0.00  0.00    +0.000 A 
ATOM     12  N   UNL     1       3.165   6.208  18.131  0.00  0.00    +0.000 NA
ATOM     13  H   UNL     1       0.036   4.822  21.192  0.00  0.00    +0.000 HD
ATOM     14  H   UNL     1       0.492   3.258  20.610  0.00  0.00    +0.000 HD
ENDROOT
BRANCH  10  15
ATOM     15  C   UNL     1       5.092   4.943  16.513  0.00  0.00    +0.000 C 
ATOM     16  C   UNL     1       6.317   5.356  17.375  0.00  0.00    +0.000 C 
ATOM     17  C   UNL     1       7.378   5.683  16.330  0.00  0.00    +0.000 C 
ATOM     18  C   UNL     1       7.185   4.629  15.239  0.00  0.00    +0.000 C 
ATOM     19  C   UNL     1       5.720   4.180  15.320  0.00  0.00    +0.000 C 
BRANCH  16  20
ATOM     20  O   UNL     1       6.842   4.349  18.243  0.00  0.00    +0.000 OA
ATOM     21  H   UNL     1       7.117   3.579  17.718  0.00  0.00    +0.000 HD
ENDBRANCH  16  20
BRANCH  19  22
ATOM     22  O   UNL     1       5.065   4.449  14.081  0.00  0.00    +0.000 OA
ATOM     23  H   UNL     1       4.106   4.336  14.199  0.00  0.00    +0.000 HD
ENDBRANCH  19  22
ENDBRANCH  10  15
BRANCH   1  24
ATOM     24  O   UNL     1       2.381   8.180  19.010  0.00  0.00    +0.000 OA
BRANCH  24  29
ATOM     25  C   UNL     1      -0.298  12.100  18.386  0.00  0.00    +0.000 C 
ATOM     26  C   UNL     1       0.449  11.229  19.402  0.00  0.00    +0.000 C 
ATOM     27  C   UNL     1      -0.133   9.813  19.459  0.00  0.00    +0.000 C 
ATOM     28  C   UNL     1       0.180   9.012  18.197  0.00  0.00    +0.000 C 
ATOM     29  C   UNL     1       1.697   8.889  17.957  0.00  0.00    +0.000 C 
ATOM     30  C   UNL     1       2.306  10.309  17.889  0.00  0.00    +0.000 C 
ATOM     31  C   UNL     1       1.956  11.169  19.112  0.00  0.00    +0.000 C 
ENDBRANCH  24  29
ENDBRANCH   1  24
TORSDOF 5
ENDMDL
MODEL 5
REMARK VINA RESULT:      -6.5      0.949      1.278
REMARK  Name = 
REMARK  6 active torsions:
REMARK  status: ('A' for Active; 'I' for Inactive)
REMARK    1  A    between atoms: C_1  and  C_2
REMARK    2  A    between atoms: C_5  and  O_6
REMARK    3  A    between atoms: O_6  and  C_7
REMARK    4  A    between atoms: N_16  and  C_17
REMARK    5  A    between atoms: C_18  and  O_19
REMARK    6  A    between atoms: C_22  and  O_23
REMARK                            x       y       z     vdW  Elec       q    Type
REMARK                         _______ _______ _______ _____ _____    ______ ____
ROOT
ATOM      1  C   UNL     1       1.554   5.854  20.463  0.00  0.00    +0.000 A 
ATOM      2  N   UNL     1       0.665   4.854  20.448  0.00  0.00    +0.000 NA
ATOM      3  C   UNL     1       1.030   3.742  19.796  0.00  0.00    +0.000 A 
ATOM      4  N   UNL     1       0.218   2.633  20.002  0.00  0.00    +0.000 N 
ATOM      5  C   UNL     1       2.236   3.655  19.103  0.00  0.00    +0.000 A 
ATOM      6  C   UNL     1       2.591   2.450  18.331  0.00  0.00    +0.000 A 
ATOM      7  O   UNL     1       1.874   1.450  18.274  0.00  0.00    +0.000 OA
ATOM      8  C   UNL     1       3.828   2.487  17.544  0.00  0.00    +0.000 A 
ATOM      9  C   UNL     1       4.559   3.599  17.600  0.00  0.00    +0.000 A 
ATOM     10  N   UNL     1       4.295   4.717  18.372  0.00  0.00    +0.000 N 
ATOM     11  C   UNL     1       3.076   4.765  19.119  0.00  0.00    +0.000 A 
ATOM     12  N   UNL     1       2.740   5.869  19.821  0.00  0.00    +0.000 NA
ATOM     13  H   UNL     1      -0.696   2.872  20.367  0.00  0.00    +0.000 HD
ATOM     14  H   UNL     1       0.242   1.941  19.251  0.00  0.00    +0.000 HD
ENDROOT
BRANCH  10  15
ATOM     15  C   UNL     1       5.264   5.826  18.574  0.00  0.00    +0.000 C 
ATOM     16  C   UNL     1       6.665   5.358  19.055  0.00  0.00    +0.000 C 
ATOM     17  C   UNL     1       7.562   6.542  18.706  0.00  0.00    +0.000 C 
ATOM     18  C   UNL     1       7.041   7.039  17.357  0.00  0.00    +0.000 C 
ATOM     19  C   UNL     1       5.565   6.624  17.280  0.00  0.00    +0.000 C 
BRANCH  16  20
ATOM     20  O   UNL     1       7.193   4.196  18.413  0.00  0.00    +0.000 OA
ATOM     21  H   UNL     1       6.473   3.705  17.984  0.00  0.00    +0.000 HD
ENDBRANCH  16  20
BRANCH  19  22
ATOM     22  O   UNL     1       4.746   7.783  17.138  0.00  0.00    +0.000 OA
ATOM     23  H   UNL     1       5.313   8.548  16.937  0.00  0.00    +0.000 HD
ENDBRANCH  19  22
ENDBRANCH  10  15
BRANCH   1  24
ATOM     24  O   UNL     1       1.323   6.953  21.268  0.00  0.00    +0.000 OA
BRANCH  24  29
ATOM     25  C   UNL     1       0.191  11.601  21.042  0.00  0.00    +0.000 C 
ATOM     26  C   UNL     1      -0.272  10.207  21.481  0.00  0.00    +0.000 C 
ATOM     27  C   UNL     1      -0.388   9.255  20.287  0.00  0.00    +0.000 C 
ATOM     28  C   UNL     1       0.978   8.873  19.721  0.00  0.00    +0.000 C 
ATOM     29  C   UNL     1       1.869   8.196  20.781  0.00  0.00    +0.000 C 
ATOM     30  C   UNL     1       2.006   9.144  21.995  0.00  0.00    +0.000 C 
ATOM     31  C   UNL     1       0.649   9.603  22.550  0.00  0.00    +0.000 C 
ENDBRANCH  24  29
ENDBRANCH   1  24
TORSDOF 5
ENDMDL
MODEL 6
REMARK VINA RESULT:      -6.4      3.319      8.000
REMARK  Name = 
REMARK  6 active torsions:
REMARK  status: ('A' for Active; 'I' for Inactive)
REMARK    1  A    between atoms: C_1  and  C_2
REMARK    2  A    between atoms: C_5  and  O_6
REMARK    3  A    between atoms: O_6  and  C_7
REMARK    4  A    between atoms: N_16  and  C_17
REMARK    5  A    between atoms: C_18  and  O_19
REMARK    6  A    between atoms: C_22  and  O_23
REMARK                            x       y       z     vdW  Elec       q    Type
REMARK                         _______ _______ _______ _____ _____    ______ ____
ROOT
ATOM      1  C   UNL     1       1.591   8.332  19.841  0.00  0.00    +0.000 A 
ATOM      2  N   UNL     1       1.831   8.302  21.157  0.00  0.00    +0.000 NA
ATOM      3  C   UNL     1       1.071   9.099  21.920  0.00  0.00    +0.000 A 
ATOM      4  N   UNL     1       1.153   8.874  23.288  0.00  0.00    +0.000 N 
ATOM      5  C   UNL     1       0.134   9.971  21.370  0.00  0.00    +0.000 A 
ATOM      6  C   UNL     1      -0.646  10.894  22.218  0.00  0.00    +0.000 A 
ATOM      7  O   UNL     1      -0.542  10.931  23.444  0.00  0.00    +0.000 OA
ATOM      8  C   UNL     1      -1.529  11.851  21.546  0.00  0.00    +0.000 A 
ATOM      9  C   UNL     1      -1.587  11.806  20.216  0.00  0.00    +0.000 A 
ATOM     10  N   UNL     1      -0.929  10.906  19.396  0.00  0.00    +0.000 N 
ATOM     11  C   UNL     1      -0.010   9.982  19.985  0.00  0.00    +0.000 A 
ATOM     12  N   UNL     1       0.713   9.142  19.215  0.00  0.00    +0.000 NA
ATOM     13  H   UNL     1       1.980   8.355  23.557  0.00  0.00    +0.000 HD
ATOM     14  H   UNL     1       0.911   9.679  23.869  0.00  0.00    +0.000 HD
ENDROOT
BRANCH  10  15
ATOM     15  C   UNL     1      -1.215  10.754  17.944  0.00  0.00    +0.000 C 
ATOM     16  C   UNL     1      -2.113   9.533  17.604  0.00  0.00    +0.000 C 
ATOM     17  C   UNL     1      -2.650   9.877  16.218  0.00  0.00    +0.000 C 
ATOM     18  C   UNL     1      -2.920  11.382  16.270  0.00  0.00    +0.000 C 
ATOM     19  C   UNL     1      -1.980  11.957  17.338  0.00  0.00    +0.000 C 
BRANCH  16  20
ATOM     20  O   UNL     1      -3.227   9.312  18.470  0.00  0.00    +0.000 OA
ATOM     21  H   UNL     1      -2.946   8.778  19.232  0.00  0.00    +0.000 HD
ENDBRANCH  16  20
BRANCH  19  22
ATOM     22  O   UNL     1      -1.116  12.926  16.747  0.00  0.00    +0.000 OA
ATOM     23  H   UNL     1      -1.545  13.290  15.953  0.00  0.00    +0.000 HD
ENDBRANCH  19  22
ENDBRANCH  10  15
BRANCH   1  24
ATOM     24  O   UNL     1       2.205   7.406  19.020  0.00  0.00    +0.000 OA
BRANCH  24  29
ATOM     25  C   UNL     1       3.615   2.942  18.010  0.00  0.00    +0.000 C 
ATOM     26  C   UNL     1       3.043   4.246  17.442  0.00  0.00    +0.000 C 
ATOM     27  C   UNL     1       1.683   4.577  18.064  0.00  0.00    +0.000 C 
ATOM     28  C   UNL     1       1.807   5.001  19.526  0.00  0.00    +0.000 C 
ATOM     29  C   UNL     1       2.716   6.235  19.690  0.00  0.00    +0.000 C 
ATOM     30  C   UNL     1       4.098   5.920  19.074  0.00  0.00    +0.000 C 
ATOM     31  C   UNL     1       4.008   5.426  17.623  0.00  0.00    +0.000 C 
ENDBRANCH  24  29
ENDBRANCH   1  24
TORSDOF 5
ENDMDL
MODEL 7
REMARK VINA RESULT:      -6.3      0.915      1.290
REMARK  Name = 
REMARK  6 active torsions:
REMARK  status: ('A' for Active; 'I' for Inactive)
REMARK    1  A    between atoms: C_1  and  C_2
REMARK    2  A    between atoms: C_5  and  O_6
REMARK    3  A    between atoms: O_6  and  C_7
REMARK    4  A    between atoms: N_16  and  C_17
REMARK    5  A    between atoms: C_18  and  O_19
REMARK    6  A    between atoms: C_22  and  O_23
REMARK                            x       y       z     vdW  Elec       q    Type
REMARK                         _______ _______ _______ _____ _____    ______ ____
ROOT
ATOM      1  C   UNL     1       1.834   6.599  20.068  0.00  0.00    +0.000 A 
ATOM      2  N   UNL     1       0.970   5.645  20.434  0.00  0.00    +0.000 NA
ATOM      3  C   UNL     1       1.262   4.395  20.048  0.00  0.00    +0.000 A 
ATOM      4  N   UNL     1       0.506   3.393  20.643  0.00  0.00    +0.000 N 
ATOM      5  C   UNL     1       2.363   4.111  19.243  0.00  0.00    +0.000 A 
ATOM      6  C   UNL     1       2.633   2.740  18.768  0.00  0.00    +0.000 A 
ATOM      7  O   UNL     1       1.933   1.773  19.071  0.00  0.00    +0.000 OA
ATOM      8  C   UNL     1       3.749   2.551  17.838  0.00  0.00    +0.000 A 
ATOM      9  C   UNL     1       4.461   3.626  17.504  0.00  0.00    +0.000 A 
ATOM     10  N   UNL     1       4.284   4.911  17.988  0.00  0.00    +0.000 N 
ATOM     11  C   UNL     1       3.178   5.172  18.857  0.00  0.00    +0.000 A 
ATOM     12  N   UNL     1       2.920   6.426  19.288  0.00  0.00    +0.000 NA
ATOM     13  H   UNL     1      -0.354   3.734  21.055  0.00  0.00    +0.000 HD
ATOM     14  H   UNL     1       0.440   2.529  20.101  0.00  0.00    +0.000 HD
ENDROOT
BRANCH  10  15
ATOM     15  C   UNL     1       5.251   6.017  17.762  0.00  0.00    +0.000 C 
ATOM     16  C   UNL     1       6.485   5.977  18.705  0.00  0.00    +0.000 C 
ATOM     17  C   UNL     1       7.505   6.845  17.974  0.00  0.00    +0.000 C 
ATOM     18  C   UNL     1       7.317   6.501  16.496  0.00  0.00    +0.000 C 
ATOM     19  C   UNL     1       5.871   6.011  16.342  0.00  0.00    +0.000 C 
BRANCH  16  20
ATOM     20  O   UNL     1       7.069   4.692  18.922  0.00  0.00    +0.000 OA
ATOM     21  H   UNL     1       7.531   4.684  19.776  0.00  0.00    +0.000 HD
ENDBRANCH  16  20
BRANCH  19  22
ATOM     22  O   UNL     1       5.173   6.853  15.427  0.00  0.00    +0.000 OA
ATOM     23  H   UNL     1       4.486   7.345  15.910  0.00  0.00    +0.000 HD
ENDBRANCH  19  22
ENDBRANCH  10  15
BRANCH   1  24
ATOM     24  O   UNL     1       1.694   7.872  20.585  0.00  0.00    +0.000 OA
BRANCH  24  29
ATOM     25  C   UNL     1      -0.555  11.890  19.266  0.00  0.00    +0.000 C 
ATOM     26  C   UNL     1      -0.577  10.679  20.207  0.00  0.00    +0.000 C 
ATOM     27  C   UNL     1      -0.675   9.366  19.424  0.00  0.00    +0.000 C 
ATOM     28  C   UNL     1       0.616   9.047  18.673  0.00  0.00    +0.000 C 
ATOM     29  C   UNL     1       1.823   8.941  19.625  0.00  0.00    +0.000 C 
ATOM     30  C   UNL     1       1.945  10.261  20.421  0.00  0.00    +0.000 C 
ATOM     31  C   UNL     1       0.643  10.650  21.138  0.00  0.00    +0.000 C 
ENDBRANCH  24  29
ENDBRANCH   1  24
TORSDOF 5
ENDMDL
MODEL 8
REMARK VINA RESULT:      -6.3      7.678     11.828
REMARK  Name = 
REMARK  6 active torsions:
REMARK  status: ('A' for Active; 'I' for Inactive)
REMARK    1  A    between atoms: C_1  and  C_2
REMARK    2  A    between atoms: C_5  and  O_6
REMARK    3  A    between atoms: O_6  and  C_7
REMARK    4  A    between atoms: N_16  and  C_17
REMARK    5  A    between atoms: C_18  and  O_19
REMARK    6  A    between atoms: C_22  and  O_23
REMARK                            x       y       z     vdW  Elec       q    Type
REMARK                         _______ _______ _______ _____ _____    ______ ____
ROOT
ATOM      1  C   UNL     1      -3.163  12.459  22.038  0.00  0.00    +0.000 A 
ATOM      2  N   UNL     1      -3.383  12.327  23.351  0.00  0.00    +0.000 NA
ATOM      3  C   UNL     1      -4.628  12.584  23.776  0.00  0.00    +0.000 A 
ATOM      4  N   UNL     1      -4.906  12.201  25.082  0.00  0.00    +0.000 N 
ATOM      5  C   UNL     1      -5.621  13.041  22.913  0.00  0.00    +0.000 A 
ATOM      6  C   UNL     1      -6.967  13.388  23.408  0.00  0.00    +0.000 A 
ATOM      7  O   UNL     1      -7.302  13.270  24.587  0.00  0.00    +0.000 OA
ATOM      8  C   UNL     1      -7.916  13.964  22.451  0.00  0.00    +0.000 A 
ATOM      9  C   UNL     1      -7.506  14.112  21.192  0.00  0.00    +0.000 A 
ATOM     10  N   UNL     1      -6.280  13.728  20.677  0.00  0.00    +0.000 N 
ATOM     11  C   UNL     1      -5.290  13.210  21.571  0.00  0.00    +0.000 A 
ATOM     12  N   UNL     1      -4.054  12.899  21.126  0.00  0.00    +0.000 NA
ATOM     13  H   UNL     1      -4.073  12.054  25.639  0.00  0.00    +0.000 HD
ATOM     14  H   UNL     1      -5.666  12.718  25.526  0.00  0.00    +0.000 HD
ENDROOT
BRANCH  10  15
ATOM     15  C   UNL     1      -5.969  13.701  19.224  0.00  0.00    +0.000 C 
ATOM     16  C   UNL     1      -6.275  12.341  18.538  0.00  0.00    +0.000 C 
ATOM     17  C   UNL     1      -6.359  12.711  17.061  0.00  0.00    +0.000 C 
ATOM     18  C   UNL     1      -7.068  14.066  17.041  0.00  0.00    +0.000 C 
ATOM     19  C   UNL     1      -6.791  14.724  18.399  0.00  0.00    +0.000 C 
BRANCH  16  20
ATOM     20  O   UNL     1      -7.503  11.713  18.911  0.00  0.00    +0.000 OA
ATOM     21  H   UNL     1      -8.108  12.376  19.283  0.00  0.00    +0.000 HD
ENDBRANCH  16  20
BRANCH  19  22
ATOM     22  O   UNL     1      -6.106  15.959  18.204  0.00  0.00    +0.000 OA
ATOM     23  H   UNL     1      -6.059  16.149  17.251  0.00  0.00    +0.000 HD
ENDBRANCH  19  22
ENDBRANCH  10  15
BRANCH   1  24
ATOM     24  O   UNL     1      -1.960  12.034  21.507  0.00  0.00    +0.000 OA
BRANCH  24  29
ATOM     25  C   UNL     1       1.815  12.268  18.571  0.00  0.00    +0.000 C 
ATOM     26  C   UNL     1       1.236  11.624  19.835  0.00  0.00    +0.000 C 
ATOM     27  C   UNL     1       0.943  12.672  20.913  0.00  0.00    +0.000 C 
ATOM     28  C   UNL     1      -0.244  13.559  20.544  0.00  0.00    +0.000 C 
ATOM     29  C   UNL     1      -1.529  12.736  20.324  0.00  0.00    +0.000 C 
ATOM     30  C   UNL     1      -1.258  11.674  19.233  0.00  0.00    +0.000 C 
ATOM     31  C   UNL     1      -0.028  10.805  19.537  0.00  0.00    +0.000 C 
ENDBRANCH  24  29
ENDBRANCH   1  24
TORSDOF 5
ENDMDL
MODEL 9
REMARK VINA RESULT:      -6.3      2.071      4.580
REMARK  Name = 
REMARK  6 active torsions:
REMARK  status: ('A' for Active; 'I' for Inactive)
REMARK    1  A    between atoms: C_1  and  C_2
REMARK    2  A    between atoms: C_5  and  O_6
REMARK    3  A    between atoms: O_6  and  C_7
REMARK    4  A    between atoms: N_16  and  C_17
REMARK    5  A    between atoms: C_18  and  O_19
REMARK    6  A    between atoms: C_22  and  O_23
REMARK                            x       y       z     vdW  Elec       q    Type
REMARK                         _______ _______ _______ _____ _____    ______ ____
ROOT
ATOM      1  C   UNL     1       3.455   7.582  17.872  0.00  0.00    +0.000 A 
ATOM      2  N   UNL     1       4.379   7.731  16.916  0.00  0.00    +0.000 NA
ATOM      3  C   UNL     1       4.846   6.606  16.357  0.00  0.00    +0.000 A 
ATOM      4  N   UNL     1       5.604   6.779  15.206  0.00  0.00    +0.000 N 
ATOM      5  C   UNL     1       4.451   5.345  16.798  0.00  0.00    +0.000 A 
ATOM      6  C   UNL     1       5.027   4.115  16.221  0.00  0.00    +0.000 A 
ATOM      7  O   UNL     1       5.855   4.123  15.310  0.00  0.00    +0.000 OA
ATOM      8  C   UNL     1       4.636   2.836  16.820  0.00  0.00    +0.000 A 
ATOM      9  C   UNL     1       3.767   2.869  17.828  0.00  0.00    +0.000 A 
ATOM     10  N   UNL     1       3.150   3.996  18.344  0.00  0.00    +0.000 N 
ATOM     11  C   UNL     1       3.530   5.280  17.841  0.00  0.00    +0.000 A 
ATOM     12  N   UNL     1       3.014   6.409  18.370  0.00  0.00    +0.000 NA
ATOM     13  H   UNL     1       5.957   7.723  15.100  0.00  0.00    +0.000 HD
ATOM     14  H   UNL     1       6.261   6.022  15.009  0.00  0.00    +0.000 HD
ENDROOT
BRANCH  10  15
ATOM     15  C   UNL     1       2.018   3.947  19.307  0.00  0.00    +0.000 C 
ATOM     16  C   UNL     1       1.130   2.680  19.171  0.00  0.00    +0.000 C 
ATOM     17  C   UNL     1       0.409   2.619  20.515  0.00  0.00    +0.000 C 
ATOM     18  C   UNL     1       1.463   3.043  21.539  0.00  0.00    +0.000 C 
ATOM     19  C   UNL     1       2.471   3.924  20.789  0.00  0.00    +0.000 C 
BRANCH  16  20
ATOM     20  O   UNL     1       1.823   1.445  18.982  0.00  0.00    +0.000 OA
ATOM     21  H   UNL     1       1.191   0.708  19.022  0.00  0.00    +0.000 HD
ENDBRANCH  16  20
BRANCH  19  22
ATOM     22  O   UNL     1       2.508   5.222  21.379  0.00  0.00    +0.000 OA
ATOM     23  H   UNL     1       3.132   5.213  22.126  0.00  0.00    +0.000 HD
ENDBRANCH  19  22
ENDBRANCH  10  15
BRANCH   1  24
ATOM     24  O   UNL     1       2.799   8.696  18.358  0.00  0.00    +0.000 OA
BRANCH  24  29
ATOM     25  C   UNL     1      -0.790  10.950  20.589  0.00  0.00    +0.000 C 
ATOM     26  C   UNL     1       0.690  11.011  20.194  0.00  0.00    +0.000 C 
ATOM     27  C   UNL     1       1.485   9.865  20.827  0.00  0.00    +0.000 C 
ATOM     28  C   UNL     1       1.140   8.514  20.206  0.00  0.00    +0.000 C 
ATOM     29  C   UNL     1       1.409   8.495  18.688  0.00  0.00    +0.000 C 
ATOM     30  C   UNL     1       0.610   9.641  18.027  0.00  0.00    +0.000 C 
ATOM     31  C   UNL     1       0.881  11.009  18.671  0.00  0.00    +0.000 C 
ENDBRANCH  24  29
ENDBRANCH   1  24
TORSDOF 5
ENDMDL
