MODEL 1
REMARK VINA RESULT:      -6.4      0.000      0.000
REMARK  Name = 
REMARK  6 active torsions:
REMARK  status: ('A' for Active; 'I' for Inactive)
REMARK    1  A    between atoms: C_1  and  N_2
REMARK    2  A    between atoms: N_2  and  C_3
REMARK    3  A    between atoms: N_2  and  C_4
REMARK    4  A    between atoms: C_8  and  C_9
REMARK    5  A    between atoms: C_12  and  C_13
REMARK    6  A    between atoms: C_13  and  C_15
REMARK                            x       y       z     vdW  Elec       q    Type
REMARK                         _______ _______ _______ _____ _____    ______ ____
ROOT
ATOM      1  C   UNL     1      -4.135  10.836  17.635  0.00  0.00    +0.000 C 
ATOM      2  C   UNL     1      -2.965  11.024  18.284  0.00  0.00    +0.000 A 
ATOM      3  S   UNL     1      -2.823  12.089  19.656  0.00  0.00    +0.000 S 
ATOM      4  C   UNL     1      -1.157  11.775  19.790  0.00  0.00    +0.000 A 
ATOM      5  C   UNL     1      -0.189  12.242  20.619  0.00  0.00    +0.000 A 
ATOM      6  C   UNL     1       0.979  11.571  20.225  0.00  0.00    +0.000 A 
ATOM      7  C   UNL     1       0.697  10.739  19.133  0.00  0.00    +0.000 A 
ATOM      8  N   UNL     1      -0.677  10.881  18.875  0.00  0.00    +0.000 N 
ATOM      9  C   UNL     1      -1.619  10.397  17.941  0.00  0.00    +0.000 A 
ATOM     10  O   UNL     1      -1.332   9.650  17.028  0.00  0.00    +0.000 OA
ENDROOT
BRANCH   1  12
ATOM     11  C   UNL     1      -6.417  10.721  18.699  0.00  0.00    +0.000 C 
ATOM     12  N   UNL     1      -5.427  11.380  17.840  0.00  0.00    +0.000 N 
ATOM     13  C   UNL     1      -5.919  12.614  17.214  0.00  0.00    +0.000 C 
ENDBRANCH   1  12
BRANCH   5  14
ATOM     14  C   UNL     1      -0.368  13.200  21.655  0.00  0.00    +0.000 C 
ATOM     15  N   UNL     1      -0.495  13.980  22.506  0.00  0.00    +0.000 NA
ENDBRANCH   5  14
BRANCH   7  16
ATOM     16  C   UNL     1       1.658   9.852  18.484  0.00  0.00    +0.000 C 
ATOM     17  O   UNL     1       2.251  10.131  17.450  0.00  0.00    +0.000 OA
BRANCH  16  18
ATOM     18  C   UNL     1       1.833   8.462  19.050  0.00  0.00    +0.000 A 
ATOM     19  C   UNL     1       1.425   8.138  20.355  0.00  0.00    +0.000 A 
ATOM     20  C   UNL     1       1.556   6.830  20.839  0.00  0.00    +0.000 A 
ATOM     21  C   UNL     1       2.117   5.845  20.030  0.00  0.00    +0.000 A 
ATOM     22 BR   UNL     1       2.320   4.086  20.697  0.00  0.00    +0.000 Br
ATOM     23  C   UNL     1       2.537   6.151  18.737  0.00  0.00    +0.000 A 
ATOM     24  C   UNL     1       2.397   7.459  18.248  0.00  0.00    +0.000 A 
ENDBRANCH  16  18
ENDBRANCH   7  16
TORSDOF 4
ENDMDL
MODEL 2
REMARK VINA RESULT:      -6.4      5.013      7.721
REMARK  Name = 
REMARK  6 active torsions:
REMARK  status: ('A' for Active; 'I' for Inactive)
REMARK    1  A    between atoms: C_1  and  N_2
REMARK    2  A    between atoms: N_2  and  C_3
REMARK    3  A    between atoms: N_2  and  C_4
REMARK    4  A    between atoms: C_8  and  C_9
REMARK    5  A    between atoms: C_12  and  C_13
REMARK    6  A    between atoms: C_13  and  C_15
REMARK                            x       y       z     vdW  Elec       q    Type
REMARK                         _______ _______ _______ _____ _____    ______ ____
ROOT
ATOM      1  C   UNL     1       2.150   8.703  18.315  0.00  0.00    +0.000 C 
ATOM      2  C   UNL     1       2.678   7.505  18.650  0.00  0.00    +0.000 A 
ATOM      3  S   UNL     1       1.856   6.390  19.709  0.00  0.00    +0.000 S 
ATOM      4  C   UNL     1       3.142   5.281  19.620  0.00  0.00    +0.000 A 
ATOM      5  C   UNL     1       3.370   4.077  20.203  0.00  0.00    +0.000 A 
ATOM      6  C   UNL     1       4.612   3.661  19.699  0.00  0.00    +0.000 A 
ATOM      7  C   UNL     1       5.128   4.647  18.849  0.00  0.00    +0.000 A 
ATOM      8  N   UNL     1       4.169   5.673  18.809  0.00  0.00    +0.000 N 
ATOM      9  C   UNL     1       4.027   6.946  18.214  0.00  0.00    +0.000 A 
ATOM     10  O   UNL     1       4.882   7.460  17.523  0.00  0.00    +0.000 OA
ENDROOT
BRANCH   1  12
ATOM     11  C   UNL     1       0.656   9.740  20.059  0.00  0.00    +0.000 C 
ATOM     12  N   UNL     1       0.936   9.335  18.678  0.00  0.00    +0.000 N 
ATOM     13  C   UNL     1      -0.163   9.623  17.745  0.00  0.00    +0.000 C 
ENDBRANCH   1  12
BRANCH   5  14
ATOM     14  C   UNL     1       2.504   3.415  21.116  0.00  0.00    +0.000 C 
ATOM     15  N   UNL     1       1.784   2.892  21.863  0.00  0.00    +0.000 NA
ENDBRANCH   5  14
BRANCH   7  16
ATOM     16  C   UNL     1       6.381   4.543  18.106  0.00  0.00    +0.000 C 
ATOM     17  O   UNL     1       7.487   4.693  18.612  0.00  0.00    +0.000 OA
BRANCH  16  18
ATOM     18  C   UNL     1       6.304   4.368  16.608  0.00  0.00    +0.000 A 
ATOM     19  C   UNL     1       7.264   4.928  15.747  0.00  0.00    +0.000 A 
ATOM     20  C   UNL     1       7.194   4.712  14.365  0.00  0.00    +0.000 A 
ATOM     21  C   UNL     1       6.152   3.955  13.833  0.00  0.00    +0.000 A 
ATOM     22 BR   UNL     1       6.045   3.690  11.964  0.00  0.00    +0.000 Br
ATOM     23  C   UNL     1       5.186   3.402  14.672  0.00  0.00    +0.000 A 
ATOM     24  C   UNL     1       5.260   3.610  16.057  0.00  0.00    +0.000 A 
ENDBRANCH  16  18
ENDBRANCH   7  16
TORSDOF 4
ENDMDL
MODEL 3
REMARK VINA RESULT:      -6.4      1.552      3.856
REMARK  Name = 
REMARK  6 active torsions:
REMARK  status: ('A' for Active; 'I' for Inactive)
REMARK    1  A    between atoms: C_1  and  N_2
REMARK    2  A    between atoms: N_2  and  C_3
REMARK    3  A    between atoms: N_2  and  C_4
REMARK    4  A    between atoms: C_8  and  C_9
REMARK    5  A    between atoms: C_12  and  C_13
REMARK    6  A    between atoms: C_13  and  C_15
REMARK                            x       y       z     vdW  Elec       q    Type
REMARK                         _______ _______ _______ _____ _____    ______ ____
ROOT
ATOM      1  C   UNL     1      -1.142  12.824  22.721  0.00  0.00    +0.000 C 
ATOM      2  C   UNL     1      -1.123  12.239  21.502  0.00  0.00    +0.000 A 
ATOM      3  S   UNL     1      -2.511  12.244  20.447  0.00  0.00    +0.000 S 
ATOM      4  C   UNL     1      -1.682  11.336  19.272  0.00  0.00    +0.000 A 
ATOM      5  C   UNL     1      -2.044  10.828  18.067  0.00  0.00    +0.000 A 
ATOM      6  C   UNL     1      -0.890  10.194  17.581  0.00  0.00    +0.000 A 
ATOM      7  C   UNL     1       0.137  10.298  18.527  0.00  0.00    +0.000 A 
ATOM      8  N   UNL     1      -0.390  11.037  19.600  0.00  0.00    +0.000 N 
ATOM      9  C   UNL     1       0.039  11.484  20.869  0.00  0.00    +0.000 A 
ATOM     10  O   UNL     1       1.136  11.239  21.329  0.00  0.00    +0.000 OA
ENDROOT
BRANCH   1  12
ATOM     11  C   UNL     1      -3.332  12.830  23.968  0.00  0.00    +0.000 C 
ATOM     12  N   UNL     1      -2.160  13.519  23.419  0.00  0.00    +0.000 N 
ATOM     13  C   UNL     1      -2.171  14.971  23.644  0.00  0.00    +0.000 C 
ENDBRANCH   1  12
BRANCH   5  14
ATOM     14  C   UNL     1      -3.326  10.946  17.464  0.00  0.00    +0.000 C 
ATOM     15  N   UNL     1      -4.380  11.024  16.980  0.00  0.00    +0.000 NA
ENDBRANCH   5  14
BRANCH   7  16
ATOM     16  C   UNL     1       1.497   9.796  18.348  0.00  0.00    +0.000 C 
ATOM     17  O   UNL     1       2.363  10.389  17.717  0.00  0.00    +0.000 OA
BRANCH  16  18
ATOM     18  C   UNL     1       1.814   8.411  18.860  0.00  0.00    +0.000 A 
ATOM     19  C   UNL     1       1.571   8.042  20.194  0.00  0.00    +0.000 A 
ATOM     20  C   UNL     1       1.831   6.737  20.632  0.00  0.00    +0.000 A 
ATOM     21  C   UNL     1       2.356   5.800  19.744  0.00  0.00    +0.000 A 
ATOM     22 BR   UNL     1       2.733   4.047  20.346  0.00  0.00    +0.000 Br
ATOM     23  C   UNL     1       2.613   6.152  18.420  0.00  0.00    +0.000 A 
ATOM     24  C   UNL     1       2.345   7.457  17.979  0.00  0.00    +0.000 A 
ENDBRANCH  16  18
ENDBRANCH   7  16
TORSDOF 4
ENDMDL
MODEL 4
REMARK VINA RESULT:      -6.4      0.177      1.228
REMARK  Name = 
REMARK  6 active torsions:
REMARK  status: ('A' for Active; 'I' for Inactive)
REMARK    1  A    between atoms: C_1  and  N_2
REMARK    2  A    between atoms: N_2  and  C_3
REMARK    3  A    between atoms: N_2  and  C_4
REMARK    4  A    between atoms: C_8  and  C_9
REMARK    5  A    between atoms: C_12  and  C_13
REMARK    6  A    between atoms: C_13  and  C_15
REMARK                            x       y       z     vdW  Elec       q    Type
REMARK                         _______ _______ _______ _____ _____    ______ ____
ROOT
ATOM      1  C   UNL     1      -4.194  10.834  17.636  0.00  0.00    +0.000 C 
ATOM      2  C   UNL     1      -3.022  11.071  18.265  0.00  0.00    +0.000 A 
ATOM      3  S   UNL     1      -2.894  12.175  19.607  0.00  0.00    +0.000 S 
ATOM      4  C   UNL     1      -1.218  11.912  19.728  0.00  0.00    +0.000 A 
ATOM      5  C   UNL     1      -0.254  12.427  20.532  0.00  0.00    +0.000 A 
ATOM      6  C   UNL     1       0.928  11.779  20.140  0.00  0.00    +0.000 A 
ATOM      7  C   UNL     1       0.656  10.911  19.075  0.00  0.00    +0.000 A 
ATOM      8  N   UNL     1      -0.724  11.008  18.830  0.00  0.00    +0.000 N 
ATOM      9  C   UNL     1      -1.663  10.473  17.921  0.00  0.00    +0.000 A 
ATOM     10  O   UNL     1      -1.366   9.711  17.023  0.00  0.00    +0.000 OA
ENDROOT
BRANCH   1  12
ATOM     11  C   UNL     1      -5.951  12.591  17.215  0.00  0.00    +0.000 C 
ATOM     12  N   UNL     1      -5.499  11.346  17.844  0.00  0.00    +0.000 N 
ATOM     13  C   UNL     1      -6.509  10.722  18.709  0.00  0.00    +0.000 C 
ENDBRANCH   1  12
BRANCH   5  14
ATOM     14  C   UNL     1      -0.448  13.406  21.545  0.00  0.00    +0.000 C 
ATOM     15  N   UNL     1      -0.587  14.203  22.379  0.00  0.00    +0.000 NA
ENDBRANCH   5  14
BRANCH   7  16
ATOM     16  C   UNL     1       1.634  10.034  18.436  0.00  0.00    +0.000 C 
ATOM     17  O   UNL     1       2.260  10.334  17.427  0.00  0.00    +0.000 OA
BRANCH  16  18
ATOM     18  C   UNL     1       1.787   8.632  18.977  0.00  0.00    +0.000 A 
ATOM     19  C   UNL     1       2.358   7.602  18.210  0.00  0.00    +0.000 A 
ATOM     20  C   UNL     1       2.531   6.322  18.752  0.00  0.00    +0.000 A 
ATOM     21  C   UNL     1       2.112   6.058  20.054  0.00  0.00    +0.000 A 
ATOM     22 BR   UNL     1       2.319   4.320  20.772  0.00  0.00    +0.000 Br
ATOM     23  C   UNL     1       1.533   7.065  20.824  0.00  0.00    +0.000 A 
ATOM     24  C   UNL     1       1.368   8.350  20.285  0.00  0.00    +0.000 A 
ENDBRANCH  16  18
ENDBRANCH   7  16
TORSDOF 4
ENDMDL
MODEL 5
REMARK VINA RESULT:      -6.4      5.004      7.678
REMARK  Name = 
REMARK  6 active torsions:
REMARK  status: ('A' for Active; 'I' for Inactive)
REMARK    1  A    between atoms: C_1  and  N_2
REMARK    2  A    between atoms: N_2  and  C_3
REMARK    3  A    between atoms: N_2  and  C_4
REMARK    4  A    between atoms: C_8  and  C_9
REMARK    5  A    between atoms: C_12  and  C_13
REMARK    6  A    between atoms: C_13  and  C_15
REMARK                            x       y       z     vdW  Elec       q    Type
REMARK                         _______ _______ _______ _____ _____    ______ ____
ROOT
ATOM      1  C   UNL     1       2.155   8.731  18.096  0.00  0.00    +0.000 C 
ATOM      2  C   UNL     1       2.684   7.549  18.482  0.00  0.00    +0.000 A 
ATOM      3  S   UNL     1       1.861   6.479  19.586  0.00  0.00    +0.000 S 
ATOM      4  C   UNL     1       3.149   5.368  19.545  0.00  0.00    +0.000 A 
ATOM      5  C   UNL     1       3.378   4.190  20.179  0.00  0.00    +0.000 A 
ATOM      6  C   UNL     1       4.621   3.755  19.695  0.00  0.00    +0.000 A 
ATOM      7  C   UNL     1       5.138   4.706  18.806  0.00  0.00    +0.000 A 
ATOM      8  N   UNL     1       4.177   5.728  18.721  0.00  0.00    +0.000 N 
ATOM      9  C   UNL     1       4.034   6.974  18.072  0.00  0.00    +0.000 A 
ATOM     10  O   UNL     1       4.891   7.461  17.362  0.00  0.00    +0.000 OA
ENDROOT
BRANCH   1  12
ATOM     11  C   UNL     1       0.751  10.059  19.714  0.00  0.00    +0.000 C 
ATOM     12  N   UNL     1       0.939   9.376  18.430  0.00  0.00    +0.000 N 
ATOM     13  C   UNL     1      -0.249   9.411  17.565  0.00  0.00    +0.000 C 
ENDBRANCH   1  12
BRANCH   5  14
ATOM     14  C   UNL     1       2.510   3.566  21.117  0.00  0.00    +0.000 C 
ATOM     15  N   UNL     1       1.812   3.038  21.881  0.00  0.00    +0.000 NA
ENDBRANCH   5  14
BRANCH   7  16
ATOM     16  C   UNL     1       6.393   4.572  18.071  0.00  0.00    +0.000 C 
ATOM     17  O   UNL     1       7.497   4.748  18.571  0.00  0.00    +0.000 OA
BRANCH  16  18
ATOM     18  C   UNL     1       6.318   4.331  16.581  0.00  0.00    +0.000 A 
ATOM     19  C   UNL     1       5.269   3.597  16.003  0.00  0.00    +0.000 A 
ATOM     20  C   UNL     1       5.199   3.428  14.613  0.00  0.00    +0.000 A 
ATOM     21  C   UNL     1       6.189   3.971  13.798  0.00  0.00    +0.000 A 
ATOM     22 BR   UNL     1       6.108   3.715  11.926  0.00  0.00    +0.000 Br
ATOM     23  C   UNL     1       7.243   4.692  14.357  0.00  0.00    +0.000 A 
ATOM     24  C   UNL     1       7.309   4.870  15.747  0.00  0.00    +0.000 A 
ENDBRANCH  16  18
ENDBRANCH   7  16
TORSDOF 4
ENDMDL
MODEL 6
REMARK VINA RESULT:      -6.3      1.593      4.087
REMARK  Name = 
REMARK  6 active torsions:
REMARK  status: ('A' for Active; 'I' for Inactive)
REMARK    1  A    between atoms: C_1  and  N_2
REMARK    2  A    between atoms: N_2  and  C_3
REMARK    3  A    between atoms: N_2  and  C_4
REMARK    4  A    between atoms: C_8  and  C_9
REMARK    5  A    between atoms: C_12  and  C_13
REMARK    6  A    between atoms: C_13  and  C_15
REMARK                            x       y       z     vdW  Elec       q    Type
REMARK                         _______ _______ _______ _____ _____    ______ ____
ROOT
ATOM      1  C   UNL     1      -1.014  13.828  22.590  0.00  0.00    +0.000 C 
ATOM      2  C   UNL     1      -1.072  13.052  21.486  0.00  0.00    +0.000 A 
ATOM      3  S   UNL     1      -2.544  12.839  20.576  0.00  0.00    +0.000 S 
ATOM      4  C   UNL     1      -1.778  11.776  19.492  0.00  0.00    +0.000 A 
ATOM      5  C   UNL     1      -2.218  11.066  18.423  0.00  0.00    +0.000 A 
ATOM      6  C   UNL     1      -1.082  10.396  17.941  0.00  0.00    +0.000 A 
ATOM      7  C   UNL     1       0.017  10.687  18.760  0.00  0.00    +0.000 A 
ATOM      8  N   UNL     1      -0.450  11.576  19.743  0.00  0.00    +0.000 N 
ATOM      9  C   UNL     1       0.065  12.239  20.879  0.00  0.00    +0.000 A 
ATOM     10  O   UNL     1       1.207  12.108  21.269  0.00  0.00    +0.000 OA
ENDROOT
BRANCH   1  12
ATOM     11  C   UNL     1      -2.935  13.995  24.213  0.00  0.00    +0.000 C 
ATOM     12  N   UNL     1      -1.998  14.597  23.258  0.00  0.00    +0.000 N 
ATOM     13  C   UNL     1      -2.206  16.038  23.057  0.00  0.00    +0.000 C 
ENDBRANCH   1  12
BRANCH   5  14
ATOM     14  C   UNL     1      -3.551  11.042  17.929  0.00  0.00    +0.000 C 
ATOM     15  N   UNL     1      -4.641  11.044  17.525  0.00  0.00    +0.000 NA
ENDBRANCH   5  14
BRANCH   7  16
ATOM     16  C   UNL     1       1.377  10.205  18.540  0.00  0.00    +0.000 C 
ATOM     17  O   UNL     1       2.243  10.852  17.962  0.00  0.00    +0.000 OA
BRANCH  16  18
ATOM     18  C   UNL     1       1.697   8.782  18.932  0.00  0.00    +0.000 A 
ATOM     19  C   UNL     1       2.282   7.879  18.028  0.00  0.00    +0.000 A 
ATOM     20  C   UNL     1       2.612   6.578  18.431  0.00  0.00    +0.000 A 
ATOM     21  C   UNL     1       2.336   6.166  19.733  0.00  0.00    +0.000 A 
ATOM     22 BR   UNL     1       2.754   4.400  20.266  0.00  0.00    +0.000 Br
ATOM     23  C   UNL     1       1.745   7.045  20.639  0.00  0.00    +0.000 A 
ATOM     24  C   UNL     1       1.424   8.351  20.238  0.00  0.00    +0.000 A 
ENDBRANCH  16  18
ENDBRANCH   7  16
TORSDOF 4
ENDMDL
MODEL 7
REMARK VINA RESULT:      -6.3      2.395      3.994
REMARK  Name = 
REMARK  6 active torsions:
REMARK  status: ('A' for Active; 'I' for Inactive)
REMARK    1  A    between atoms: C_1  and  N_2
REMARK    2  A    between atoms: N_2  and  C_3
REMARK    3  A    between atoms: N_2  and  C_4
REMARK    4  A    between atoms: C_8  and  C_9
REMARK    5  A    between atoms: C_12  and  C_13
REMARK    6  A    between atoms: C_13  and  C_15
REMARK                            x       y       z     vdW  Elec       q    Type
REMARK                         _______ _______ _______ _____ _____    ______ ____
ROOT
ATOM      1  C   UNL     1      -2.836  13.165  23.117  0.00  0.00    +0.000 C 
ATOM      2  C   UNL     1      -2.574  12.751  21.858  0.00  0.00    +0.000 A 
ATOM      3  S   UNL     1      -3.817  12.626  20.643  0.00  0.00    +0.000 S 
ATOM      4  C   UNL     1      -2.705  12.043  19.496  0.00  0.00    +0.000 A 
ATOM      5  C   UNL     1      -2.830  11.630  18.209  0.00  0.00    +0.000 A 
ATOM      6  C   UNL     1      -1.528  11.289  17.810  0.00  0.00    +0.000 A 
ATOM      7  C   UNL     1      -0.647  11.466  18.884  0.00  0.00    +0.000 A 
ATOM      8  N   UNL     1      -1.420  11.953  19.952  0.00  0.00    +0.000 N 
ATOM      9  C   UNL     1      -1.224  12.312  21.304  0.00  0.00    +0.000 A 
ATOM     10  O   UNL     1      -0.155  12.222  21.871  0.00  0.00    +0.000 OA
ENDROOT
BRANCH   1  12
ATOM     11  C   UNL     1      -4.904  12.607  24.447  0.00  0.00    +0.000 C 
ATOM     12  N   UNL     1      -4.040  13.565  23.749  0.00  0.00    +0.000 N 
ATOM     13  C   UNL     1      -4.560  14.940  23.754  0.00  0.00    +0.000 C 
ENDBRANCH   1  12
BRANCH   5  14
ATOM     14  C   UNL     1      -4.040  11.579  17.464  0.00  0.00    +0.000 C 
ATOM     15  N   UNL     1      -5.034  11.520  16.866  0.00  0.00    +0.000 NA
ENDBRANCH   5  14
BRANCH   7  16
ATOM     16  C   UNL     1       0.797  11.254  18.828  0.00  0.00    +0.000 C 
ATOM     17  O   UNL     1       1.600  12.122  18.508  0.00  0.00    +0.000 OA
BRANCH  16  18
ATOM     18  C   UNL     1       1.317   9.854  19.052  0.00  0.00    +0.000 A 
ATOM     19  C   UNL     1       1.145   9.188  20.278  0.00  0.00    +0.000 A 
ATOM     20  C   UNL     1       1.596   7.872  20.444  0.00  0.00    +0.000 A 
ATOM     21  C   UNL     1       2.241   7.223  19.394  0.00  0.00    +0.000 A 
ATOM     22 BR   UNL     1       2.875   5.457  19.631  0.00  0.00    +0.000 Br
ATOM     23  C   UNL     1       2.429   7.872  18.175  0.00  0.00    +0.000 A 
ATOM     24  C   UNL     1       1.970   9.187  18.005  0.00  0.00    +0.000 A 
ENDBRANCH  16  18
ENDBRANCH   7  16
TORSDOF 4
ENDMDL
MODEL 8
REMARK VINA RESULT:      -6.2      2.753      4.110
REMARK  Name = 
REMARK  6 active torsions:
REMARK  status: ('A' for Active; 'I' for Inactive)
REMARK    1  A    between atoms: C_1  and  N_2
REMARK    2  A    between atoms: N_2  and  C_3
REMARK    3  A    between atoms: N_2  and  C_4
REMARK    4  A    between atoms: C_8  and  C_9
REMARK    5  A    between atoms: C_12  and  C_13
REMARK    6  A    between atoms: C_13  and  C_15
REMARK                            x       y       z     vdW  Elec       q    Type
REMARK                         _______ _______ _______ _____ _____    ______ ____
ROOT
ATOM      1  C   UNL     1      -3.668  13.302  23.046  0.00  0.00    +0.000 C 
ATOM      2  C   UNL     1      -3.172  12.837  21.878  0.00  0.00    +0.000 A 
ATOM      3  S   UNL     1      -4.158  12.671  20.450  0.00  0.00    +0.000 S 
ATOM      4  C   UNL     1      -2.852  12.037  19.563  0.00  0.00    +0.000 A 
ATOM      5  C   UNL     1      -2.731  11.575  18.293  0.00  0.00    +0.000 A 
ATOM      6  C   UNL     1      -1.381  11.212  18.168  0.00  0.00    +0.000 A 
ATOM      7  C   UNL     1      -0.722  11.426  19.385  0.00  0.00    +0.000 A 
ATOM      8  N   UNL     1      -1.681  11.959  20.263  0.00  0.00    +0.000 N 
ATOM      9  C   UNL     1      -1.746  12.369  21.613  0.00  0.00    +0.000 A 
ATOM     10  O   UNL     1      -0.808  12.297  22.380  0.00  0.00    +0.000 OA
ENDROOT
BRANCH   1  12
ATOM     11  C   UNL     1      -5.966  12.804  23.952  0.00  0.00    +0.000 C 
ATOM     12  N   UNL     1      -4.965  13.732  23.417  0.00  0.00    +0.000 N 
ATOM     13  C   UNL     1      -5.453  15.113  23.286  0.00  0.00    +0.000 C 
ENDBRANCH   1  12
BRANCH   5  14
ATOM     14  C   UNL     1      -3.775  11.501  17.330  0.00  0.00    +0.000 C 
ATOM     15  N   UNL     1      -4.637  11.457  16.552  0.00  0.00    +0.000 NA
ENDBRANCH   5  14
BRANCH   7  16
ATOM     16  C   UNL     1       0.702  11.205  19.618  0.00  0.00    +0.000 C 
ATOM     17  O   UNL     1       1.479  12.085  19.970  0.00  0.00    +0.000 OA
BRANCH  16  18
ATOM     18  C   UNL     1       1.273   9.847  19.281  0.00  0.00    +0.000 A 
ATOM     19  C   UNL     1       1.769   9.551  18.000  0.00  0.00    +0.000 A 
ATOM     20  C   UNL     1       2.336   8.299  17.727  0.00  0.00    +0.000 A 
ATOM     21  C   UNL     1       2.388   7.329  18.726  0.00  0.00    +0.000 A 
ATOM     22 BR   UNL     1       3.126   5.630  18.346  0.00  0.00    +0.000 Br
ATOM     23  C   UNL     1       1.889   7.603  19.999  0.00  0.00    +0.000 A 
ATOM     24  C   UNL     1       1.330   8.860  20.275  0.00  0.00    +0.000 A 
ENDBRANCH  16  18
ENDBRANCH   7  16
TORSDOF 4
ENDMDL
MODEL 9
REMARK VINA RESULT:      -6.1      4.317      7.854
REMARK  Name = 
REMARK  6 active torsions:
REMARK  status: ('A' for Active; 'I' for Inactive)
REMARK    1  A    between atoms: C_1  and  N_2
REMARK    2  A    between atoms: N_2  and  C_3
REMARK    3  A    between atoms: N_2  and  C_4
REMARK    4  A    between atoms: C_8  and  C_9
REMARK    5  A    between atoms: C_12  and  C_13
REMARK    6  A    between atoms: C_13  and  C_15
REMARK                            x       y       z     vdW  Elec       q    Type
REMARK                         _______ _______ _______ _____ _____    ______ ____
ROOT
ATOM      1  C   UNL     1       4.850   6.839  16.406  0.00  0.00    +0.000 C 
ATOM      2  C   UNL     1       4.011   6.865  17.465  0.00  0.00    +0.000 A 
ATOM      3  S   UNL     1       3.739   5.467  18.470  0.00  0.00    +0.000 S 
ATOM      4  C   UNL     1       2.618   6.315  19.429  0.00  0.00    +0.000 A 
ATOM      5  C   UNL     1       1.844   5.958  20.486  0.00  0.00    +0.000 A 
ATOM      6  C   UNL     1       1.154   7.127  20.840  0.00  0.00    +0.000 A 
ATOM      7  C   UNL     1       1.497   8.160  19.958  0.00  0.00    +0.000 A 
ATOM      8  N   UNL     1       2.439   7.620  19.066  0.00  0.00    +0.000 N 
ATOM      9  C   UNL     1       3.170   8.046  17.935  0.00  0.00    +0.000 A 
ATOM     10  O   UNL     1       3.067   9.155  17.452  0.00  0.00    +0.000 OA
ENDROOT
BRANCH   1  12
ATOM     11  C   UNL     1       5.189   4.973  14.746  0.00  0.00    +0.000 C 
ATOM     12  N   UNL     1       5.651   5.806  15.861  0.00  0.00    +0.000 N 
ATOM     13  C   UNL     1       6.987   5.442  16.354  0.00  0.00    +0.000 C 
ENDBRANCH   1  12
BRANCH   5  14
ATOM     14  C   UNL     1       1.786   4.666  21.077  0.00  0.00    +0.000 C 
ATOM     15  N   UNL     1       1.717   3.611  21.559  0.00  0.00    +0.000 NA
ENDBRANCH   5  14
BRANCH   7  16
ATOM     16  C   UNL     1       1.010   9.534  20.045  0.00  0.00    +0.000 C 
ATOM     17  O   UNL     1       1.420  10.350  20.861  0.00  0.00    +0.000 OA
BRANCH  16  18
ATOM     18  C   UNL     1      -0.153   9.930  19.167  0.00  0.00    +0.000 A 
ATOM     19  C   UNL     1      -0.328   9.388  17.882  0.00  0.00    +0.000 A 
ATOM     20  C   UNL     1      -1.441   9.737  17.106  0.00  0.00    +0.000 A 
ATOM     21  C   UNL     1      -2.371  10.649  17.600  0.00  0.00    +0.000 A 
ATOM     22 BR   UNL     1      -3.857  11.141  16.538  0.00  0.00    +0.000 Br
ATOM     23  C   UNL     1      -2.207  11.205  18.868  0.00  0.00    +0.000 A 
ATOM     24  C   UNL     1      -1.098  10.849  19.649  0.00  0.00    +0.000 A 
ENDBRANCH  16  18
ENDBRANCH   7  16
TORSDOF 4
ENDMDL
