MODEL 1
REMARK VINA RESULT:      -9.0      0.000      0.000
REMARK  Name = 
REMARK  8 active torsions:
REMARK  status: ('A' for Active; 'I' for Inactive)
REMARK    1  A    between atoms: C_1  and  O_2
REMARK    2  A    between atoms: O_2  and  C_3
REMARK    3  A    between atoms: C_8  and  C_9
REMARK    4  A    between atoms: C_12  and  C_13
REMARK    5  A    between atoms: N_15  and  C_16
REMARK    6  A    between atoms: C_16  and  C_17
REMARK    7  A    between atoms: C_17  and  C_18
REMARK    8  A    between atoms: C_19  and  C_20
REMARK                            x       y       z     vdW  Elec       q    Type
REMARK                         _______ _______ _______ _____ _____    ______ ____
ROOT
ATOM      1  C   UNL     1       7.303   7.260  17.248  0.00  0.00    +0.000 C 
ATOM      2  O   UNL     1       8.047   6.861  16.358  0.00  0.00    +0.000 OA
ATOM      3  N   UNL     1       7.491   8.452  17.919  0.00  0.00    +0.000 N 
ATOM      4  H   UNL     1       6.864   8.748  18.634  0.00  0.00    +0.000 HD
ENDROOT
BRANCH   1   8
ATOM      5  C   UNL     1       3.792   4.943  18.448  0.00  0.00    +0.000 A 
ATOM      6  C   UNL     1       3.692   6.086  17.634  0.00  0.00    +0.000 A 
ATOM      7  C   UNL     1       4.820   6.843  17.250  0.00  0.00    +0.000 A 
ATOM      8  C   UNL     1       6.107   6.440  17.654  0.00  0.00    +0.000 A 
ATOM      9  C   UNL     1       6.237   5.281  18.414  0.00  0.00    +0.000 A 
ATOM     10  C   UNL     1       5.106   4.570  18.806  0.00  0.00    +0.000 A 
ATOM     11  F   UNL     1       5.312   3.489  19.575  0.00  0.00    +0.000 F 
BRANCH   5  17
ATOM     12  C   UNL     1       1.886   4.410  20.101  0.00  0.00    +0.000 A 
ATOM     13  C   UNL     1       0.799   3.593  20.461  0.00  0.00    +0.000 A 
ATOM     14  C   UNL     1       0.417   2.497  19.690  0.00  0.00    +0.000 A 
ATOM     15  C   UNL     1       1.104   2.229  18.522  0.00  0.00    +0.000 A 
ATOM     16  C   UNL     1       2.155   3.061  18.124  0.00  0.00    +0.000 A 
ATOM     17  C   UNL     1       2.598   4.163  18.902  0.00  0.00    +0.000 A 
BRANCH  12  19
ATOM     18  C   UNL     1       1.512   6.664  20.733  0.00  0.00    +0.000 C 
ATOM     19  O   UNL     1       2.280   5.472  20.880  0.00  0.00    +0.000 OA
ENDBRANCH  12  19
ENDBRANCH   5  17
ENDBRANCH   1   8
BRANCH   3  20
ATOM     20  C   UNL     1       8.662   9.293  17.747  0.00  0.00    +0.000 C 
BRANCH  20  21
ATOM     21  C   UNL     1       8.990  10.234  18.881  0.00  0.00    +0.000 C 
BRANCH  21  22
ATOM     22  C   UNL     1       9.351  11.686  18.747  0.00  0.00    +0.000 A 
ATOM     23  C   UNL     1       9.262  12.457  19.912  0.00  0.00    +0.000 A 
ATOM     24  C   UNL     1      10.348  12.398  20.969  0.00  0.00    +0.000 C 
ATOM     25  N   UNL     1       8.822  13.656  19.386  0.00  0.00    +0.000 N 
ATOM     26  C   UNL     1       9.749  13.896  18.387  0.00  0.00    +0.000 A 
ATOM     27  C   UNL     1      10.252  15.114  17.929  0.00  0.00    +0.000 A 
ATOM     28  C   UNL     1      11.448  15.038  17.228  0.00  0.00    +0.000 A 
ATOM     29  C   UNL     1      12.003  13.798  16.900  0.00  0.00    +0.000 A 
ATOM     30  C   UNL     1      11.353  12.577  17.206  0.00  0.00    +0.000 A 
ATOM     31  C   UNL     1      10.196  12.610  18.010  0.00  0.00    +0.000 A 
ATOM     32  H   UNL     1       7.849  13.898  19.263  0.00  0.00    +0.000 HD
ENDBRANCH  21  22
ENDBRANCH  20  21
ENDBRANCH   3  20
TORSDOF 6
ENDMDL
MODEL 2
REMARK VINA RESULT:      -8.9      2.826     10.739
REMARK  Name = 
REMARK  8 active torsions:
REMARK  status: ('A' for Active; 'I' for Inactive)
REMARK    1  A    between atoms: C_1  and  O_2
REMARK    2  A    between atoms: O_2  and  C_3
REMARK    3  A    between atoms: C_8  and  C_9
REMARK    4  A    between atoms: C_12  and  C_13
REMARK    5  A    between atoms: N_15  and  C_16
REMARK    6  A    between atoms: C_16  and  C_17
REMARK    7  A    between atoms: C_17  and  C_18
REMARK    8  A    between atoms: C_19  and  C_20
REMARK                            x       y       z     vdW  Elec       q    Type
REMARK                         _______ _______ _______ _____ _____    ______ ____
ROOT
ATOM      1  C   UNL     1       8.018   8.278  17.947  0.00  0.00    +0.000 C 
ATOM      2  O   UNL     1       7.331   8.140  16.941  0.00  0.00    +0.000 OA
ATOM      3  N   UNL     1       8.360   7.235  18.783  0.00  0.00    +0.000 N 
ATOM      4  H   UNL     1       8.925   7.383  19.591  0.00  0.00    +0.000 HD
ENDROOT
BRANCH   1   8
ATOM      5  C   UNL     1       9.558  12.248  18.954  0.00  0.00    +0.000 A 
ATOM      6  C   UNL     1       8.669  12.039  17.884  0.00  0.00    +0.000 A 
ATOM      7  C   UNL     1       8.174  10.759  17.548  0.00  0.00    +0.000 A 
ATOM      8  C   UNL     1       8.542   9.640  18.319  0.00  0.00    +0.000 A 
ATOM      9  C   UNL     1       9.378   9.829  19.416  0.00  0.00    +0.000 A 
ATOM     10  C   UNL     1       9.877  11.096  19.707  0.00  0.00    +0.000 A 
ATOM     11  F   UNL     1      10.712  11.188  20.754  0.00  0.00    +0.000 F 
BRANCH   5  17
ATOM     12  C   UNL     1      10.866  14.396  18.385  0.00  0.00    +0.000 A 
ATOM     13  C   UNL     1      11.396  15.629  18.806  0.00  0.00    +0.000 A 
ATOM     14  C   UNL     1      11.259  16.077  20.118  0.00  0.00    +0.000 A 
ATOM     15  C   UNL     1      10.551  15.304  21.019  0.00  0.00    +0.000 A 
ATOM     16  C   UNL     1       9.976  14.099  20.603  0.00  0.00    +0.000 A 
ATOM     17  C   UNL     1      10.127  13.591  19.285  0.00  0.00    +0.000 A 
BRANCH  12  19
ATOM     18  C   UNL     1      12.332  13.462  16.773  0.00  0.00    +0.000 C 
ATOM     19  O   UNL     1      11.030  13.942  17.098  0.00  0.00    +0.000 OA
ENDBRANCH  12  19
ENDBRANCH   5  17
ENDBRANCH   1   8
BRANCH   3  20
ATOM     20  C   UNL     1       7.831   5.891  18.646  0.00  0.00    +0.000 C 
BRANCH  20  21
ATOM     21  C   UNL     1       6.579   5.574  19.430  0.00  0.00    +0.000 C 
BRANCH  21  22
ATOM     22  C   UNL     1       5.231   5.253  18.849  0.00  0.00    +0.000 A 
ATOM     23  C   UNL     1       4.950   5.806  17.594  0.00  0.00    +0.000 A 
ATOM     24  C   UNL     1       5.518   5.193  16.329  0.00  0.00    +0.000 C 
ATOM     25  N   UNL     1       3.601   6.068  17.733  0.00  0.00    +0.000 N 
ATOM     26  C   UNL     1       3.105   4.846  18.153  0.00  0.00    +0.000 A 
ATOM     27  C   UNL     1       1.866   4.262  17.885  0.00  0.00    +0.000 A 
ATOM     28  C   UNL     1       1.803   2.889  18.077  0.00  0.00    +0.000 A 
ATOM     29  C   UNL     1       2.882   2.197  18.637  0.00  0.00    +0.000 A 
ATOM     30  C   UNL     1       4.050   2.860  19.086  0.00  0.00    +0.000 A 
ATOM     31  C   UNL     1       4.196   4.234  18.810  0.00  0.00    +0.000 A 
ATOM     32  H   UNL     1       3.226   6.934  18.095  0.00  0.00    +0.000 HD
ENDBRANCH  21  22
ENDBRANCH  20  21
ENDBRANCH   3  20
TORSDOF 6
ENDMDL
MODEL 3
REMARK VINA RESULT:      -8.8      4.845      8.945
REMARK  Name = 
REMARK  8 active torsions:
REMARK  status: ('A' for Active; 'I' for Inactive)
REMARK    1  A    between atoms: C_1  and  O_2
REMARK    2  A    between atoms: O_2  and  C_3
REMARK    3  A    between atoms: C_8  and  C_9
REMARK    4  A    between atoms: C_12  and  C_13
REMARK    5  A    between atoms: N_15  and  C_16
REMARK    6  A    between atoms: C_16  and  C_17
REMARK    7  A    between atoms: C_17  and  C_18
REMARK    8  A    between atoms: C_19  and  C_20
REMARK                            x       y       z     vdW  Elec       q    Type
REMARK                         _______ _______ _______ _____ _____    ______ ____
ROOT
ATOM      1  C   UNL     1       1.493   7.600  20.439  0.00  0.00    +0.000 C 
ATOM      2  O   UNL     1       0.979   6.861  21.271  0.00  0.00    +0.000 OA
ATOM      3  N   UNL     1       1.209   8.947  20.339  0.00  0.00    +0.000 N 
ATOM      4  H   UNL     1       1.650   9.520  19.653  0.00  0.00    +0.000 HD
ENDROOT
BRANCH   1   8
ATOM      5  C   UNL     1       4.358   6.013  17.538  0.00  0.00    +0.000 A 
ATOM      6  C   UNL     1       3.697   7.239  17.343  0.00  0.00    +0.000 A 
ATOM      7  C   UNL     1       2.766   7.754  18.271  0.00  0.00    +0.000 A 
ATOM      8  C   UNL     1       2.496   7.049  19.460  0.00  0.00    +0.000 A 
ATOM      9  C   UNL     1       3.178   5.859  19.701  0.00  0.00    +0.000 A 
ATOM     10  C   UNL     1       4.068   5.358  18.755  0.00  0.00    +0.000 A 
ATOM     11  F   UNL     1       4.651   4.183  19.042  0.00  0.00    +0.000 F 
BRANCH   5  17
ATOM     12  C   UNL     1       6.717   5.558  16.601  0.00  0.00    +0.000 A 
ATOM     13  C   UNL     1       7.523   5.012  15.587  0.00  0.00    +0.000 A 
ATOM     14  C   UNL     1       6.975   4.381  14.472  0.00  0.00    +0.000 A 
ATOM     15  C   UNL     1       5.602   4.258  14.380  0.00  0.00    +0.000 A 
ATOM     16  C   UNL     1       4.788   4.751  15.405  0.00  0.00    +0.000 A 
ATOM     17  C   UNL     1       5.308   5.434  16.537  0.00  0.00    +0.000 A 
BRANCH  12  19
ATOM     18  C   UNL     1       7.609   7.572  17.476  0.00  0.00    +0.000 C 
ATOM     19  O   UNL     1       7.260   6.206  17.684  0.00  0.00    +0.000 OA
ENDBRANCH  12  19
ENDBRANCH   5  17
ENDBRANCH   1   8
BRANCH   3  20
ATOM     20  C   UNL     1       0.172   9.607  21.111  0.00  0.00    +0.000 C 
BRANCH  20  21
ATOM     21  C   UNL     1      -0.249  10.979  20.641  0.00  0.00    +0.000 C 
BRANCH  21  22
ATOM     22  C   UNL     1      -1.313  11.276  19.622  0.00  0.00    +0.000 A 
ATOM     23  C   UNL     1      -1.579  12.629  19.380  0.00  0.00    +0.000 A 
ATOM     24  C   UNL     1      -0.661  13.457  18.502  0.00  0.00    +0.000 C 
ATOM     25  N   UNL     1      -2.943  12.581  19.167  0.00  0.00    +0.000 N 
ATOM     26  C   UNL     1      -3.055  11.600  18.198  0.00  0.00    +0.000 A 
ATOM     27  C   UNL     1      -3.974  11.499  17.153  0.00  0.00    +0.000 A 
ATOM     28  C   UNL     1      -3.600  10.661  16.111  0.00  0.00    +0.000 A 
ATOM     29  C   UNL     1      -2.445   9.878  16.206  0.00  0.00    +0.000 A 
ATOM     30  C   UNL     1      -1.644   9.857  17.375  0.00  0.00    +0.000 A 
ATOM     31  C   UNL     1      -1.929  10.772  18.407  0.00  0.00    +0.000 A 
ATOM     32  H   UNL     1      -3.634  12.672  19.899  0.00  0.00    +0.000 HD
ENDBRANCH  21  22
ENDBRANCH  20  21
ENDBRANCH   3  20
TORSDOF 6
ENDMDL
MODEL 4
REMARK VINA RESULT:      -8.8      1.163      1.979
REMARK  Name = 
REMARK  8 active torsions:
REMARK  status: ('A' for Active; 'I' for Inactive)
REMARK    1  A    between atoms: C_1  and  O_2
REMARK    2  A    between atoms: O_2  and  C_3
REMARK    3  A    between atoms: C_8  and  C_9
REMARK    4  A    between atoms: C_12  and  C_13
REMARK    5  A    between atoms: N_15  and  C_16
REMARK    6  A    between atoms: C_16  and  C_17
REMARK    7  A    between atoms: C_17  and  C_18
REMARK    8  A    between atoms: C_19  and  C_20
REMARK                            x       y       z     vdW  Elec       q    Type
REMARK                         _______ _______ _______ _____ _____    ______ ____
ROOT
ATOM      1  C   UNL     1       7.230   7.418  17.279  0.00  0.00    +0.000 C 
ATOM      2  O   UNL     1       8.033   7.013  16.445  0.00  0.00    +0.000 OA
ATOM      3  N   UNL     1       7.331   8.647  17.898  0.00  0.00    +0.000 N 
ATOM      4  H   UNL     1       6.657   8.946  18.569  0.00  0.00    +0.000 HD
ENDROOT
BRANCH   1   8
ATOM      5  C   UNL     1       3.780   4.990  18.438  0.00  0.00    +0.000 A 
ATOM      6  C   UNL     1       3.658   6.110  17.595  0.00  0.00    +0.000 A 
ATOM      7  C   UNL     1       4.766   6.902  17.224  0.00  0.00    +0.000 A 
ATOM      8  C   UNL     1       6.057   6.560  17.672  0.00  0.00    +0.000 A 
ATOM      9  C   UNL     1       6.210   5.424  18.463  0.00  0.00    +0.000 A 
ATOM     10  C   UNL     1       5.097   4.678  18.841  0.00  0.00    +0.000 A 
ATOM     11  F   UNL     1       5.324   3.623  19.640  0.00  0.00    +0.000 F 
BRANCH   5  17
ATOM     12  C   UNL     1       1.895   4.375  20.086  0.00  0.00    +0.000 A 
ATOM     13  C   UNL     1       0.827   3.526  20.431  0.00  0.00    +0.000 A 
ATOM     14  C   UNL     1       0.465   2.442  19.635  0.00  0.00    +0.000 A 
ATOM     15  C   UNL     1       1.150   2.218  18.456  0.00  0.00    +0.000 A 
ATOM     16  C   UNL     1       2.182   3.082  18.074  0.00  0.00    +0.000 A 
ATOM     17  C   UNL     1       2.605   4.174  18.879  0.00  0.00    +0.000 A 
BRANCH  12  19
ATOM     18  C   UNL     1       1.521   6.626  20.727  0.00  0.00    +0.000 C 
ATOM     19  O   UNL     1       2.270   5.425  20.890  0.00  0.00    +0.000 OA
ENDBRANCH  12  19
ENDBRANCH   5  17
ENDBRANCH   1   8
BRANCH   3  20
ATOM     20  C   UNL     1       8.467   9.535  17.736  0.00  0.00    +0.000 C 
BRANCH  20  21
ATOM     21  C   UNL     1       9.162   9.981  19.001  0.00  0.00    +0.000 C 
BRANCH  21  22
ATOM     22  C   UNL     1       9.683  11.361  19.283  0.00  0.00    +0.000 A 
ATOM     23  C   UNL     1       9.738  12.238  18.192  0.00  0.00    +0.000 A 
ATOM     24  C   UNL     1       8.488  12.932  17.688  0.00  0.00    +0.000 C 
ATOM     25  N   UNL     1      10.890  12.939  18.493  0.00  0.00    +0.000 N 
ATOM     26  C   UNL     1      10.650  13.356  19.790  0.00  0.00    +0.000 A 
ATOM     27  C   UNL     1      11.055  14.532  20.423  0.00  0.00    +0.000 A 
ATOM     28  C   UNL     1      10.335  14.873  21.561  0.00  0.00    +0.000 A 
ATOM     29  C   UNL     1       9.376  14.000  22.084  0.00  0.00    +0.000 A 
ATOM     30  C   UNL     1       9.137  12.720  21.526  0.00  0.00    +0.000 A 
ATOM     31  C   UNL     1       9.768  12.384  20.312  0.00  0.00    +0.000 A 
ATOM     32  H   UNL     1      11.815  12.661  18.197  0.00  0.00    +0.000 HD
ENDBRANCH  21  22
ENDBRANCH  20  21
ENDBRANCH   3  20
TORSDOF 6
ENDMDL
MODEL 5
REMARK VINA RESULT:      -8.8      2.804     10.504
REMARK  Name = 
REMARK  8 active torsions:
REMARK  status: ('A' for Active; 'I' for Inactive)
REMARK    1  A    between atoms: C_1  and  O_2
REMARK    2  A    between atoms: O_2  and  C_3
REMARK    3  A    between atoms: C_8  and  C_9
REMARK    4  A    between atoms: C_12  and  C_13
REMARK    5  A    between atoms: N_15  and  C_16
REMARK    6  A    between atoms: C_16  and  C_17
REMARK    7  A    between atoms: C_17  and  C_18
REMARK    8  A    between atoms: C_19  and  C_20
REMARK                            x       y       z     vdW  Elec       q    Type
REMARK                         _______ _______ _______ _____ _____    ______ ____
ROOT
ATOM      1  C   UNL     1       7.864   7.934  18.066  0.00  0.00    +0.000 C 
ATOM      2  O   UNL     1       8.374   7.044  18.738  0.00  0.00    +0.000 OA
ATOM      3  N   UNL     1       6.838   7.717  17.170  0.00  0.00    +0.000 N 
ATOM      4  H   UNL     1       6.443   8.466  16.643  0.00  0.00    +0.000 HD
ENDROOT
BRANCH   1   8
ATOM      5  C   UNL     1       9.275  12.049  18.538  0.00  0.00    +0.000 A 
ATOM      6  C   UNL     1       9.805  10.985  19.290  0.00  0.00    +0.000 A 
ATOM      7  C   UNL     1       9.349   9.656  19.148  0.00  0.00    +0.000 A 
ATOM      8  C   UNL     1       8.352   9.352  18.202  0.00  0.00    +0.000 A 
ATOM      9  C   UNL     1       7.849  10.380  17.408  0.00  0.00    +0.000 A 
ATOM     10  C   UNL     1       8.293  11.687  17.589  0.00  0.00    +0.000 A 
ATOM     11  F   UNL     1       7.728  12.626  16.815  0.00  0.00    +0.000 F 
BRANCH   5  17
ATOM     12  C   UNL     1       9.086  14.403  19.574  0.00  0.00    +0.000 A 
ATOM     13  C   UNL     1       9.551  15.728  19.641  0.00  0.00    +0.000 A 
ATOM     14  C   UNL     1      10.601  16.179  18.844  0.00  0.00    +0.000 A 
ATOM     15  C   UNL     1      11.224  15.289  17.991  0.00  0.00    +0.000 A 
ATOM     16  C   UNL     1      10.806  13.954  17.949  0.00  0.00    +0.000 A 
ATOM     17  C   UNL     1       9.715  13.468  18.717  0.00  0.00    +0.000 A 
BRANCH  12  19
ATOM     18  C   UNL     1       7.993  14.460  21.677  0.00  0.00    +0.000 C 
ATOM     19  O   UNL     1       8.029  13.969  20.339  0.00  0.00    +0.000 OA
ENDBRANCH  12  19
ENDBRANCH   5  17
ENDBRANCH   1   8
BRANCH   3  20
ATOM     20  C   UNL     1       6.344   6.398  16.820  0.00  0.00    +0.000 C 
BRANCH  20  21
ATOM     21  C   UNL     1       4.846   6.246  16.704  0.00  0.00    +0.000 C 
BRANCH  21  22
ATOM     22  C   UNL     1       3.909   5.861  17.813  0.00  0.00    +0.000 A 
ATOM     23  C   UNL     1       3.336   6.915  18.535  0.00  0.00    +0.000 A 
ATOM     24  C   UNL     1       2.169   7.701  17.971  0.00  0.00    +0.000 C 
ATOM     25  N   UNL     1       3.297   6.361  19.799  0.00  0.00    +0.000 N 
ATOM     26  C   UNL     1       2.651   5.158  19.573  0.00  0.00    +0.000 A 
ATOM     27  C   UNL     1       1.782   4.456  20.409  0.00  0.00    +0.000 A 
ATOM     28  C   UNL     1       0.975   3.520  19.777  0.00  0.00    +0.000 A 
ATOM     29  C   UNL     1       1.152   3.227  18.421  0.00  0.00    +0.000 A 
ATOM     30  C   UNL     1       2.186   3.816  17.652  0.00  0.00    +0.000 A 
ATOM     31  C   UNL     1       2.953   4.848  18.228  0.00  0.00    +0.000 A 
ATOM     32  H   UNL     1       4.047   6.431  20.472  0.00  0.00    +0.000 HD
ENDBRANCH  21  22
ENDBRANCH  20  21
ENDBRANCH   3  20
TORSDOF 6
ENDMDL
MODEL 6
REMARK VINA RESULT:      -8.8      1.123      1.372
REMARK  Name = 
REMARK  8 active torsions:
REMARK  status: ('A' for Active; 'I' for Inactive)
REMARK    1  A    between atoms: C_1  and  O_2
REMARK    2  A    between atoms: O_2  and  C_3
REMARK    3  A    between atoms: C_8  and  C_9
REMARK    4  A    between atoms: C_12  and  C_13
REMARK    5  A    between atoms: N_15  and  C_16
REMARK    6  A    between atoms: C_16  and  C_17
REMARK    7  A    between atoms: C_17  and  C_18
REMARK    8  A    between atoms: C_19  and  C_20
REMARK                            x       y       z     vdW  Elec       q    Type
REMARK                         _______ _______ _______ _____ _____    ______ ____
ROOT
ATOM      1  C   UNL     1       7.289   7.520  17.288  0.00  0.00    +0.000 C 
ATOM      2  O   UNL     1       8.111   7.110  16.475  0.00  0.00    +0.000 OA
ATOM      3  N   UNL     1       7.367   8.759  17.890  0.00  0.00    +0.000 N 
ATOM      4  H   UNL     1       6.678   9.061  18.543  0.00  0.00    +0.000 HD
ENDROOT
BRANCH   1   8
ATOM      5  C   UNL     1       3.838   5.079  18.417  0.00  0.00    +0.000 A 
ATOM      6  C   UNL     1       3.712   6.226  17.613  0.00  0.00    +0.000 A 
ATOM      7  C   UNL     1       4.821   7.023  17.251  0.00  0.00    +0.000 A 
ATOM      8  C   UNL     1       6.115   6.658  17.669  0.00  0.00    +0.000 A 
ATOM      9  C   UNL     1       6.271   5.496  18.421  0.00  0.00    +0.000 A 
ATOM     10  C   UNL     1       5.158   4.746  18.791  0.00  0.00    +0.000 A 
ATOM     11  F   UNL     1       5.389   3.665  19.553  0.00  0.00    +0.000 F 
BRANCH   5  17
ATOM     12  C   UNL     1       1.940   4.457  20.049  0.00  0.00    +0.000 A 
ATOM     13  C   UNL     1       0.875   3.603  20.385  0.00  0.00    +0.000 A 
ATOM     14  C   UNL     1       0.526   2.515  19.588  0.00  0.00    +0.000 A 
ATOM     15  C   UNL     1       1.224   2.292  18.417  0.00  0.00    +0.000 A 
ATOM     16  C   UNL     1       2.255   3.162  18.043  0.00  0.00    +0.000 A 
ATOM     17  C   UNL     1       2.664   4.257  18.849  0.00  0.00    +0.000 A 
BRANCH  12  19
ATOM     18  C   UNL     1       1.526   6.697  20.703  0.00  0.00    +0.000 C 
ATOM     19  O   UNL     1       2.302   5.511  20.853  0.00  0.00    +0.000 OA
ENDBRANCH  12  19
ENDBRANCH   5  17
ENDBRANCH   1   8
BRANCH   3  20
ATOM     20  C   UNL     1       8.499   9.654  17.738  0.00  0.00    +0.000 C 
BRANCH  20  21
ATOM     21  C   UNL     1       9.226  10.045  19.003  0.00  0.00    +0.000 C 
BRANCH  21  22
ATOM     22  C   UNL     1       9.466  11.447  19.486  0.00  0.00    +0.000 A 
ATOM     23  C   UNL     1      10.625  11.651  20.245  0.00  0.00    +0.000 A 
ATOM     24  C   UNL     1      11.981  11.767  19.577  0.00  0.00    +0.000 C 
ATOM     25  N   UNL     1      10.173  12.598  21.143  0.00  0.00    +0.000 N 
ATOM     26  C   UNL     1       9.633  13.560  20.308  0.00  0.00    +0.000 A 
ATOM     27  C   UNL     1       9.591  14.945  20.476  0.00  0.00    +0.000 A 
ATOM     28  C   UNL     1       9.374  15.678  19.317  0.00  0.00    +0.000 A 
ATOM     29  C   UNL     1       9.077  15.034  18.112  0.00  0.00    +0.000 A 
ATOM     30  C   UNL     1       8.927  13.628  18.027  0.00  0.00    +0.000 A 
ATOM     31  C   UNL     1       9.246  12.844  19.154  0.00  0.00    +0.000 A 
ATOM     32  H   UNL     1       9.743  12.377  22.030  0.00  0.00    +0.000 HD
ENDBRANCH  21  22
ENDBRANCH  20  21
ENDBRANCH   3  20
TORSDOF 6
ENDMDL
MODEL 7
REMARK VINA RESULT:      -8.8      3.048     10.522
REMARK  Name = 
REMARK  8 active torsions:
REMARK  status: ('A' for Active; 'I' for Inactive)
REMARK    1  A    between atoms: C_1  and  O_2
REMARK    2  A    between atoms: O_2  and  C_3
REMARK    3  A    between atoms: C_8  and  C_9
REMARK    4  A    between atoms: C_12  and  C_13
REMARK    5  A    between atoms: N_15  and  C_16
REMARK    6  A    between atoms: C_16  and  C_17
REMARK    7  A    between atoms: C_17  and  C_18
REMARK    8  A    between atoms: C_19  and  C_20
REMARK                            x       y       z     vdW  Elec       q    Type
REMARK                         _______ _______ _______ _____ _____    ______ ____
ROOT
ATOM      1  C   UNL     1       8.042   8.225  17.952  0.00  0.00    +0.000 C 
ATOM      2  O   UNL     1       7.418   8.131  16.900  0.00  0.00    +0.000 OA
ATOM      3  N   UNL     1       8.300   7.154  18.782  0.00  0.00    +0.000 N 
ATOM      4  H   UNL     1       8.815   7.266  19.627  0.00  0.00    +0.000 HD
ENDROOT
BRANCH   1   8
ATOM      5  C   UNL     1       9.565  12.099  19.300  0.00  0.00    +0.000 A 
ATOM      6  C   UNL     1       9.707  10.930  20.069  0.00  0.00    +0.000 A 
ATOM      7  C   UNL     1       9.211   9.679  19.644  0.00  0.00    +0.000 A 
ATOM      8  C   UNL     1       8.578   9.562  18.392  0.00  0.00    +0.000 A 
ATOM      9  C   UNL     1       8.473  10.694  17.588  0.00  0.00    +0.000 A 
ATOM     10  C   UNL     1       8.942  11.924  18.044  0.00  0.00    +0.000 A 
ATOM     11  F   UNL     1       8.764  12.975  17.229  0.00  0.00    +0.000 F 
BRANCH   5  17
ATOM     12  C   UNL     1       9.234  14.396  20.424  0.00  0.00    +0.000 A 
ATOM     13  C   UNL     1       9.766  15.646  20.785  0.00  0.00    +0.000 A 
ATOM     14  C   UNL     1      11.074  16.007  20.468  0.00  0.00    +0.000 A 
ATOM     15  C   UNL     1      11.879  15.095  19.814  0.00  0.00    +0.000 A 
ATOM     16  C   UNL     1      11.381  13.828  19.492  0.00  0.00    +0.000 A 
ATOM     17  C   UNL     1      10.042  13.440  19.764  0.00  0.00    +0.000 A 
BRANCH  12  19
ATOM     18  C   UNL     1       7.658  13.764  22.079  0.00  0.00    +0.000 C 
ATOM     19  O   UNL     1       7.933  14.055  20.711  0.00  0.00    +0.000 OA
ENDBRANCH  12  19
ENDBRANCH   5  17
ENDBRANCH   1   8
BRANCH   3  20
ATOM     20  C   UNL     1       7.744   5.829  18.577  0.00  0.00    +0.000 C 
BRANCH  20  21
ATOM     21  C   UNL     1       6.518   5.478  19.386  0.00  0.00    +0.000 C 
BRANCH  21  22
ATOM     22  C   UNL     1       5.145   5.209  18.839  0.00  0.00    +0.000 A 
ATOM     23  C   UNL     1       4.841   5.804  17.608  0.00  0.00    +0.000 A 
ATOM     24  C   UNL     1       5.354   5.213  16.310  0.00  0.00    +0.000 C 
ATOM     25  N   UNL     1       3.505   6.099  17.796  0.00  0.00    +0.000 N 
ATOM     26  C   UNL     1       2.989   4.879  18.197  0.00  0.00    +0.000 A 
ATOM     27  C   UNL     1       1.727   4.336  17.952  0.00  0.00    +0.000 A 
ATOM     28  C   UNL     1       1.631   2.960  18.108  0.00  0.00    +0.000 A 
ATOM     29  C   UNL     1       2.707   2.224  18.615  0.00  0.00    +0.000 A 
ATOM     30  C   UNL     1       3.906   2.843  19.046  0.00  0.00    +0.000 A 
ATOM     31  C   UNL     1       4.081   4.220  18.804  0.00  0.00    +0.000 A 
ATOM     32  H   UNL     1       3.166   6.964  18.193  0.00  0.00    +0.000 HD
ENDBRANCH  21  22
ENDBRANCH  20  21
ENDBRANCH   3  20
TORSDOF 6
ENDMDL
MODEL 8
REMARK VINA RESULT:      -8.7      0.881      1.241
REMARK  Name = 
REMARK  8 active torsions:
REMARK  status: ('A' for Active; 'I' for Inactive)
REMARK    1  A    between atoms: C_1  and  O_2
REMARK    2  A    between atoms: O_2  and  C_3
REMARK    3  A    between atoms: C_8  and  C_9
REMARK    4  A    between atoms: C_12  and  C_13
REMARK    5  A    between atoms: N_15  and  C_16
REMARK    6  A    between atoms: C_16  and  C_17
REMARK    7  A    between atoms: C_17  and  C_18
REMARK    8  A    between atoms: C_19  and  C_20
REMARK                            x       y       z     vdW  Elec       q    Type
REMARK                         _______ _______ _______ _____ _____    ______ ____
ROOT
ATOM      1  C   UNL     1       7.283   7.373  17.311  0.00  0.00    +0.000 C 
ATOM      2  O   UNL     1       8.006   6.958  16.412  0.00  0.00    +0.000 OA
ATOM      3  N   UNL     1       7.490   8.572  17.961  0.00  0.00    +0.000 N 
ATOM      4  H   UNL     1       6.878   8.881  18.685  0.00  0.00    +0.000 HD
ENDROOT
BRANCH   1   8
ATOM      5  C   UNL     1       3.861   4.956  18.574  0.00  0.00    +0.000 A 
ATOM      6  C   UNL     1       5.182   4.631  18.935  0.00  0.00    +0.000 A 
ATOM      7  C   UNL     1       6.291   5.402  18.525  0.00  0.00    +0.000 A 
ATOM      8  C   UNL     1       6.093   6.564  17.754  0.00  0.00    +0.000 A 
ATOM      9  C   UNL     1       4.791   6.936  17.429  0.00  0.00    +0.000 A 
ATOM     10  C   UNL     1       3.716   6.141  17.820  0.00  0.00    +0.000 A 
ATOM     11  F   UNL     1       2.497   6.545  17.430  0.00  0.00    +0.000 F 
BRANCH   5  17
ATOM     12  C   UNL     1       1.924   4.295  20.142  0.00  0.00    +0.000 A 
ATOM     13  C   UNL     1       0.858   3.427  20.437  0.00  0.00    +0.000 A 
ATOM     14  C   UNL     1       0.543   2.345  19.618  0.00  0.00    +0.000 A 
ATOM     15  C   UNL     1       1.278   2.143  18.465  0.00  0.00    +0.000 A 
ATOM     16  C   UNL     1       2.310   3.027  18.131  0.00  0.00    +0.000 A 
ATOM     17  C   UNL     1       2.684   4.117  18.961  0.00  0.00    +0.000 A 
BRANCH  12  19
ATOM     18  C   UNL     1       1.519   6.548  20.758  0.00  0.00    +0.000 C 
ATOM     19  O   UNL     1       2.250   5.344  20.969  0.00  0.00    +0.000 OA
ENDBRANCH  12  19
ENDBRANCH   5  17
ENDBRANCH   1   8
BRANCH   3  20
ATOM     20  C   UNL     1       8.659   9.406  17.752  0.00  0.00    +0.000 C 
BRANCH  20  21
ATOM     21  C   UNL     1       9.021  10.355  18.871  0.00  0.00    +0.000 C 
BRANCH  21  22
ATOM     22  C   UNL     1       9.288  11.826  18.729  0.00  0.00    +0.000 A 
ATOM     23  C   UNL     1       9.229  12.583  19.905  0.00  0.00    +0.000 A 
ATOM     24  C   UNL     1      10.381  12.581  20.890  0.00  0.00    +0.000 C 
ATOM     25  N   UNL     1       8.688  13.757  19.420  0.00  0.00    +0.000 N 
ATOM     26  C   UNL     1       9.533  14.057  18.367  0.00  0.00    +0.000 A 
ATOM     27  C   UNL     1       9.935  15.307  17.891  0.00  0.00    +0.000 A 
ATOM     28  C   UNL     1      11.086  15.305  17.116  0.00  0.00    +0.000 A 
ATOM     29  C   UNL     1      11.690  14.102  16.740  0.00  0.00    +0.000 A 
ATOM     30  C   UNL     1      11.134  12.843  17.074  0.00  0.00    +0.000 A 
ATOM     31  C   UNL     1      10.030  12.803  17.949  0.00  0.00    +0.000 A 
ATOM     32  H   UNL     1       7.696  13.943  19.362  0.00  0.00    +0.000 HD
ENDBRANCH  21  22
ENDBRANCH  20  21
ENDBRANCH   3  20
TORSDOF 6
ENDMDL
MODEL 9
REMARK VINA RESULT:      -8.7      2.728     10.415
REMARK  Name = 
REMARK  8 active torsions:
REMARK  status: ('A' for Active; 'I' for Inactive)
REMARK    1  A    between atoms: C_1  and  O_2
REMARK    2  A    between atoms: O_2  and  C_3
REMARK    3  A    between atoms: C_8  and  C_9
REMARK    4  A    between atoms: C_12  and  C_13
REMARK    5  A    between atoms: N_15  and  C_16
REMARK    6  A    between atoms: C_16  and  C_17
REMARK    7  A    between atoms: C_17  and  C_18
REMARK    8  A    between atoms: C_19  and  C_20
REMARK                            x       y       z     vdW  Elec       q    Type
REMARK                         _______ _______ _______ _____ _____    ______ ____
ROOT
ATOM      1  C   UNL     1       7.809   7.753  18.004  0.00  0.00    +0.000 C 
ATOM      2  O   UNL     1       8.239   6.888  18.759  0.00  0.00    +0.000 OA
ATOM      3  N   UNL     1       6.890   7.503  17.006  0.00  0.00    +0.000 N 
ATOM      4  H   UNL     1       6.558   8.233  16.413  0.00  0.00    +0.000 HD
ENDROOT
BRANCH   1   8
ATOM      5  C   UNL     1       9.177  11.895  18.342  0.00  0.00    +0.000 A 
ATOM      6  C   UNL     1       8.146  11.517  17.463  0.00  0.00    +0.000 A 
ATOM      7  C   UNL     1       7.705  10.181  17.343  0.00  0.00    +0.000 A 
ATOM      8  C   UNL     1       8.278   9.177  18.147  0.00  0.00    +0.000 A 
ATOM      9  C   UNL     1       9.263   9.536  19.064  0.00  0.00    +0.000 A 
ATOM     10  C   UNL     1       9.702  10.855  19.140  0.00  0.00    +0.000 A 
ATOM     11  F   UNL     1      10.685  11.111  20.018  0.00  0.00    +0.000 F 
BRANCH   5  17
ATOM     12  C   UNL     1       9.260  14.244  19.403  0.00  0.00    +0.000 A 
ATOM     13  C   UNL     1       9.771  15.554  19.386  0.00  0.00    +0.000 A 
ATOM     14  C   UNL     1      10.664  15.982  18.407  0.00  0.00    +0.000 A 
ATOM     15  C   UNL     1      11.086  15.082  17.447  0.00  0.00    +0.000 A 
ATOM     16  C   UNL     1      10.627  13.761  17.480  0.00  0.00    +0.000 A 
ATOM     17  C   UNL     1       9.687  13.299  18.439  0.00  0.00    +0.000 A 
BRANCH  12  19
ATOM     18  C   UNL     1       8.737  14.061  21.708  0.00  0.00    +0.000 C 
ATOM     19  O   UNL     1       8.356  13.834  20.354  0.00  0.00    +0.000 OA
ENDBRANCH  12  19
ENDBRANCH   5  17
ENDBRANCH   1   8
BRANCH   3  20
ATOM     20  C   UNL     1       6.439   6.171  16.646  0.00  0.00    +0.000 C 
BRANCH  20  21
ATOM     21  C   UNL     1       4.945   5.960  16.577  0.00  0.00    +0.000 C 
BRANCH  21  22
ATOM     22  C   UNL     1       4.046   5.623  17.732  0.00  0.00    +0.000 A 
ATOM     23  C   UNL     1       3.616   6.700  18.518  0.00  0.00    +0.000 A 
ATOM     24  C   UNL     1       2.494   7.605  18.051  0.00  0.00    +0.000 C 
ATOM     25  N   UNL     1       3.604   6.108  19.766  0.00  0.00    +0.000 N 
ATOM     26  C   UNL     1       2.839   4.976  19.547  0.00  0.00    +0.000 A 
ATOM     27  C   UNL     1       1.962   4.327  20.417  0.00  0.00    +0.000 A 
ATOM     28  C   UNL     1       1.036   3.489  19.812  0.00  0.00    +0.000 A 
ATOM     29  C   UNL     1       1.102   3.227  18.440  0.00  0.00    +0.000 A 
ATOM     30  C   UNL     1       2.137   3.747  17.623  0.00  0.00    +0.000 A 
ATOM     31  C   UNL     1       3.029   4.686  18.178  0.00  0.00    +0.000 A 
ATOM     32  H   UNL     1       4.397   6.088  20.392  0.00  0.00    +0.000 HD
ENDBRANCH  21  22
ENDBRANCH  20  21
ENDBRANCH   3  20
TORSDOF 6
ENDMDL
