MODEL 1
REMARK VINA RESULT:      -8.2      0.000      0.000
REMARK  Name = 
REMARK  12 active torsions:
REMARK  status: ('A' for Active; 'I' for Inactive)
REMARK    1  A    between atoms: C_1  and  C_2
REMARK    2  A    between atoms: C_2  and  C_3
REMARK    3  A    between atoms: C_3  and  C_4
REMARK    4  A    between atoms: C_4  and  C_5
REMARK    5  A    between atoms: C_5  and  C_6
REMARK    6  A    between atoms: C_6  and  O_7
REMARK    7  A    between atoms: O_7  and  C_8
REMARK    8  A    between atoms: N_15  and  C1*_16
REMARK    9  A    between atoms: C4*_18  and  C5*_19
REMARK   10  A    between atoms: C5*_19  and  O5*_20
REMARK   11  A    between atoms: C3*_21  and  O3*_22
REMARK   12  A    between atoms: C2*_23  and  O2*_24
REMARK                            x       y       z     vdW  Elec       q    Type
REMARK                         _______ _______ _______ _____ _____    ______ ____
ROOT
ATOM      1  C   UNL     1       5.568   4.705  15.141  0.00  0.00    +0.000 A 
ATOM      2  N   UNL     1       6.616   5.499  15.451  0.00  0.00    +0.000 NA
ATOM      3  C   UNL     1       6.717   5.977  16.712  0.00  0.00    +0.000 A 
ATOM      4  N   UNL     1       7.801   6.788  17.027  0.00  0.00    +0.000 N 
ATOM      5  C   UNL     1       5.717   5.647  17.639  0.00  0.00    +0.000 A 
ATOM      6  N   UNL     1       5.514   5.999  18.957  0.00  0.00    +0.000 NA
ATOM      7  C   UNL     1       4.410   5.370  19.306  0.00  0.00    +0.000 A 
ATOM      8  N   UNL     1       3.901   4.619  18.276  0.00  0.00    +0.000 N 
ATOM      9  C   UNL     1       4.706   4.820  17.188  0.00  0.00    +0.000 A 
ATOM     10  N   UNL     1       4.563   4.323  15.950  0.00  0.00    +0.000 NA
ATOM     11  H   UNL     1       8.191   7.242  16.212  0.00  0.00    +0.000 HD
ATOM     12  H   UNL     1       7.644   7.358  17.852  0.00  0.00    +0.000 HD
ENDROOT
BRANCH   8  13
ATOM     13  C1* UNL     1       2.749   3.749  18.371  0.00  0.00    +0.000 C 
ATOM     14  O4* UNL     1       1.786   4.341  19.272  0.00  0.00    +0.000 OA
ATOM     15  C4* UNL     1       1.276   3.308  20.151  0.00  0.00    +0.000 C 
ATOM     16  C3* UNL     1       1.745   1.976  19.572  0.00  0.00    +0.000 C 
ATOM     17  C2* UNL     1       3.042   2.332  18.859  0.00  0.00    +0.000 C 
BRANCH  16  18
ATOM     18  O3* UNL     1       0.828   1.474  18.580  0.00  0.00    +0.000 OA
ATOM     19  H3* UNL     1       0.185   0.880  19.009  0.00  0.00    +0.000 HD
ENDBRANCH  16  18
BRANCH  17  20
ATOM     20  O2* UNL     1       3.302   1.433  17.778  0.00  0.00    +0.000 OA
ATOM     21  H2* UNL     1       2.989   0.552  18.076  0.00  0.00    +0.000 HD
ENDBRANCH  17  20
BRANCH  15  22
ATOM     22  C5* UNL     1       1.765   3.551  21.580  0.00  0.00    +0.000 C 
BRANCH  22  23
ATOM     23  O5* UNL     1       1.474   2.415  22.391  0.00  0.00    +0.000 OA
ATOM     24  H5* UNL     1       2.294   1.882  22.411  0.00  0.00    +0.000 HD
ENDBRANCH  22  23
ENDBRANCH  15  22
ENDBRANCH   8  13
BRANCH   1  25
ATOM     25  O   UNL     1       5.434   4.260  13.838  0.00  0.00    +0.000 OA
BRANCH  25  26
ATOM     26  C   UNL     1       6.685   3.897  13.249  0.00  0.00    +0.000 C 
BRANCH  26  27
ATOM     27  C   UNL     1       6.421   3.379  11.834  0.00  0.00    +0.000 C 
BRANCH  27  28
ATOM     28  C   UNL     1       5.064   2.681  11.733  0.00  0.00    +0.000 C 
BRANCH  28  29
ATOM     29  C   UNL     1       3.942   3.662  11.380  0.00  0.00    +0.000 C 
BRANCH  29  31
ATOM     30  C   UNL     1       2.682   4.509   9.361  0.00  0.00    +0.000 C 
ATOM     31  C   UNL     1       3.274   3.291  10.053  0.00  0.00    +0.000 C 
ENDBRANCH  29  31
ENDBRANCH  28  29
ENDBRANCH  27  28
ENDBRANCH  26  27
ENDBRANCH  25  26
ENDBRANCH   1  25
TORSDOF 11
ENDMDL
MODEL 2
REMARK VINA RESULT:      -8.1      1.346      1.522
REMARK  Name = 
REMARK  12 active torsions:
REMARK  status: ('A' for Active; 'I' for Inactive)
REMARK    1  A    between atoms: C_1  and  C_2
REMARK    2  A    between atoms: C_2  and  C_3
REMARK    3  A    between atoms: C_3  and  C_4
REMARK    4  A    between atoms: C_4  and  C_5
REMARK    5  A    between atoms: C_5  and  C_6
REMARK    6  A    between atoms: C_6  and  O_7
REMARK    7  A    between atoms: O_7  and  C_8
REMARK    8  A    between atoms: N_15  and  C1*_16
REMARK    9  A    between atoms: C4*_18  and  C5*_19
REMARK   10  A    between atoms: C5*_19  and  O5*_20
REMARK   11  A    between atoms: C3*_21  and  O3*_22
REMARK   12  A    between atoms: C2*_23  and  O2*_24
REMARK                            x       y       z     vdW  Elec       q    Type
REMARK                         _______ _______ _______ _____ _____    ______ ____
ROOT
ATOM      1  C   UNL     1       6.941   5.029  15.409  0.00  0.00    +0.000 A 
ATOM      2  N   UNL     1       7.514   6.194  15.786  0.00  0.00    +0.000 NA
ATOM      3  C   UNL     1       7.216   6.699  17.004  0.00  0.00    +0.000 A 
ATOM      4  N   UNL     1       7.813   7.894  17.388  0.00  0.00    +0.000 N 
ATOM      5  C   UNL     1       6.307   6.004  17.817  0.00  0.00    +0.000 A 
ATOM      6  N   UNL     1       5.778   6.271  19.062  0.00  0.00    +0.000 NA
ATOM      7  C   UNL     1       4.987   5.248  19.316  0.00  0.00    +0.000 A 
ATOM      8  N   UNL     1       4.993   4.330  18.296  0.00  0.00    +0.000 N 
ATOM      9  C   UNL     1       5.804   4.822  17.309  0.00  0.00    +0.000 A 
ATOM     10  N   UNL     1       6.067   4.283  16.109  0.00  0.00    +0.000 NA
ATOM     11  H   UNL     1       8.104   8.450  16.596  0.00  0.00    +0.000 HD
ATOM     12  H   UNL     1       7.312   8.366  18.134  0.00  0.00    +0.000 HD
ENDROOT
BRANCH   8  13
ATOM     13  C1* UNL     1       4.296   3.062  18.313  0.00  0.00    +0.000 C 
ATOM     14  O4* UNL     1       2.976   3.245  17.754  0.00  0.00    +0.000 OA
ATOM     15  C4* UNL     1       2.018   2.543  18.585  0.00  0.00    +0.000 C 
ATOM     16  C3* UNL     1       2.830   1.666  19.534  0.00  0.00    +0.000 C 
ATOM     17  C2* UNL     1       4.141   2.423  19.690  0.00  0.00    +0.000 C 
BRANCH  16  18
ATOM     18  O3* UNL     1       3.135   0.386  18.944  0.00  0.00    +0.000 OA
ATOM     19  H3* UNL     1       2.336   0.035  18.510  0.00  0.00    +0.000 HD
ENDBRANCH  16  18
BRANCH  17  20
ATOM     20  O2* UNL     1       5.219   1.535  19.997  0.00  0.00    +0.000 OA
ATOM     21  H2* UNL     1       5.960   2.103  20.302  0.00  0.00    +0.000 HD
ENDBRANCH  17  20
BRANCH  15  22
ATOM     22  C5* UNL     1       1.123   3.550  19.311  0.00  0.00    +0.000 C 
BRANCH  22  23
ATOM     23  O5* UNL     1      -0.042   2.892  19.804  0.00  0.00    +0.000 OA
ATOM     24  H5* UNL     1       0.280   2.174  20.384  0.00  0.00    +0.000 HD
ENDBRANCH  22  23
ENDBRANCH  15  22
ENDBRANCH   8  13
BRANCH   1  25
ATOM     25  O   UNL     1       7.202   4.540  14.142  0.00  0.00    +0.000 OA
BRANCH  25  26
ATOM     26  C   UNL     1       6.140   3.728  13.636  0.00  0.00    +0.000 C 
BRANCH  26  27
ATOM     27  C   UNL     1       6.420   3.430  12.161  0.00  0.00    +0.000 C 
BRANCH  27  28
ATOM     28  C   UNL     1       5.276   2.643  11.519  0.00  0.00    +0.000 C 
BRANCH  28  29
ATOM     29  C   UNL     1       3.979   3.457  11.474  0.00  0.00    +0.000 C 
BRANCH  29  31
ATOM     30  C   UNL     1       2.841   4.371   9.413  0.00  0.00    +0.000 C 
ATOM     31  C   UNL     1       3.155   3.126  10.227  0.00  0.00    +0.000 C 
ENDBRANCH  29  31
ENDBRANCH  28  29
ENDBRANCH  27  28
ENDBRANCH  26  27
ENDBRANCH  25  26
ENDBRANCH   1  25
TORSDOF 11
ENDMDL
MODEL 3
REMARK VINA RESULT:      -8.1      3.604      6.610
REMARK  Name = 
REMARK  12 active torsions:
REMARK  status: ('A' for Active; 'I' for Inactive)
REMARK    1  A    between atoms: C_1  and  C_2
REMARK    2  A    between atoms: C_2  and  C_3
REMARK    3  A    between atoms: C_3  and  C_4
REMARK    4  A    between atoms: C_4  and  C_5
REMARK    5  A    between atoms: C_5  and  C_6
REMARK    6  A    between atoms: C_6  and  O_7
REMARK    7  A    between atoms: O_7  and  C_8
REMARK    8  A    between atoms: N_15  and  C1*_16
REMARK    9  A    between atoms: C4*_18  and  C5*_19
REMARK   10  A    between atoms: C5*_19  and  O5*_20
REMARK   11  A    between atoms: C3*_21  and  O3*_22
REMARK   12  A    between atoms: C2*_23  and  O2*_24
REMARK                            x       y       z     vdW  Elec       q    Type
REMARK                         _______ _______ _______ _____ _____    ______ ____
ROOT
ATOM      1  C   UNL     1       7.418   6.655  17.692  0.00  0.00    +0.000 A 
ATOM      2  N   UNL     1       7.746   6.458  16.397  0.00  0.00    +0.000 NA
ATOM      3  C   UNL     1       7.047   5.549  15.681  0.00  0.00    +0.000 A 
ATOM      4  N   UNL     1       7.385   5.354  14.347  0.00  0.00    +0.000 N 
ATOM      5  C   UNL     1       6.023   4.832  16.320  0.00  0.00    +0.000 A 
ATOM      6  N   UNL     1       5.176   3.834  15.889  0.00  0.00    +0.000 NA
ATOM      7  C   UNL     1       4.419   3.563  16.934  0.00  0.00    +0.000 A 
ATOM      8  N   UNL     1       4.734   4.350  18.012  0.00  0.00    +0.000 N 
ATOM      9  C   UNL     1       5.789   5.141  17.646  0.00  0.00    +0.000 A 
ATOM     10  N   UNL     1       6.456   6.031  18.396  0.00  0.00    +0.000 NA
ATOM     11  H   UNL     1       8.340   5.623  14.150  0.00  0.00    +0.000 HD
ATOM     12  H   UNL     1       7.063   4.465  13.981  0.00  0.00    +0.000 HD
ENDROOT
BRANCH   8  13
ATOM     13  C1* UNL     1       4.028   4.352  19.276  0.00  0.00    +0.000 C 
ATOM     14  O4* UNL     1       3.603   3.005  19.578  0.00  0.00    +0.000 OA
ATOM     15  C4* UNL     1       2.236   3.046  20.058  0.00  0.00    +0.000 C 
ATOM     16  C3* UNL     1       1.914   4.514  20.321  0.00  0.00    +0.000 C 
ATOM     17  C2* UNL     1       2.802   5.259  19.335  0.00  0.00    +0.000 C 
BRANCH  16  18
ATOM     18  O3* UNL     1       2.308   4.915  21.649  0.00  0.00    +0.000 OA
ATOM     19  H3* UNL     1       1.930   4.293  22.297  0.00  0.00    +0.000 HD
ENDBRANCH  16  18
BRANCH  17  20
ATOM     20  O2* UNL     1       3.122   6.568  19.812  0.00  0.00    +0.000 OA
ATOM     21  H2* UNL     1       3.524   6.443  20.699  0.00  0.00    +0.000 HD
ENDBRANCH  17  20
BRANCH  15  22
ATOM     22  C5* UNL     1       1.304   2.398  19.032  0.00  0.00    +0.000 C 
BRANCH  22  23
ATOM     23  O5* UNL     1       2.038   1.487  18.218  0.00  0.00    +0.000 OA
ATOM     24  H5* UNL     1       2.393   0.809  18.826  0.00  0.00    +0.000 HD
ENDBRANCH  22  23
ENDBRANCH  15  22
ENDBRANCH   8  13
BRANCH   1  25
ATOM     25  O   UNL     1       8.168   7.544  18.440  0.00  0.00    +0.000 OA
BRANCH  25  26
ATOM     26  C   UNL     1       8.117   8.877  17.925  0.00  0.00    +0.000 C 
BRANCH  26  27
ATOM     27  C   UNL     1       8.938   9.783  18.844  0.00  0.00    +0.000 C 
BRANCH  27  28
ATOM     28  C   UNL     1       9.495  10.993  18.091  0.00  0.00    +0.000 C 
BRANCH  28  29
ATOM     29  C   UNL     1      10.761  11.544  18.755  0.00  0.00    +0.000 C 
BRANCH  29  31
ATOM     30  C   UNL     1      10.212  12.966  20.769  0.00  0.00    +0.000 C 
ATOM     31  C   UNL     1      10.619  11.586  20.279  0.00  0.00    +0.000 C 
ENDBRANCH  29  31
ENDBRANCH  28  29
ENDBRANCH  27  28
ENDBRANCH  26  27
ENDBRANCH  25  26
ENDBRANCH   1  25
TORSDOF 11
ENDMDL
MODEL 4
REMARK VINA RESULT:      -8.0      3.570      6.303
REMARK  Name = 
REMARK  12 active torsions:
REMARK  status: ('A' for Active; 'I' for Inactive)
REMARK    1  A    between atoms: C_1  and  C_2
REMARK    2  A    between atoms: C_2  and  C_3
REMARK    3  A    between atoms: C_3  and  C_4
REMARK    4  A    between atoms: C_4  and  C_5
REMARK    5  A    between atoms: C_5  and  C_6
REMARK    6  A    between atoms: C_6  and  O_7
REMARK    7  A    between atoms: O_7  and  C_8
REMARK    8  A    between atoms: N_15  and  C1*_16
REMARK    9  A    between atoms: C4*_18  and  C5*_19
REMARK   10  A    between atoms: C5*_19  and  O5*_20
REMARK   11  A    between atoms: C3*_21  and  O3*_22
REMARK   12  A    between atoms: C2*_23  and  O2*_24
REMARK                            x       y       z     vdW  Elec       q    Type
REMARK                         _______ _______ _______ _____ _____    ______ ____
ROOT
ATOM      1  C   UNL     1       7.428   6.621  17.696  0.00  0.00    +0.000 A 
ATOM      2  N   UNL     1       7.729   6.430  16.393  0.00  0.00    +0.000 NA
ATOM      3  C   UNL     1       7.025   5.513  15.692  0.00  0.00    +0.000 A 
ATOM      4  N   UNL     1       7.335   5.327  14.349  0.00  0.00    +0.000 N 
ATOM      5  C   UNL     1       6.027   4.781  16.352  0.00  0.00    +0.000 A 
ATOM      6  N   UNL     1       5.183   3.773  15.938  0.00  0.00    +0.000 NA
ATOM      7  C   UNL     1       4.455   3.489  17.000  0.00  0.00    +0.000 A 
ATOM      8  N   UNL     1       4.784   4.278  18.073  0.00  0.00    +0.000 N 
ATOM      9  C   UNL     1       5.819   5.084  17.684  0.00  0.00    +0.000 A 
ATOM     10  N   UNL     1       6.491   5.981  18.421  0.00  0.00    +0.000 NA
ATOM     11  H   UNL     1       8.281   5.609  14.131  0.00  0.00    +0.000 HD
ATOM     12  H   UNL     1       7.016   4.434  13.989  0.00  0.00    +0.000 HD
ENDROOT
BRANCH   8  13
ATOM     13  C1* UNL     1       4.108   4.268  19.352  0.00  0.00    +0.000 C 
ATOM     14  O4* UNL     1       3.789   2.903  19.704  0.00  0.00    +0.000 OA
ATOM     15  C4* UNL     1       2.434   2.859  20.215  0.00  0.00    +0.000 C 
ATOM     16  C3* UNL     1       2.011   4.308  20.444  0.00  0.00    +0.000 C 
ATOM     17  C2* UNL     1       2.819   5.084  19.415  0.00  0.00    +0.000 C 
BRANCH  16  18
ATOM     18  O3* UNL     1       2.404   4.777  21.749  0.00  0.00    +0.000 OA
ATOM     19  H3* UNL     1       2.161   5.717  21.838  0.00  0.00    +0.000 HD
ENDBRANCH  16  18
BRANCH  17  20
ATOM     20  O2* UNL     1       3.053   6.427  19.846  0.00  0.00    +0.000 OA
ATOM     21  H2* UNL     1       3.270   6.938  19.036  0.00  0.00    +0.000 HD
ENDBRANCH  17  20
BRANCH  15  22
ATOM     22  C5* UNL     1       1.529   2.114  19.232  0.00  0.00    +0.000 C 
BRANCH  22  23
ATOM     23  O5* UNL     1       0.196   2.606  19.334  0.00  0.00    +0.000 OA
ATOM     24  H5* UNL     1      -0.245   2.364  18.495  0.00  0.00    +0.000 HD
ENDBRANCH  22  23
ENDBRANCH  15  22
ENDBRANCH   8  13
BRANCH   1  25
ATOM     25  O   UNL     1       8.183   7.518  18.428  0.00  0.00    +0.000 OA
BRANCH  25  26
ATOM     26  C   UNL     1       8.081   8.855  17.934  0.00  0.00    +0.000 C 
BRANCH  26  27
ATOM     27  C   UNL     1       8.966   9.759  18.796  0.00  0.00    +0.000 C 
BRANCH  27  28
ATOM     28  C   UNL     1       9.134  11.144  18.169  0.00  0.00    +0.000 C 
BRANCH  28  29
ATOM     29  C   UNL     1      10.592  11.427  17.795  0.00  0.00    +0.000 C 
BRANCH  29  31
ATOM     30  C   UNL     1       9.584  13.743  17.827  0.00  0.00    +0.000 C 
ATOM     31  C   UNL     1      10.816  12.913  17.503  0.00  0.00    +0.000 C 
ENDBRANCH  29  31
ENDBRANCH  28  29
ENDBRANCH  27  28
ENDBRANCH  26  27
ENDBRANCH  25  26
ENDBRANCH   1  25
TORSDOF 11
ENDMDL
MODEL 5
REMARK VINA RESULT:      -7.9      1.076      1.116
REMARK  Name = 
REMARK  12 active torsions:
REMARK  status: ('A' for Active; 'I' for Inactive)
REMARK    1  A    between atoms: C_1  and  C_2
REMARK    2  A    between atoms: C_2  and  C_3
REMARK    3  A    between atoms: C_3  and  C_4
REMARK    4  A    between atoms: C_4  and  C_5
REMARK    5  A    between atoms: C_5  and  C_6
REMARK    6  A    between atoms: C_6  and  O_7
REMARK    7  A    between atoms: O_7  and  C_8
REMARK    8  A    between atoms: N_15  and  C1*_16
REMARK    9  A    between atoms: C4*_18  and  C5*_19
REMARK   10  A    between atoms: C5*_19  and  O5*_20
REMARK   11  A    between atoms: C3*_21  and  O3*_22
REMARK   12  A    between atoms: C2*_23  and  O2*_24
REMARK                            x       y       z     vdW  Elec       q    Type
REMARK                         _______ _______ _______ _____ _____    ______ ____
ROOT
ATOM      1  C   UNL     1       6.514   5.378  15.644  0.00  0.00    +0.000 A 
ATOM      2  N   UNL     1       7.440   6.121  16.288  0.00  0.00    +0.000 NA
ATOM      3  C   UNL     1       7.285   6.347  17.612  0.00  0.00    +0.000 A 
ATOM      4  N   UNL     1       8.244   7.107  18.271  0.00  0.00    +0.000 N 
ATOM      5  C   UNL     1       6.155   5.821  18.257  0.00  0.00    +0.000 A 
ATOM      6  N   UNL     1       5.699   5.906  19.555  0.00  0.00    +0.000 NA
ATOM      7  C   UNL     1       4.589   5.195  19.567  0.00  0.00    +0.000 A 
ATOM      8  N   UNL     1       4.318   4.647  18.339  0.00  0.00    +0.000 N 
ATOM      9  C   UNL     1       5.293   5.073  17.478  0.00  0.00    +0.000 A 
ATOM     10  N   UNL     1       5.404   4.824  16.165  0.00  0.00    +0.000 NA
ATOM     11  H   UNL     1       8.747   7.719  17.643  0.00  0.00    +0.000 HD
ATOM     12  H   UNL     1       7.908   7.502  19.143  0.00  0.00    +0.000 HD
ENDROOT
BRANCH   8  13
ATOM     13  C1* UNL     1       3.221   3.748  18.052  0.00  0.00    +0.000 C 
ATOM     14  O4* UNL     1       1.978   4.398  18.399  0.00  0.00    +0.000 OA
ATOM     15  C4* UNL     1       1.139   3.450  19.103  0.00  0.00    +0.000 C 
ATOM     16  C3* UNL     1       1.792   2.082  18.931  0.00  0.00    +0.000 C 
ATOM     17  C2* UNL     1       3.271   2.407  18.780  0.00  0.00    +0.000 C 
BRANCH  16  18
ATOM     18  O3* UNL     1       1.362   1.437  17.715  0.00  0.00    +0.000 OA
ATOM     19  H3* UNL     1       1.662   0.509  17.722  0.00  0.00    +0.000 HD
ENDBRANCH  16  18
BRANCH  17  20
ATOM     20  O2* UNL     1       3.946   1.404  18.016  0.00  0.00    +0.000 OA
ATOM     21  H2* UNL     1       3.587   0.543  18.322  0.00  0.00    +0.000 HD
ENDBRANCH  17  20
BRANCH  15  22
ATOM     22  C5* UNL     1       0.995   3.870  20.568  0.00  0.00    +0.000 C 
BRANCH  22  23
ATOM     23  O5* UNL     1       1.242   5.268  20.697  0.00  0.00    +0.000 OA
ATOM     24  H5* UNL     1       1.514   5.409  21.625  0.00  0.00    +0.000 HD
ENDBRANCH  22  23
ENDBRANCH  15  22
ENDBRANCH   8  13
BRANCH   1  25
ATOM     25  O   UNL     1       6.643   5.192  14.280  0.00  0.00    +0.000 OA
BRANCH  25  26
ATOM     26  C   UNL     1       5.638   4.328  13.744  0.00  0.00    +0.000 C 
BRANCH  26  27
ATOM     27  C   UNL     1       6.314   3.317  12.815  0.00  0.00    +0.000 C 
BRANCH  27  28
ATOM     28  C   UNL     1       5.552   3.168  11.497  0.00  0.00    +0.000 C 
BRANCH  28  29
ATOM     29  C   UNL     1       4.055   3.436  11.670  0.00  0.00    +0.000 C 
BRANCH  29  31
ATOM     30  C   UNL     1       2.909   4.251   9.571  0.00  0.00    +0.000 C 
ATOM     31  C   UNL     1       3.268   3.040  10.418  0.00  0.00    +0.000 C 
ENDBRANCH  29  31
ENDBRANCH  28  29
ENDBRANCH  27  28
ENDBRANCH  26  27
ENDBRANCH  25  26
ENDBRANCH   1  25
TORSDOF 11
ENDMDL
MODEL 6
REMARK VINA RESULT:      -7.9      1.028      1.037
REMARK  Name = 
REMARK  12 active torsions:
REMARK  status: ('A' for Active; 'I' for Inactive)
REMARK    1  A    between atoms: C_1  and  C_2
REMARK    2  A    between atoms: C_2  and  C_3
REMARK    3  A    between atoms: C_3  and  C_4
REMARK    4  A    between atoms: C_4  and  C_5
REMARK    5  A    between atoms: C_5  and  C_6
REMARK    6  A    between atoms: C_6  and  O_7
REMARK    7  A    between atoms: O_7  and  C_8
REMARK    8  A    between atoms: N_15  and  C1*_16
REMARK    9  A    between atoms: C4*_18  and  C5*_19
REMARK   10  A    between atoms: C5*_19  and  O5*_20
REMARK   11  A    between atoms: C3*_21  and  O3*_22
REMARK   12  A    between atoms: C2*_23  and  O2*_24
REMARK                            x       y       z     vdW  Elec       q    Type
REMARK                         _______ _______ _______ _____ _____    ______ ____
ROOT
ATOM      1  C   UNL     1       6.530   4.889  15.719  0.00  0.00    +0.000 A 
ATOM      2  N   UNL     1       7.166   6.040  16.033  0.00  0.00    +0.000 NA
ATOM      3  C   UNL     1       6.584   6.883  16.915  0.00  0.00    +0.000 A 
ATOM      4  N   UNL     1       7.246   8.062  17.239  0.00  0.00    +0.000 N 
ATOM      5  C   UNL     1       5.333   6.540  17.449  0.00  0.00    +0.000 A 
ATOM      6  N   UNL     1       4.481   7.189  18.318  0.00  0.00    +0.000 NA
ATOM      7  C   UNL     1       3.459   6.369  18.460  0.00  0.00    +0.000 A 
ATOM      8  N   UNL     1       3.622   5.216  17.733  0.00  0.00    +0.000 N 
ATOM      9  C   UNL     1       4.801   5.331  17.047  0.00  0.00    +0.000 A 
ATOM     10  N   UNL     1       5.338   4.463  16.176  0.00  0.00    +0.000 NA
ATOM     11  H   UNL     1       7.895   8.348  16.519  0.00  0.00    +0.000 HD
ATOM     12  H   UNL     1       6.631   8.770  17.625  0.00  0.00    +0.000 HD
ENDROOT
BRANCH   8  13
ATOM     13  C1* UNL     1       2.717   4.087  17.749  0.00  0.00    +0.000 C 
ATOM     14  O4* UNL     1       1.474   4.491  18.365  0.00  0.00    +0.000 OA
ATOM     15  C4* UNL     1       1.051   3.451  19.281  0.00  0.00    +0.000 C 
ATOM     16  C3* UNL     1       1.935   2.239  19.000  0.00  0.00    +0.000 C 
ATOM     17  C2* UNL     1       3.230   2.852  18.485  0.00  0.00    +0.000 C 
BRANCH  16  18
ATOM     18  O3* UNL     1       1.394   1.420  17.945  0.00  0.00    +0.000 OA
ATOM     19  H3* UNL     1       0.868   0.698  18.337  0.00  0.00    +0.000 HD
ENDBRANCH  16  18
BRANCH  17  20
ATOM     20  O2* UNL     1       3.918   1.952  17.613  0.00  0.00    +0.000 OA
ATOM     21  H2* UNL     1       3.284   1.230  17.413  0.00  0.00    +0.000 HD
ENDBRANCH  17  20
BRANCH  15  22
ATOM     22  C5* UNL     1       1.156   3.953  20.724  0.00  0.00    +0.000 C 
BRANCH  22  23
ATOM     23  O5* UNL     1       0.944   2.872  21.628  0.00  0.00    +0.000 OA
ATOM     24  H5* UNL     1       1.832   2.546  21.872  0.00  0.00    +0.000 HD
ENDBRANCH  22  23
ENDBRANCH  15  22
ENDBRANCH   8  13
BRANCH   1  25
ATOM     25  O   UNL     1       7.098   4.052  14.776  0.00  0.00    +0.000 OA
BRANCH  25  26
ATOM     26  C   UNL     1       6.891   4.510  13.438  0.00  0.00    +0.000 C 
BRANCH  26  27
ATOM     27  C   UNL     1       6.264   3.373  12.629  0.00  0.00    +0.000 C 
BRANCH  27  28
ATOM     28  C   UNL     1       4.881   3.757  12.098  0.00  0.00    +0.000 C 
BRANCH  28  29
ATOM     29  C   UNL     1       4.379   2.765  11.045  0.00  0.00    +0.000 C 
BRANCH  29  31
ATOM     30  C   UNL     1       2.993   4.310   9.606  0.00  0.00    +0.000 C 
ATOM     31  C   UNL     1       2.972   3.127  10.562  0.00  0.00    +0.000 C 
ENDBRANCH  29  31
ENDBRANCH  28  29
ENDBRANCH  27  28
ENDBRANCH  26  27
ENDBRANCH  25  26
ENDBRANCH   1  25
TORSDOF 11
ENDMDL
MODEL 7
REMARK VINA RESULT:      -7.7      3.264      6.283
REMARK  Name = 
REMARK  12 active torsions:
REMARK  status: ('A' for Active; 'I' for Inactive)
REMARK    1  A    between atoms: C_1  and  C_2
REMARK    2  A    between atoms: C_2  and  C_3
REMARK    3  A    between atoms: C_3  and  C_4
REMARK    4  A    between atoms: C_4  and  C_5
REMARK    5  A    between atoms: C_5  and  C_6
REMARK    6  A    between atoms: C_6  and  O_7
REMARK    7  A    between atoms: O_7  and  C_8
REMARK    8  A    between atoms: N_15  and  C1*_16
REMARK    9  A    between atoms: C4*_18  and  C5*_19
REMARK   10  A    between atoms: C5*_19  and  O5*_20
REMARK   11  A    between atoms: C3*_21  and  O3*_22
REMARK   12  A    between atoms: C2*_23  and  O2*_24
REMARK                            x       y       z     vdW  Elec       q    Type
REMARK                         _______ _______ _______ _____ _____    ______ ____
ROOT
ATOM      1  C   UNL     1       6.976   6.219  16.495  0.00  0.00    +0.000 A 
ATOM      2  N   UNL     1       7.130   5.370  15.455  0.00  0.00    +0.000 NA
ATOM      3  C   UNL     1       6.269   4.336  15.329  0.00  0.00    +0.000 A 
ATOM      4  N   UNL     1       6.428   3.469  14.254  0.00  0.00    +0.000 N 
ATOM      5  C   UNL     1       5.265   4.173  16.296  0.00  0.00    +0.000 A 
ATOM      6  N   UNL     1       4.282   3.222  16.469  0.00  0.00    +0.000 NA
ATOM      7  C   UNL     1       3.632   3.605  17.549  0.00  0.00    +0.000 A 
ATOM      8  N   UNL     1       4.144   4.766  18.071  0.00  0.00    +0.000 N 
ATOM      9  C   UNL     1       5.218   5.120  17.301  0.00  0.00    +0.000 A 
ATOM     10  N   UNL     1       6.049   6.160  17.468  0.00  0.00    +0.000 NA
ATOM     11  H   UNL     1       7.374   3.470  13.896  0.00  0.00    +0.000 HD
ATOM     12  H   UNL     1       5.983   2.569  14.400  0.00  0.00    +0.000 HD
ENDROOT
BRANCH   8  13
ATOM     13  C1* UNL     1       3.595   5.483  19.202  0.00  0.00    +0.000 C 
ATOM     14  O4* UNL     1       3.547   4.597  20.342  0.00  0.00    +0.000 OA
ATOM     15  C4* UNL     1       2.270   4.763  21.006  0.00  0.00    +0.000 C 
ATOM     16  C3* UNL     1       1.626   6.008  20.402  0.00  0.00    +0.000 C 
ATOM     17  C2* UNL     1       2.196   6.057  18.991  0.00  0.00    +0.000 C 
BRANCH  16  18
ATOM     18  O3* UNL     1       2.046   7.207  21.082  0.00  0.00    +0.000 OA
ATOM     19  H3* UNL     1       3.020   7.249  21.085  0.00  0.00    +0.000 HD
ENDBRANCH  16  18
BRANCH  17  20
ATOM     20  O2* UNL     1       2.233   7.398  18.494  0.00  0.00    +0.000 OA
ATOM     21  H2* UNL     1       2.876   7.879  19.058  0.00  0.00    +0.000 HD
ENDBRANCH  17  20
BRANCH  15  22
ATOM     22  C5* UNL     1       1.423   3.500  20.831  0.00  0.00    +0.000 C 
BRANCH  22  23
ATOM     23  O5* UNL     1       1.453   2.728  22.029  0.00  0.00    +0.000 OA
ATOM     24  H5* UNL     1       0.533   2.441  22.187  0.00  0.00    +0.000 HD
ENDBRANCH  22  23
ENDBRANCH  15  22
ENDBRANCH   8  13
BRANCH   1  25
ATOM     25  O   UNL     1       7.889   7.245  16.655  0.00  0.00    +0.000 OA
BRANCH  25  26
ATOM     26  C   UNL     1       7.863   7.804  17.971  0.00  0.00    +0.000 C 
BRANCH  26  27
ATOM     27  C   UNL     1       8.064   9.316  17.858  0.00  0.00    +0.000 C 
BRANCH  27  28
ATOM     28  C   UNL     1       9.058   9.832  18.901  0.00  0.00    +0.000 C 
BRANCH  28  29
ATOM     29  C   UNL     1       9.835  11.050  18.394  0.00  0.00    +0.000 C 
BRANCH  29  31
ATOM     30  C   UNL     1       9.778  11.529  20.873  0.00  0.00    +0.000 C 
ATOM     31  C   UNL     1       9.979  12.115  19.485  0.00  0.00    +0.000 C 
ENDBRANCH  29  31
ENDBRANCH  28  29
ENDBRANCH  27  28
ENDBRANCH  26  27
ENDBRANCH  25  26
ENDBRANCH   1  25
TORSDOF 11
ENDMDL
MODEL 8
REMARK VINA RESULT:      -7.5      1.407      1.764
REMARK  Name = 
REMARK  12 active torsions:
REMARK  status: ('A' for Active; 'I' for Inactive)
REMARK    1  A    between atoms: C_1  and  C_2
REMARK    2  A    between atoms: C_2  and  C_3
REMARK    3  A    between atoms: C_3  and  C_4
REMARK    4  A    between atoms: C_4  and  C_5
REMARK    5  A    between atoms: C_5  and  C_6
REMARK    6  A    between atoms: C_6  and  O_7
REMARK    7  A    between atoms: O_7  and  C_8
REMARK    8  A    between atoms: N_15  and  C1*_16
REMARK    9  A    between atoms: C4*_18  and  C5*_19
REMARK   10  A    between atoms: C5*_19  and  O5*_20
REMARK   11  A    between atoms: C3*_21  and  O3*_22
REMARK   12  A    between atoms: C2*_23  and  O2*_24
REMARK                            x       y       z     vdW  Elec       q    Type
REMARK                         _______ _______ _______ _____ _____    ______ ____
ROOT
ATOM      1  C   UNL     1       6.284   4.425  15.485  0.00  0.00    +0.000 A 
ATOM      2  N   UNL     1       7.092   5.485  15.708  0.00  0.00    +0.000 NA
ATOM      3  C   UNL     1       6.772   6.349  16.697  0.00  0.00    +0.000 A 
ATOM      4  N   UNL     1       7.610   7.434  16.926  0.00  0.00    +0.000 N 
ATOM      5  C   UNL     1       5.601   6.121  17.437  0.00  0.00    +0.000 A 
ATOM      6  N   UNL     1       4.993   6.821  18.457  0.00  0.00    +0.000 NA
ATOM      7  C   UNL     1       3.924   6.111  18.760  0.00  0.00    +0.000 A 
ATOM      8  N   UNL     1       3.826   4.980  17.990  0.00  0.00    +0.000 N 
ATOM      9  C   UNL     1       4.873   4.995  17.109  0.00  0.00    +0.000 A 
ATOM     10  N   UNL     1       5.149   4.112  16.137  0.00  0.00    +0.000 NA
ATOM     11  H   UNL     1       8.153   7.679  16.108  0.00  0.00    +0.000 HD
ATOM     12  H   UNL     1       7.156   8.188  17.431  0.00  0.00    +0.000 HD
ENDROOT
BRANCH   8  13
ATOM     13  C1* UNL     1       2.815   3.956  18.140  0.00  0.00    +0.000 C 
ATOM     14  O4* UNL     1       1.725   4.484  18.927  0.00  0.00    +0.000 OA
ATOM     15  C4* UNL     1       1.327   3.486  19.899  0.00  0.00    +0.000 C 
ATOM     16  C3* UNL     1       2.024   2.189  19.497  0.00  0.00    +0.000 C 
ATOM     17  C2* UNL     1       3.290   2.663  18.799  0.00  0.00    +0.000 C 
BRANCH  16  18
ATOM     18  O3* UNL     1       1.249   1.446  18.534  0.00  0.00    +0.000 OA
ATOM     19  H3* UNL     1       0.384   1.879  18.416  0.00  0.00    +0.000 HD
ENDBRANCH  16  18
BRANCH  17  20
ATOM     20  O2* UNL     1       3.743   1.705  17.840  0.00  0.00    +0.000 OA
ATOM     21  H2* UNL     1       3.300   1.936  16.995  0.00  0.00    +0.000 HD
ENDBRANCH  17  20
BRANCH  15  22
ATOM     22  C5* UNL     1       1.693   3.956  21.309  0.00  0.00    +0.000 C 
BRANCH  22  23
ATOM     23  O5* UNL     1       1.974   2.829  22.136  0.00  0.00    +0.000 OA
ATOM     24  H5* UNL     1       2.172   3.190  23.023  0.00  0.00    +0.000 HD
ENDBRANCH  22  23
ENDBRANCH  15  22
ENDBRANCH   8  13
BRANCH   1  25
ATOM     25  O   UNL     1       6.580   3.572  14.438  0.00  0.00    +0.000 OA
BRANCH  25  26
ATOM     26  C   UNL     1       5.940   3.954  13.219  0.00  0.00    +0.000 C 
BRANCH  26  27
ATOM     27  C   UNL     1       6.993   3.992  12.110  0.00  0.00    +0.000 C 
BRANCH  27  28
ATOM     28  C   UNL     1       7.157   2.625  11.442  0.00  0.00    +0.000 C 
BRANCH  28  29
ATOM     29  C   UNL     1       5.858   1.814  11.477  0.00  0.00    +0.000 C 
BRANCH  29  31
ATOM     30  C   UNL     1       6.188  -0.690  11.514  0.00  0.00    +0.000 C 
ATOM     31  C   UNL     1       5.975   0.537  10.641  0.00  0.00    +0.000 C 
ENDBRANCH  29  31
ENDBRANCH  28  29
ENDBRANCH  27  28
ENDBRANCH  26  27
ENDBRANCH  25  26
ENDBRANCH   1  25
TORSDOF 11
ENDMDL
MODEL 9
REMARK VINA RESULT:      -7.4      3.956      7.537
REMARK  Name = 
REMARK  12 active torsions:
REMARK  status: ('A' for Active; 'I' for Inactive)
REMARK    1  A    between atoms: C_1  and  C_2
REMARK    2  A    between atoms: C_2  and  C_3
REMARK    3  A    between atoms: C_3  and  C_4
REMARK    4  A    between atoms: C_4  and  C_5
REMARK    5  A    between atoms: C_5  and  C_6
REMARK    6  A    between atoms: C_6  and  O_7
REMARK    7  A    between atoms: O_7  and  C_8
REMARK    8  A    between atoms: N_15  and  C1*_16
REMARK    9  A    between atoms: C4*_18  and  C5*_19
REMARK   10  A    between atoms: C5*_19  and  O5*_20
REMARK   11  A    between atoms: C3*_21  and  O3*_22
REMARK   12  A    between atoms: C2*_23  and  O2*_24
REMARK                            x       y       z     vdW  Elec       q    Type
REMARK                         _______ _______ _______ _____ _____    ______ ____
ROOT
ATOM      1  C   UNL     1       1.996   6.258  20.298  0.00  0.00    +0.000 A 
ATOM      2  N   UNL     1       1.294   5.235  20.834  0.00  0.00    +0.000 NA
ATOM      3  C   UNL     1       1.594   3.973  20.456  0.00  0.00    +0.000 A 
ATOM      4  N   UNL     1       0.872   2.925  21.016  0.00  0.00    +0.000 N 
ATOM      5  C   UNL     1       2.608   3.778  19.505  0.00  0.00    +0.000 A 
ATOM      6  N   UNL     1       3.111   2.647  18.898  0.00  0.00    +0.000 NA
ATOM      7  C   UNL     1       4.064   3.089  18.102  0.00  0.00    +0.000 A 
ATOM      8  N   UNL     1       4.205   4.452  18.181  0.00  0.00    +0.000 N 
ATOM      9  C   UNL     1       3.250   4.911  19.046  0.00  0.00    +0.000 A 
ATOM     10  N   UNL     1       2.986   6.182  19.389  0.00  0.00    +0.000 NA
ATOM     11  H   UNL     1      -0.035   3.219  21.351  0.00  0.00    +0.000 HD
ATOM     12  H   UNL     1       0.916   2.074  20.466  0.00  0.00    +0.000 HD
ENDROOT
BRANCH   8  13
ATOM     13  C1* UNL     1       5.219   5.225  17.497  0.00  0.00    +0.000 C 
ATOM     14  O4* UNL     1       4.714   5.620  16.202  0.00  0.00    +0.000 OA
ATOM     15  C4* UNL     1       5.754   5.414  15.214  0.00  0.00    +0.000 C 
ATOM     16  C3* UNL     1       7.040   5.142  15.990  0.00  0.00    +0.000 C 
ATOM     17  C2* UNL     1       6.550   4.508  17.284  0.00  0.00    +0.000 C 
BRANCH  16  18
ATOM     18  O3* UNL     1       7.721   6.364  16.335  0.00  0.00    +0.000 OA
ATOM     19  H3* UNL     1       7.504   7.049  15.676  0.00  0.00    +0.000 HD
ENDBRANCH  16  18
BRANCH  17  20
ATOM     20  O2* UNL     1       7.467   4.746  18.356  0.00  0.00    +0.000 OA
ATOM     21  H2* UNL     1       8.354   4.821  17.943  0.00  0.00    +0.000 HD
ENDBRANCH  17  20
BRANCH  15  22
ATOM     22  C5* UNL     1       5.361   4.270  14.276  0.00  0.00    +0.000 C 
BRANCH  22  23
ATOM     23  O5* UNL     1       6.511   3.491  13.957  0.00  0.00    +0.000 OA
ATOM     24  H5* UNL     1       7.273   3.963  14.347  0.00  0.00    +0.000 HD
ENDBRANCH  22  23
ENDBRANCH  15  22
ENDBRANCH   8  13
BRANCH   1  25
ATOM     25  O   UNL     1       1.653   7.552  20.642  0.00  0.00    +0.000 OA
BRANCH  25  26
ATOM     26  C   UNL     1       1.758   8.460  19.543  0.00  0.00    +0.000 C 
BRANCH  26  27
ATOM     27  C   UNL     1       0.784   9.617  19.776  0.00  0.00    +0.000 C 
BRANCH  27  28
ATOM     28  C   UNL     1       0.525  10.402  18.489  0.00  0.00    +0.000 C 
BRANCH  28  29
ATOM     29  C   UNL     1      -0.948  10.801  18.351  0.00  0.00    +0.000 C 
BRANCH  29  31
ATOM     30  C   UNL     1      -2.467  10.516  16.352  0.00  0.00    +0.000 C 
ATOM     31  C   UNL     1      -1.715   9.811  17.470  0.00  0.00    +0.000 C 
ENDBRANCH  29  31
ENDBRANCH  28  29
ENDBRANCH  27  28
ENDBRANCH  26  27
ENDBRANCH  25  26
ENDBRANCH   1  25
TORSDOF 11
ENDMDL
