MODEL 1
REMARK VINA RESULT:      -7.2      0.000      0.000
REMARK  Name = 
REMARK  5 active torsions:
REMARK  status: ('A' for Active; 'I' for Inactive)
REMARK    1  A    between atoms: C_1  and  C_2
REMARK    2  A    between atoms: C_8  and  C_10
REMARK    3  A    between atoms: C_10  and  N_11
REMARK    4  A    between atoms: C_15  and  C_17
REMARK    5  A    between atoms: C_17  and  C_18
REMARK                            x       y       z     vdW  Elec       q    Type
REMARK                         _______ _______ _______ _____ _____    ______ ____
ROOT
ATOM      1  N   UNL     1       4.072   6.640  18.398  0.00  0.00    +0.000 NA
ATOM      2  C   UNL     1       4.997   5.591  18.895  0.00  0.00    +0.000 C 
ATOM      3  C   UNL     1       5.399   4.544  17.838  0.00  0.00    +0.000 C 
ATOM      4  N   UNL     1       5.883   5.183  16.607  0.00  0.00    +0.000 N 
ATOM      5  C   UNL     1       7.150   4.884  16.133  0.00  0.00    +0.000 C 
ATOM      6  O   UNL     1       7.916   4.130  16.741  0.00  0.00    +0.000 OA
ATOM      7  C   UNL     1       5.003   6.232  16.078  0.00  0.00    +0.000 C 
ATOM      8  C   UNL     1       4.651   7.249  17.181  0.00  0.00    +0.000 C 
ENDROOT
BRANCH   1   9
ATOM      9  C   UNL     1       2.709   6.130  18.141  0.00  0.00    +0.000 C 
BRANCH   9  17
ATOM     10  C   UNL     1       2.375   3.227  17.227  0.00  0.00    +0.000 C 
ATOM     11  C   UNL     1       1.940   3.091  18.681  0.00  0.00    +0.000 C 
ATOM     12  C   UNL     1       2.972   2.258  19.461  0.00  0.00    +0.000 C 
ATOM     13  C   UNL     1       2.420   1.864  20.834  0.00  0.00    +0.000 C 
ATOM     14  C   UNL     1       1.929   3.087  21.608  0.00  0.00    +0.000 C 
ATOM     15  C   UNL     1       0.955   3.911  20.766  0.00  0.00    +0.000 C 
ATOM     16  N   UNL     1       1.575   4.283  19.487  0.00  0.00    +0.000 N 
ATOM     17  C   UNL     1       2.042   5.592  19.406  0.00  0.00    +0.000 C 
ATOM     18  O   UNL     1       1.895   6.386  20.346  0.00  0.00    +0.000 OA
ENDBRANCH   9  17
ENDBRANCH   1   9
BRANCH   5  19
ATOM     19  C   UNL     1       7.600   5.497  14.818  0.00  0.00    +0.000 C 
BRANCH  19  20
ATOM     20  C   UNL     1       7.142   4.689  13.658  0.00  0.00    +0.000 A 
ATOM     21  C   UNL     1       6.108   3.724  13.608  0.00  0.00    +0.000 A 
ATOM     22  C   UNL     1       6.103   3.304  12.305  0.00  0.00    +0.000 A 
ATOM     23  O   UNL     1       7.059   3.968  11.611  0.00  0.00    +0.000 OA
ATOM     24  N   UNL     1       7.715   4.845  12.456  0.00  0.00    +0.000 NA
ENDBRANCH  19  20
ENDBRANCH   5  19
TORSDOF 4
ENDMDL
MODEL 2
REMARK VINA RESULT:      -6.7      1.654      2.229
REMARK  Name = 
REMARK  5 active torsions:
REMARK  status: ('A' for Active; 'I' for Inactive)
REMARK    1  A    between atoms: C_1  and  C_2
REMARK    2  A    between atoms: C_8  and  C_10
REMARK    3  A    between atoms: C_10  and  N_11
REMARK    4  A    between atoms: C_15  and  C_17
REMARK    5  A    between atoms: C_17  and  C_18
REMARK                            x       y       z     vdW  Elec       q    Type
REMARK                         _______ _______ _______ _____ _____    ______ ____
ROOT
ATOM      1  N   UNL     1       5.444   5.706  17.103  0.00  0.00    +0.000 NA
ATOM      2  C   UNL     1       6.912   5.851  16.948  0.00  0.00    +0.000 C 
ATOM      3  C   UNL     1       7.556   4.824  15.996  0.00  0.00    +0.000 C 
ATOM      4  N   UNL     1       6.858   4.778  14.705  0.00  0.00    +0.000 N 
ATOM      5  C   UNL     1       7.563   5.016  13.536  0.00  0.00    +0.000 C 
ATOM      6  O   UNL     1       8.760   5.318  13.544  0.00  0.00    +0.000 OA
ATOM      7  C   UNL     1       5.400   4.640  14.806  0.00  0.00    +0.000 C 
ATOM      8  C   UNL     1       4.821   5.701  15.761  0.00  0.00    +0.000 C 
ENDROOT
BRANCH   1   9
ATOM      9  C   UNL     1       5.061   4.503  17.871  0.00  0.00    +0.000 C 
BRANCH   9  17
ATOM     10  C   UNL     1       2.400   3.187  17.121  0.00  0.00    +0.000 C 
ATOM     11  C   UNL     1       2.105   3.560  18.569  0.00  0.00    +0.000 C 
ATOM     12  C   UNL     1       1.983   2.286  19.424  0.00  0.00    +0.000 C 
ATOM     13  C   UNL     1       1.404   2.615  20.803  0.00  0.00    +0.000 C 
ATOM     14  C   UNL     1       2.201   3.723  21.490  0.00  0.00    +0.000 C 
ATOM     15  C   UNL     1       2.344   4.940  20.576  0.00  0.00    +0.000 C 
ATOM     16  N   UNL     1       2.943   4.547  19.294  0.00  0.00    +0.000 N 
ATOM     17  C   UNL     1       4.295   4.847  19.147  0.00  0.00    +0.000 C 
ATOM     18  O   UNL     1       4.921   5.445  20.034  0.00  0.00    +0.000 OA
ENDBRANCH   9  17
ENDBRANCH   1   9
BRANCH   5  19
ATOM     19  C   UNL     1       6.837   4.887  12.209  0.00  0.00    +0.000 C 
BRANCH  19  20
ATOM     20  C   UNL     1       6.652   3.463  11.827  0.00  0.00    +0.000 A 
ATOM     21  C   UNL     1       5.457   2.706  11.795  0.00  0.00    +0.000 A 
ATOM     22  C   UNL     1       5.854   1.469  11.361  0.00  0.00    +0.000 A 
ATOM     23  O   UNL     1       7.190   1.474  11.139  0.00  0.00    +0.000 OA
ATOM     24  N   UNL     1       7.699   2.728  11.427  0.00  0.00    +0.000 NA
ENDBRANCH  19  20
ENDBRANCH   5  19
TORSDOF 4
ENDMDL
MODEL 3
REMARK VINA RESULT:      -6.5      2.571      4.505
REMARK  Name = 
REMARK  5 active torsions:
REMARK  status: ('A' for Active; 'I' for Inactive)
REMARK    1  A    between atoms: C_1  and  C_2
REMARK    2  A    between atoms: C_8  and  C_10
REMARK    3  A    between atoms: C_10  and  N_11
REMARK    4  A    between atoms: C_15  and  C_17
REMARK    5  A    between atoms: C_17  and  C_18
REMARK                            x       y       z     vdW  Elec       q    Type
REMARK                         _______ _______ _______ _____ _____    ______ ____
ROOT
ATOM      1  N   UNL     1       2.733   3.894  18.651  0.00  0.00    +0.000 NA
ATOM      2  C   UNL     1       3.186   3.350  17.346  0.00  0.00    +0.000 C 
ATOM      3  C   UNL     1       4.164   4.263  16.581  0.00  0.00    +0.000 C 
ATOM      4  N   UNL     1       5.284   4.683  17.433  0.00  0.00    +0.000 N 
ATOM      5  C   UNL     1       6.584   4.409  17.040  0.00  0.00    +0.000 C 
ATOM      6  O   UNL     1       6.837   3.774  16.013  0.00  0.00    +0.000 OA
ATOM      7  C   UNL     1       4.886   5.225  18.738  0.00  0.00    +0.000 C 
ATOM      8  C   UNL     1       3.920   4.260  19.453  0.00  0.00    +0.000 C 
ENDROOT
BRANCH   1   9
ATOM      9  C   UNL     1       1.814   5.042  18.508  0.00  0.00    +0.000 C 
BRANCH   9  17
ATOM     10  C   UNL     1       2.785   7.788  17.563  0.00  0.00    +0.000 C 
ATOM     11  C   UNL     1       2.264   8.161  18.946  0.00  0.00    +0.000 C 
ATOM     12  C   UNL     1       1.016   9.052  18.814  0.00  0.00    +0.000 C 
ATOM     13  C   UNL     1       0.652   9.673  20.166  0.00  0.00    +0.000 C 
ATOM     14  C   UNL     1       0.512   8.603  21.249  0.00  0.00    +0.000 C 
ATOM     15  C   UNL     1       1.751   7.709  21.296  0.00  0.00    +0.000 C 
ATOM     16  N   UNL     1       2.007   7.121  19.974  0.00  0.00    +0.000 N 
ATOM     17  C   UNL     1       1.614   5.794  19.823  0.00  0.00    +0.000 C 
ATOM     18  O   UNL     1       1.123   5.158  20.765  0.00  0.00    +0.000 OA
ENDBRANCH   9  17
ENDBRANCH   1   9
BRANCH   5  19
ATOM     19  C   UNL     1       7.728   4.920  17.898  0.00  0.00    +0.000 C 
BRANCH  19  20
ATOM     20  C   UNL     1       7.844   6.400  17.822  0.00  0.00    +0.000 A 
ATOM     21  C   UNL     1       8.299   7.301  18.814  0.00  0.00    +0.000 A 
ATOM     22  C   UNL     1       8.213   8.530  18.217  0.00  0.00    +0.000 A 
ATOM     23  O   UNL     1       7.745   8.388  16.953  0.00  0.00    +0.000 OA
ATOM     24  N   UNL     1       7.514   7.048  16.696  0.00  0.00    +0.000 NA
ENDBRANCH  19  20
ENDBRANCH   5  19
TORSDOF 4
ENDMDL
MODEL 4
REMARK VINA RESULT:      -6.5      2.566      3.845
REMARK  Name = 
REMARK  5 active torsions:
REMARK  status: ('A' for Active; 'I' for Inactive)
REMARK    1  A    between atoms: C_1  and  C_2
REMARK    2  A    between atoms: C_8  and  C_10
REMARK    3  A    between atoms: C_10  and  N_11
REMARK    4  A    between atoms: C_15  and  C_17
REMARK    5  A    between atoms: C_17  and  C_18
REMARK                            x       y       z     vdW  Elec       q    Type
REMARK                         _______ _______ _______ _____ _____    ______ ____
ROOT
ATOM      1  N   UNL     1       3.404   5.438  19.400  0.00  0.00    +0.000 NA
ATOM      2  C   UNL     1       3.347   4.070  18.829  0.00  0.00    +0.000 C 
ATOM      3  C   UNL     1       3.537   4.010  17.300  0.00  0.00    +0.000 C 
ATOM      4  N   UNL     1       4.737   4.745  16.879  0.00  0.00    +0.000 N 
ATOM      5  C   UNL     1       5.725   4.090  16.163  0.00  0.00    +0.000 C 
ATOM      6  O   UNL     1       5.656   2.885  15.904  0.00  0.00    +0.000 OA
ATOM      7  C   UNL     1       4.840   6.105  17.423  0.00  0.00    +0.000 C 
ATOM      8  C   UNL     1       4.653   6.090  18.953  0.00  0.00    +0.000 C 
ENDROOT
BRANCH   1   9
ATOM      9  C   UNL     1       2.223   6.256  19.053  0.00  0.00    +0.000 C 
BRANCH   9  17
ATOM     10  C   UNL     1       2.251   9.011  17.716  0.00  0.00    +0.000 C 
ATOM     11  C   UNL     1       1.560   9.367  19.027  0.00  0.00    +0.000 C 
ATOM     12  C   UNL     1       0.092   9.746  18.760  0.00  0.00    +0.000 C 
ATOM     13  C   UNL     1      -0.536  10.382  20.003  0.00  0.00    +0.000 C 
ATOM     14  C   UNL     1      -0.362   9.490  21.232  0.00  0.00    +0.000 C 
ATOM     15  C   UNL     1       1.104   9.094  21.416  0.00  0.00    +0.000 C 
ATOM     16  N   UNL     1       1.616   8.455  20.196  0.00  0.00    +0.000 N 
ATOM     17  C   UNL     1       1.707   7.066  20.241  0.00  0.00    +0.000 C 
ATOM     18  O   UNL     1       1.412   6.436  21.266  0.00  0.00    +0.000 OA
ENDBRANCH   9  17
ENDBRANCH   1   9
BRANCH   5  19
ATOM     19  C   UNL     1       6.920   4.888  15.672  0.00  0.00    +0.000 C 
BRANCH  19  20
ATOM     20  C   UNL     1       7.089   4.764  14.201  0.00  0.00    +0.000 A 
ATOM     21  C   UNL     1       6.413   3.902  13.304  0.00  0.00    +0.000 A 
ATOM     22  C   UNL     1       6.941   4.210  12.079  0.00  0.00    +0.000 A 
ATOM     23  O   UNL     1       7.866   5.190  12.217  0.00  0.00    +0.000 OA
ATOM     24  N   UNL     1       7.962   5.547  13.551  0.00  0.00    +0.000 NA
ENDBRANCH  19  20
ENDBRANCH   5  19
TORSDOF 4
ENDMDL
MODEL 5
REMARK VINA RESULT:      -6.4      1.929      2.840
REMARK  Name = 
REMARK  5 active torsions:
REMARK  status: ('A' for Active; 'I' for Inactive)
REMARK    1  A    between atoms: C_1  and  C_2
REMARK    2  A    between atoms: C_8  and  C_10
REMARK    3  A    between atoms: C_10  and  N_11
REMARK    4  A    between atoms: C_15  and  C_17
REMARK    5  A    between atoms: C_17  and  C_18
REMARK                            x       y       z     vdW  Elec       q    Type
REMARK                         _______ _______ _______ _____ _____    ______ ____
ROOT
ATOM      1  N   UNL     1       4.572   5.325  17.267  0.00  0.00    +0.000 NA
ATOM      2  C   UNL     1       5.199   6.409  16.471  0.00  0.00    +0.000 C 
ATOM      3  C   UNL     1       6.591   6.063  15.909  0.00  0.00    +0.000 C 
ATOM      4  N   UNL     1       6.578   4.779  15.195  0.00  0.00    +0.000 N 
ATOM      5  C   UNL     1       6.980   4.728  13.871  0.00  0.00    +0.000 C 
ATOM      6  O   UNL     1       7.306   5.742  13.246  0.00  0.00    +0.000 OA
ATOM      7  C   UNL     1       5.963   3.674  15.941  0.00  0.00    +0.000 C 
ATOM      8  C   UNL     1       4.572   4.084  16.463  0.00  0.00    +0.000 C 
ENDROOT
BRANCH   1   9
ATOM      9  C   UNL     1       5.231   5.113  18.572  0.00  0.00    +0.000 C 
BRANCH   9  17
ATOM     10  C   UNL     1       2.637   6.480  19.454  0.00  0.00    +0.000 C 
ATOM     11  C   UNL     1       2.351   5.058  19.921  0.00  0.00    +0.000 C 
ATOM     12  C   UNL     1       1.218   4.448  19.077  0.00  0.00    +0.000 C 
ATOM     13  C   UNL     1       0.717   3.145  19.707  0.00  0.00    +0.000 C 
ATOM     14  C   UNL     1       1.868   2.171  19.958  0.00  0.00    +0.000 C 
ATOM     15  C   UNL     1       2.992   2.845  20.747  0.00  0.00    +0.000 C 
ATOM     16  N   UNL     1       3.441   4.060  20.055  0.00  0.00    +0.000 N 
ATOM     17  C   UNL     1       4.631   3.938  19.342  0.00  0.00    +0.000 C 
ATOM     18  O   UNL     1       5.273   2.878  19.341  0.00  0.00    +0.000 OA
ENDBRANCH   9  17
ENDBRANCH   1   9
BRANCH   5  19
ATOM     19  C   UNL     1       7.031   3.379  13.176  0.00  0.00    +0.000 C 
BRANCH  19  20
ATOM     20  C   UNL     1       5.834   3.161  12.323  0.00  0.00    +0.000 A 
ATOM     21  C   UNL     1       4.690   3.983  12.181  0.00  0.00    +0.000 A 
ATOM     22  C   UNL     1       3.912   3.322  11.269  0.00  0.00    +0.000 A 
ATOM     23  O   UNL     1       4.537   2.185  10.880  0.00  0.00    +0.000 OA
ATOM     24  N   UNL     1       5.750   2.079  11.537  0.00  0.00    +0.000 NA
ENDBRANCH  19  20
ENDBRANCH   5  19
TORSDOF 4
ENDMDL
MODEL 6
REMARK VINA RESULT:      -6.3      1.609      2.193
REMARK  Name = 
REMARK  5 active torsions:
REMARK  status: ('A' for Active; 'I' for Inactive)
REMARK    1  A    between atoms: C_1  and  C_2
REMARK    2  A    between atoms: C_8  and  C_10
REMARK    3  A    between atoms: C_10  and  N_11
REMARK    4  A    between atoms: C_15  and  C_17
REMARK    5  A    between atoms: C_17  and  C_18
REMARK                            x       y       z     vdW  Elec       q    Type
REMARK                         _______ _______ _______ _____ _____    ______ ____
ROOT
ATOM      1  N   UNL     1       5.530   5.850  17.306  0.00  0.00    +0.000 NA
ATOM      2  C   UNL     1       7.001   5.794  17.119  0.00  0.00    +0.000 C 
ATOM      3  C   UNL     1       7.479   4.686  16.161  0.00  0.00    +0.000 C 
ATOM      4  N   UNL     1       6.753   4.729  14.885  0.00  0.00    +0.000 N 
ATOM      5  C   UNL     1       7.457   4.864  13.701  0.00  0.00    +0.000 C 
ATOM      6  O   UNL     1       8.684   5.001  13.680  0.00  0.00    +0.000 OA
ATOM      7  C   UNL     1       5.292   4.789  15.019  0.00  0.00    +0.000 C 
ATOM      8  C   UNL     1       4.883   5.923  15.978  0.00  0.00    +0.000 C 
ENDROOT
BRANCH   1   9
ATOM      9  C   UNL     1       5.005   4.713  18.091  0.00  0.00    +0.000 C 
BRANCH   9  17
ATOM     10  C   UNL     1       3.632   1.985  17.876  0.00  0.00    +0.000 C 
ATOM     11  C   UNL     1       2.660   2.690  18.814  0.00  0.00    +0.000 C 
ATOM     12  C   UNL     1       2.722   2.050  20.212  0.00  0.00    +0.000 C 
ATOM     13  C   UNL     1       1.560   2.539  21.081  0.00  0.00    +0.000 C 
ATOM     14  C   UNL     1       1.502   4.066  21.124  0.00  0.00    +0.000 C 
ATOM     15  C   UNL     1       1.504   4.652  19.711  0.00  0.00    +0.000 C 
ATOM     16  N   UNL     1       2.669   4.167  18.960  0.00  0.00    +0.000 N 
ATOM     17  C   UNL     1       3.725   5.068  18.844  0.00  0.00    +0.000 C 
ATOM     18  O   UNL     1       3.647   6.212  19.314  0.00  0.00    +0.000 OA
ENDBRANCH   9  17
ENDBRANCH   1   9
BRANCH   5  19
ATOM     19  C   UNL     1       6.692   4.829  12.389  0.00  0.00    +0.000 C 
BRANCH  19  20
ATOM     20  C   UNL     1       6.518   3.437  11.899  0.00  0.00    +0.000 A 
ATOM     21  C   UNL     1       7.503   2.539  11.422  0.00  0.00    +0.000 A 
ATOM     22  C   UNL     1       6.804   1.402  11.119  0.00  0.00    +0.000 A 
ATOM     23  O   UNL     1       5.491   1.590  11.396  0.00  0.00    +0.000 OA
ATOM     24  N   UNL     1       5.304   2.868  11.891  0.00  0.00    +0.000 NA
ENDBRANCH  19  20
ENDBRANCH   5  19
TORSDOF 4
ENDMDL
MODEL 7
REMARK VINA RESULT:      -6.3      3.256      4.703
REMARK  Name = 
REMARK  5 active torsions:
REMARK  status: ('A' for Active; 'I' for Inactive)
REMARK    1  A    between atoms: C_1  and  C_2
REMARK    2  A    between atoms: C_8  and  C_10
REMARK    3  A    between atoms: C_10  and  N_11
REMARK    4  A    between atoms: C_15  and  C_17
REMARK    5  A    between atoms: C_17  and  C_18
REMARK                            x       y       z     vdW  Elec       q    Type
REMARK                         _______ _______ _______ _____ _____    ______ ____
ROOT
ATOM      1  N   UNL     1       2.448   5.982  19.847  0.00  0.00    +0.000 NA
ATOM      2  C   UNL     1       1.990   4.788  19.093  0.00  0.00    +0.000 C 
ATOM      3  C   UNL     1       2.542   4.691  17.658  0.00  0.00    +0.000 C 
ATOM      4  N   UNL     1       4.003   4.844  17.633  0.00  0.00    +0.000 N 
ATOM      5  C   UNL     1       4.786   3.844  17.081  0.00  0.00    +0.000 C 
ATOM      6  O   UNL     1       4.300   2.795  16.649  0.00  0.00    +0.000 OA
ATOM      7  C   UNL     1       4.505   6.010  18.370  0.00  0.00    +0.000 C 
ATOM      8  C   UNL     1       3.925   6.039  19.797  0.00  0.00    +0.000 C 
ENDROOT
BRANCH   1   9
ATOM      9  C   UNL     1       1.850   7.239  19.353  0.00  0.00    +0.000 C 
BRANCH   9  17
ATOM     10  C   UNL     1       1.760   9.863  17.776  0.00  0.00    +0.000 C 
ATOM     11  C   UNL     1       1.130  10.326  19.084  0.00  0.00    +0.000 C 
ATOM     12  C   UNL     1      -0.356  10.659  18.860  0.00  0.00    +0.000 C 
ATOM     13  C   UNL     1      -0.932  11.396  20.072  0.00  0.00    +0.000 C 
ATOM     14  C   UNL     1      -0.681  10.620  21.365  0.00  0.00    +0.000 C 
ATOM     15  C   UNL     1       0.799  10.262  21.508  0.00  0.00    +0.000 C 
ATOM     16  N   UNL     1       1.261   9.524  20.326  0.00  0.00    +0.000 N 
ATOM     17  C   UNL     1       1.380   8.146  20.489  0.00  0.00    +0.000 C 
ATOM     18  O   UNL     1       1.148   7.606  21.580  0.00  0.00    +0.000 OA
ENDBRANCH   9  17
ENDBRANCH   1   9
BRANCH   5  19
ATOM     19  C   UNL     1       6.287   4.057  16.997  0.00  0.00    +0.000 C 
BRANCH  19  20
ATOM     20  C   UNL     1       6.703   4.457  15.628  0.00  0.00    +0.000 A 
ATOM     21  C   UNL     1       6.278   3.927  14.385  0.00  0.00    +0.000 A 
ATOM     22  C   UNL     1       6.959   4.664  13.455  0.00  0.00    +0.000 A 
ATOM     23  O   UNL     1       7.737   5.579  14.081  0.00  0.00    +0.000 OA
ATOM     24  N   UNL     1       7.578   5.457  15.451  0.00  0.00    +0.000 NA
ENDBRANCH  19  20
ENDBRANCH   5  19
TORSDOF 4
ENDMDL
MODEL 8
REMARK VINA RESULT:      -6.3      3.630      5.759
REMARK  Name = 
REMARK  5 active torsions:
REMARK  status: ('A' for Active; 'I' for Inactive)
REMARK    1  A    between atoms: C_1  and  C_2
REMARK    2  A    between atoms: C_8  and  C_10
REMARK    3  A    between atoms: C_10  and  N_11
REMARK    4  A    between atoms: C_15  and  C_17
REMARK    5  A    between atoms: C_17  and  C_18
REMARK                            x       y       z     vdW  Elec       q    Type
REMARK                         _______ _______ _______ _____ _____    ______ ____
ROOT
ATOM      1  N   UNL     1       2.167   6.775  20.570  0.00  0.00    +0.000 NA
ATOM      2  C   UNL     1       1.942   5.347  20.901  0.00  0.00    +0.000 C 
ATOM      3  C   UNL     1       1.535   4.471  19.700  0.00  0.00    +0.000 C 
ATOM      4  N   UNL     1       2.457   4.647  18.570  0.00  0.00    +0.000 N 
ATOM      5  C   UNL     1       3.116   3.547  18.047  0.00  0.00    +0.000 C 
ATOM      6  O   UNL     1       2.995   2.419  18.532  0.00  0.00    +0.000 OA
ATOM      7  C   UNL     1       2.715   6.046  18.206  0.00  0.00    +0.000 C 
ATOM      8  C   UNL     1       3.128   6.859  19.449  0.00  0.00    +0.000 C 
ENDROOT
BRANCH   1   9
ATOM      9  C   UNL     1       0.917   7.497  20.254  0.00  0.00    +0.000 C 
BRANCH   9  17
ATOM     10  C   UNL     1       0.970   9.317  17.792  0.00  0.00    +0.000 C 
ATOM     11  C   UNL     1       0.673  10.351  18.871  0.00  0.00    +0.000 C 
ATOM     12  C   UNL     1      -0.754  10.900  18.693  0.00  0.00    +0.000 C 
ATOM     13  C   UNL     1      -0.971  12.135  19.572  0.00  0.00    +0.000 C 
ATOM     14  C   UNL     1      -0.617  11.848  21.031  0.00  0.00    +0.000 C 
ATOM     15  C   UNL     1       0.786  11.249  21.145  0.00  0.00    +0.000 C 
ATOM     16  N   UNL     1       0.897  10.048  20.307  0.00  0.00    +0.000 N 
ATOM     17  C   UNL     1       0.817   8.835  20.985  0.00  0.00    +0.000 C 
ATOM     18  O   UNL     1       0.704   8.794  22.218  0.00  0.00    +0.000 OA
ENDBRANCH   9  17
ENDBRANCH   1   9
BRANCH   5  19
ATOM     19  C   UNL     1       4.005   3.741  16.831  0.00  0.00    +0.000 C 
BRANCH  19  20
ATOM     20  C   UNL     1       5.400   4.071  17.224  0.00  0.00    +0.000 A 
ATOM     21  C   UNL     1       6.493   4.416  16.394  0.00  0.00    +0.000 A 
ATOM     22  C   UNL     1       7.525   4.630  17.268  0.00  0.00    +0.000 A 
ATOM     23  O   UNL     1       7.091   4.436  18.537  0.00  0.00    +0.000 OA
ATOM     24  N   UNL     1       5.753   4.086  18.517  0.00  0.00    +0.000 NA
ENDBRANCH  19  20
ENDBRANCH   5  19
TORSDOF 4
ENDMDL
MODEL 9
REMARK VINA RESULT:      -6.3      5.942      8.354
REMARK  Name = 
REMARK  5 active torsions:
REMARK  status: ('A' for Active; 'I' for Inactive)
REMARK    1  A    between atoms: C_1  and  C_2
REMARK    2  A    between atoms: C_8  and  C_10
REMARK    3  A    between atoms: C_10  and  N_11
REMARK    4  A    between atoms: C_15  and  C_17
REMARK    5  A    between atoms: C_17  and  C_18
REMARK                            x       y       z     vdW  Elec       q    Type
REMARK                         _______ _______ _______ _____ _____    ______ ____
ROOT
ATOM      1  N   UNL     1      -0.256   9.952  20.352  0.00  0.00    +0.000 NA
ATOM      2  C   UNL     1       0.214   9.820  18.951  0.00  0.00    +0.000 C 
ATOM      3  C   UNL     1       1.674   9.347  18.812  0.00  0.00    +0.000 C 
ATOM      4  N   UNL     1       1.923   8.135  19.604  0.00  0.00    +0.000 N 
ATOM      5  C   UNL     1       2.399   6.994  18.979  0.00  0.00    +0.000 C 
ATOM      6  O   UNL     1       2.577   6.942  17.759  0.00  0.00    +0.000 OA
ATOM      7  C   UNL     1       1.471   8.216  20.998  0.00  0.00    +0.000 C 
ATOM      8  C   UNL     1       0.004   8.682  21.064  0.00  0.00    +0.000 C 
ENDROOT
BRANCH   1   9
ATOM      9  C   UNL     1       0.358  11.094  21.061  0.00  0.00    +0.000 C 
BRANCH   9  17
ATOM     10  C   UNL     1      -1.132  13.289  19.532  0.00  0.00    +0.000 C 
ATOM     11  C   UNL     1      -1.896  13.328  20.850  0.00  0.00    +0.000 C 
ATOM     12  C   UNL     1      -3.334  12.823  20.638  0.00  0.00    +0.000 C 
ATOM     13  C   UNL     1      -4.199  13.125  21.865  0.00  0.00    +0.000 C 
ATOM     14  C   UNL     1      -3.558  12.584  23.143  0.00  0.00    +0.000 C 
ATOM     15  C   UNL     1      -2.112  13.066  23.274  0.00  0.00    +0.000 C 
ATOM     16  N   UNL     1      -1.343  12.702  22.077  0.00  0.00    +0.000 N 
ATOM     17  C   UNL     1      -0.508  11.596  22.215  0.00  0.00    +0.000 C 
ATOM     18  O   UNL     1      -0.404  11.001  23.297  0.00  0.00    +0.000 OA
ENDBRANCH   9  17
ENDBRANCH   1   9
BRANCH   5  19
ATOM     19  C   UNL     1       2.722   5.778  19.829  0.00  0.00    +0.000 C 
BRANCH  19  20
ATOM     20  C   UNL     1       2.054   4.558  19.308  0.00  0.00    +0.000 A 
ATOM     21  C   UNL     1       0.967   3.841  19.863  0.00  0.00    +0.000 A 
ATOM     22  C   UNL     1       0.750   2.820  18.977  0.00  0.00    +0.000 A 
ATOM     23  O   UNL     1       1.634   2.911  17.954  0.00  0.00    +0.000 OA
ATOM     24  N   UNL     1       2.457   4.006  18.154  0.00  0.00    +0.000 NA
ENDBRANCH  19  20
ENDBRANCH   5  19
TORSDOF 4
ENDMDL
