MODEL 1
REMARK VINA RESULT:      -8.2      0.000      0.000
REMARK  Name = 
REMARK  4 active torsions:
REMARK  status: ('A' for Active; 'I' for Inactive)
REMARK    1  A    between atoms: C_1  and  C_2
REMARK    2  A    between atoms: C_5  and  C_6
REMARK    3  A    between atoms: C_12  and  C_13
REMARK    4  A    between atoms: N_21  and  C_22
REMARK                            x       y       z     vdW  Elec       q    Type
REMARK                         _______ _______ _______ _____ _____    ______ ____
ROOT
ATOM      1  C   UNL     1       0.769   9.603  20.619  0.00  0.00    +0.000 C 
ATOM      2  O   UNL     1       1.147   8.874  21.540  0.00  0.00    +0.000 OA
ATOM      3  N   UNL     1      -0.251  10.561  20.835  0.00  0.00    +0.000 N 
ATOM      4  C   UNL     1      -0.562  10.808  22.241  0.00  0.00    +0.000 C 
ATOM      5  C   UNL     1      -0.797  12.279  22.527  0.00  0.00    +0.000 C 
ATOM      6  C   UNL     1      -2.066  12.742  21.858  0.00  0.00    +0.000 C 
ATOM      7  S   UNL     1      -2.115  12.364  20.116  0.00  0.00    +0.000 S 
ATOM      8  C   UNL     1      -1.256  10.840  19.899  0.00  0.00    +0.000 C 
ATOM      9  N   UNL     1      -1.436  10.042  18.891  0.00  0.00    +0.000 NA
ENDROOT
BRANCH   1  15
ATOM     10  C   UNL     1       1.749  12.024  18.481  0.00  0.00    +0.000 C 
ATOM     11  C   UNL     1       1.817  10.551  18.473  0.00  0.00    +0.000 A 
ATOM     12  O   UNL     1       2.437  10.044  17.383  0.00  0.00    +0.000 OA
ATOM     13  N   UNL     1       2.537   8.690  17.490  0.00  0.00    +0.000 NA
ATOM     14  C   UNL     1       1.957   8.343  18.653  0.00  0.00    +0.000 A 
ATOM     15  C   UNL     1       1.430   9.517  19.312  0.00  0.00    +0.000 A 
BRANCH  14  16
ATOM     16  C   UNL     1       1.968   6.926  19.033  0.00  0.00    +0.000 A 
ATOM     17  C   UNL     1       2.048   5.943  18.028  0.00  0.00    +0.000 A 
ATOM     18  C   UNL     1       2.006   4.582  18.345  0.00  0.00    +0.000 A 
ATOM     19  C   UNL     1       1.891   4.181  19.671  0.00  0.00    +0.000 A 
ATOM     20  C   UNL     1       1.814   5.140  20.675  0.00  0.00    +0.000 A 
ATOM     21  C   UNL     1       1.843   6.505  20.362  0.00  0.00    +0.000 A 
ENDBRANCH  14  16
ENDBRANCH   1  15
BRANCH   9  22
ATOM     22  C   UNL     1      -2.340  10.258  17.825  0.00  0.00    +0.000 A 
ATOM     23  C   UNL     1      -3.600  10.849  17.982  0.00  0.00    +0.000 A 
ATOM     24  C   UNL     1      -4.462  11.048  16.902  0.00  0.00    +0.000 A 
ATOM     25  C   UNL     1      -4.038  10.731  15.621  0.00  0.00    +0.000 A 
ATOM     26  C   UNL     1      -2.759  10.218  15.426  0.00  0.00    +0.000 A 
ATOM     27  C   UNL     1      -1.918   9.979  16.523  0.00  0.00    +0.000 A 
ENDBRANCH   9  22
TORSDOF 3
ENDMDL
MODEL 2
REMARK VINA RESULT:      -8.1      8.440     11.777
REMARK  Name = 
REMARK  4 active torsions:
REMARK  status: ('A' for Active; 'I' for Inactive)
REMARK    1  A    between atoms: C_1  and  C_2
REMARK    2  A    between atoms: C_5  and  C_6
REMARK    3  A    between atoms: C_12  and  C_13
REMARK    4  A    between atoms: N_21  and  C_22
REMARK                            x       y       z     vdW  Elec       q    Type
REMARK                         _______ _______ _______ _____ _____    ______ ____
ROOT
ATOM      1  C   UNL     1       8.378  17.236  18.884  0.00  0.00    +0.000 C 
ATOM      2  O   UNL     1       7.822  18.126  18.238  0.00  0.00    +0.000 OA
ATOM      3  N   UNL     1       9.585  16.659  18.418  0.00  0.00    +0.000 N 
ATOM      4  C   UNL     1      10.233  17.400  17.339  0.00  0.00    +0.000 C 
ATOM      5  C   UNL     1      11.740  17.454  17.504  0.00  0.00    +0.000 C 
ATOM      6  C   UNL     1      12.333  16.080  17.317  0.00  0.00    +0.000 C 
ATOM      7  S   UNL     1      11.571  14.844  18.352  0.00  0.00    +0.000 S 
ATOM      8  C   UNL     1       9.874  15.292  18.519  0.00  0.00    +0.000 C 
ATOM      9  N   UNL     1       8.929  14.455  18.820  0.00  0.00    +0.000 NA
ENDROOT
BRANCH   1  15
ATOM     10  C   UNL     1       9.656  17.410  22.003  0.00  0.00    +0.000 C 
ATOM     11  C   UNL     1       8.388  16.920  21.434  0.00  0.00    +0.000 A 
ATOM     12  O   UNL     1       7.518  16.464  22.364  0.00  0.00    +0.000 OA
ATOM     13  N   UNL     1       6.343  16.113  21.772  0.00  0.00    +0.000 NA
ATOM     14  C   UNL     1       6.484  16.335  20.453  0.00  0.00    +0.000 A 
ATOM     15  C   UNL     1       7.817  16.820  20.174  0.00  0.00    +0.000 A 
BRANCH  14  16
ATOM     16  C   UNL     1       5.332  16.075  19.583  0.00  0.00    +0.000 A 
ATOM     17  C   UNL     1       4.207  16.919  19.657  0.00  0.00    +0.000 A 
ATOM     18  C   UNL     1       3.069  16.673  18.884  0.00  0.00    +0.000 A 
ATOM     19  C   UNL     1       3.037  15.584  18.020  0.00  0.00    +0.000 A 
ATOM     20  C   UNL     1       4.141  14.742  17.935  0.00  0.00    +0.000 A 
ATOM     21  C   UNL     1       5.280  14.978  18.716  0.00  0.00    +0.000 A 
ENDBRANCH  14  16
ENDBRANCH   1  15
BRANCH   9  22
ATOM     22  C   UNL     1       9.102  13.071  19.053  0.00  0.00    +0.000 A 
ATOM     23  C   UNL     1       9.292  12.514  20.324  0.00  0.00    +0.000 A 
ATOM     24  C   UNL     1       9.455  11.140  20.512  0.00  0.00    +0.000 A 
ATOM     25  C   UNL     1       9.348  10.284  19.427  0.00  0.00    +0.000 A 
ATOM     26  C   UNL     1       9.078  10.802  18.164  0.00  0.00    +0.000 A 
ATOM     27  C   UNL     1       8.961  12.189  17.979  0.00  0.00    +0.000 A 
ENDBRANCH   9  22
TORSDOF 3
ENDMDL
MODEL 3
REMARK VINA RESULT:      -8.1      7.876     11.308
REMARK  Name = 
REMARK  4 active torsions:
REMARK  status: ('A' for Active; 'I' for Inactive)
REMARK    1  A    between atoms: C_1  and  C_2
REMARK    2  A    between atoms: C_5  and  C_6
REMARK    3  A    between atoms: C_12  and  C_13
REMARK    4  A    between atoms: N_21  and  C_22
REMARK                            x       y       z     vdW  Elec       q    Type
REMARK                         _______ _______ _______ _____ _____    ______ ____
ROOT
ATOM      1  C   UNL     1       7.836  13.942  17.957  0.00  0.00    +0.000 C 
ATOM      2  O   UNL     1       7.134  13.346  17.137  0.00  0.00    +0.000 OA
ATOM      3  N   UNL     1       8.917  13.282  18.590  0.00  0.00    +0.000 N 
ATOM      4  C   UNL     1       9.295  12.012  17.976  0.00  0.00    +0.000 C 
ATOM      5  C   UNL     1      10.799  11.827  17.916  0.00  0.00    +0.000 C 
ATOM      6  C   UNL     1      11.357  11.660  19.307  0.00  0.00    +0.000 C 
ATOM      7  S   UNL     1      10.867  12.966  20.418  0.00  0.00    +0.000 S 
ATOM      8  C   UNL     1       9.243  13.461  19.941  0.00  0.00    +0.000 C 
ATOM      9  N   UNL     1       8.403  14.055  20.733  0.00  0.00    +0.000 NA
ENDROOT
BRANCH   1  15
ATOM     10  C   UNL     1       9.826  16.643  17.581  0.00  0.00    +0.000 C 
ATOM     11  C   UNL     1       8.443  16.438  18.048  0.00  0.00    +0.000 A 
ATOM     12  O   UNL     1       7.805  17.586  18.372  0.00  0.00    +0.000 OA
ATOM     13  N   UNL     1       6.512  17.323  18.709  0.00  0.00    +0.000 NA
ATOM     14  C   UNL     1       6.342  15.992  18.610  0.00  0.00    +0.000 A 
ATOM     15  C   UNL     1       7.585  15.363  18.226  0.00  0.00    +0.000 A 
BRANCH  14  16
ATOM     16  C   UNL     1       5.007  15.446  18.882  0.00  0.00    +0.000 A 
ATOM     17  C   UNL     1       4.664  15.088  20.200  0.00  0.00    +0.000 A 
ATOM     18  C   UNL     1       3.423  14.514  20.491  0.00  0.00    +0.000 A 
ATOM     19  C   UNL     1       2.503  14.294  19.473  0.00  0.00    +0.000 A 
ATOM     20  C   UNL     1       2.827  14.645  18.166  0.00  0.00    +0.000 A 
ATOM     21  C   UNL     1       4.074  15.209  17.867  0.00  0.00    +0.000 A 
ENDBRANCH  14  16
ENDBRANCH   1  15
BRANCH   9  22
ATOM     22  C   UNL     1       8.647  14.389  22.085  0.00  0.00    +0.000 A 
ATOM     23  C   UNL     1       9.222  15.599  22.496  0.00  0.00    +0.000 A 
ATOM     24  C   UNL     1       9.442  15.893  23.843  0.00  0.00    +0.000 A 
ATOM     25  C   UNL     1       9.010  15.005  24.816  0.00  0.00    +0.000 A 
ATOM     26  C   UNL     1       8.362  13.832  24.440  0.00  0.00    +0.000 A 
ATOM     27  C   UNL     1       8.187  13.525  23.081  0.00  0.00    +0.000 A 
ENDBRANCH   9  22
TORSDOF 3
ENDMDL
MODEL 4
REMARK VINA RESULT:      -8.0      7.857     11.249
REMARK  Name = 
REMARK  4 active torsions:
REMARK  status: ('A' for Active; 'I' for Inactive)
REMARK    1  A    between atoms: C_1  and  C_2
REMARK    2  A    between atoms: C_5  and  C_6
REMARK    3  A    between atoms: C_12  and  C_13
REMARK    4  A    between atoms: N_21  and  C_22
REMARK                            x       y       z     vdW  Elec       q    Type
REMARK                         _______ _______ _______ _____ _____    ______ ____
ROOT
ATOM      1  C   UNL     1       7.859  13.934  17.959  0.00  0.00    +0.000 C 
ATOM      2  O   UNL     1       7.196  13.343  17.104  0.00  0.00    +0.000 OA
ATOM      3  N   UNL     1       8.915  13.274  18.633  0.00  0.00    +0.000 N 
ATOM      4  C   UNL     1       9.325  12.011  18.024  0.00  0.00    +0.000 C 
ATOM      5  C   UNL     1      10.832  11.834  18.029  0.00  0.00    +0.000 C 
ATOM      6  C   UNL     1      11.330  11.657  19.441  0.00  0.00    +0.000 C 
ATOM      7  S   UNL     1      10.786  12.951  20.540  0.00  0.00    +0.000 S 
ATOM      8  C   UNL     1       9.182  13.443  19.998  0.00  0.00    +0.000 C 
ATOM      9  N   UNL     1       8.305  14.025  20.758  0.00  0.00    +0.000 NA
ENDROOT
BRANCH   1  15
ATOM     10  C   UNL     1       9.799  16.666  17.547  0.00  0.00    +0.000 C 
ATOM     11  C   UNL     1       8.426  16.440  18.036  0.00  0.00    +0.000 A 
ATOM     12  O   UNL     1       7.776  17.578  18.368  0.00  0.00    +0.000 OA
ATOM     13  N   UNL     1       6.492  17.295  18.725  0.00  0.00    +0.000 NA
ATOM     14  C   UNL     1       6.342  15.962  18.632  0.00  0.00    +0.000 A 
ATOM     15  C   UNL     1       7.590  15.351  18.230  0.00  0.00    +0.000 A 
BRANCH  14  16
ATOM     16  C   UNL     1       5.021  15.394  18.925  0.00  0.00    +0.000 A 
ATOM     17  C   UNL     1       4.071  15.289  17.890  0.00  0.00    +0.000 A 
ATOM     18  C   UNL     1       2.784  14.805  18.140  0.00  0.00    +0.000 A 
ATOM     19  C   UNL     1       2.426  14.412  19.425  0.00  0.00    +0.000 A 
ATOM     20  C   UNL     1       3.354  14.509  20.456  0.00  0.00    +0.000 A 
ATOM     21  C   UNL     1       4.641  15.004  20.214  0.00  0.00    +0.000 A 
ENDBRANCH  14  16
ENDBRANCH   1  15
BRANCH   9  22
ATOM     22  C   UNL     1       8.489  14.349  22.122  0.00  0.00    +0.000 A 
ATOM     23  C   UNL     1       8.188  13.476  23.176  0.00  0.00    +0.000 A 
ATOM     24  C   UNL     1       8.387  13.832  24.511  0.00  0.00    +0.000 A 
ATOM     25  C   UNL     1       8.975  15.051  24.813  0.00  0.00    +0.000 A 
ATOM     26  C   UNL     1       9.360  15.905  23.783  0.00  0.00    +0.000 A 
ATOM     27  C   UNL     1       9.112  15.556  22.446  0.00  0.00    +0.000 A 
ENDBRANCH   9  22
TORSDOF 3
ENDMDL
MODEL 5
REMARK VINA RESULT:      -7.9      3.679      5.376
REMARK  Name = 
REMARK  4 active torsions:
REMARK  status: ('A' for Active; 'I' for Inactive)
REMARK    1  A    between atoms: C_1  and  C_2
REMARK    2  A    between atoms: C_5  and  C_6
REMARK    3  A    between atoms: C_12  and  C_13
REMARK    4  A    between atoms: N_21  and  C_22
REMARK                            x       y       z     vdW  Elec       q    Type
REMARK                         _______ _______ _______ _____ _____    ______ ____
ROOT
ATOM      1  C   UNL     1      -3.917  13.178  21.788  0.00  0.00    +0.000 C 
ATOM      2  O   UNL     1      -4.066  13.006  23.000  0.00  0.00    +0.000 OA
ATOM      3  N   UNL     1      -4.978  12.908  20.890  0.00  0.00    +0.000 N 
ATOM      4  C   UNL     1      -6.281  12.731  21.527  0.00  0.00    +0.000 C 
ATOM      5  C   UNL     1      -7.398  13.393  20.744  0.00  0.00    +0.000 C 
ATOM      6  C   UNL     1      -7.610  12.677  19.434  0.00  0.00    +0.000 C 
ATOM      7  S   UNL     1      -6.112  12.504  18.483  0.00  0.00    +0.000 S 
ATOM      8  C   UNL     1      -4.792  12.311  19.636  0.00  0.00    +0.000 C 
ATOM      9  N   UNL     1      -3.658  11.747  19.353  0.00  0.00    +0.000 NA
ENDROOT
BRANCH   1  15
ATOM     10  C   UNL     1      -3.133  16.281  20.714  0.00  0.00    +0.000 C 
ATOM     11  C   UNL     1      -2.384  15.019  20.859  0.00  0.00    +0.000 A 
ATOM     12  O   UNL     1      -1.079  15.123  20.519  0.00  0.00    +0.000 OA
ATOM     13  N   UNL     1      -0.438  13.946  20.762  0.00  0.00    +0.000 NA
ATOM     14  C   UNL     1      -1.356  13.090  21.245  0.00  0.00    +0.000 A 
ATOM     15  C   UNL     1      -2.653  13.728  21.285  0.00  0.00    +0.000 A 
BRANCH  14  16
ATOM     16  C   UNL     1      -0.910  11.747  21.632  0.00  0.00    +0.000 A 
ATOM     17  C   UNL     1      -0.292  10.922  20.672  0.00  0.00    +0.000 A 
ATOM     18  C   UNL     1       0.098   9.617  20.987  0.00  0.00    +0.000 A 
ATOM     19  C   UNL     1      -0.116   9.117  22.266  0.00  0.00    +0.000 A 
ATOM     20  C   UNL     1      -0.724   9.921  23.226  0.00  0.00    +0.000 A 
ATOM     21  C   UNL     1      -1.127  11.224  22.912  0.00  0.00    +0.000 A 
ENDBRANCH  14  16
ENDBRANCH   1  15
BRANCH   9  22
ATOM     22  C   UNL     1      -3.304  11.200  18.098  0.00  0.00    +0.000 A 
ATOM     23  C   UNL     1      -2.294  10.245  17.924  0.00  0.00    +0.000 A 
ATOM     24  C   UNL     1      -1.978   9.726  16.667  0.00  0.00    +0.000 A 
ATOM     25  C   UNL     1      -2.730  10.098  15.564  0.00  0.00    +0.000 A 
ATOM     26  C   UNL     1      -3.793  10.984  15.722  0.00  0.00    +0.000 A 
ATOM     27  C   UNL     1      -4.073  11.534  16.982  0.00  0.00    +0.000 A 
ENDBRANCH   9  22
TORSDOF 3
ENDMDL
MODEL 6
REMARK VINA RESULT:      -7.9      8.999     11.188
REMARK  Name = 
REMARK  4 active torsions:
REMARK  status: ('A' for Active; 'I' for Inactive)
REMARK    1  A    between atoms: C_1  and  C_2
REMARK    2  A    between atoms: C_5  and  C_6
REMARK    3  A    between atoms: C_12  and  C_13
REMARK    4  A    between atoms: N_21  and  C_22
REMARK                            x       y       z     vdW  Elec       q    Type
REMARK                         _______ _______ _______ _____ _____    ______ ____
ROOT
ATOM      1  C   UNL     1      10.421  15.586  21.578  0.00  0.00    +0.000 C 
ATOM      2  O   UNL     1      11.130  16.173  22.398  0.00  0.00    +0.000 OA
ATOM      3  N   UNL     1      10.427  15.973  20.216  0.00  0.00    +0.000 N 
ATOM      4  C   UNL     1      11.526  16.860  19.844  0.00  0.00    +0.000 C 
ATOM      5  C   UNL     1      12.115  16.510  18.491  0.00  0.00    +0.000 C 
ATOM      6  C   UNL     1      11.118  16.800  17.399  0.00  0.00    +0.000 C 
ATOM      7  S   UNL     1       9.533  16.033  17.678  0.00  0.00    +0.000 S 
ATOM      8  C   UNL     1       9.273  16.015  19.422  0.00  0.00    +0.000 C 
ATOM      9  N   UNL     1       8.104  15.941  19.982  0.00  0.00    +0.000 NA
ENDROOT
BRANCH   1  15
ATOM     10  C   UNL     1       8.098  15.309  24.011  0.00  0.00    +0.000 C 
ATOM     11  C   UNL     1       8.667  14.380  23.018  0.00  0.00    +0.000 A 
ATOM     12  O   UNL     1       8.122  13.143  23.060  0.00  0.00    +0.000 OA
ATOM     13  N   UNL     1       8.634  12.372  22.061  0.00  0.00    +0.000 NA
ATOM     14  C   UNL     1       9.524  13.131  21.396  0.00  0.00    +0.000 A 
ATOM     15  C   UNL     1       9.616  14.437  22.010  0.00  0.00    +0.000 A 
BRANCH  14  16
ATOM     16  C   UNL     1      10.196  12.544  20.231  0.00  0.00    +0.000 A 
ATOM     17  C   UNL     1      11.557  12.191  20.326  0.00  0.00    +0.000 A 
ATOM     18  C   UNL     1      12.246  11.679  19.222  0.00  0.00    +0.000 A 
ATOM     19  C   UNL     1      11.589  11.506  18.011  0.00  0.00    +0.000 A 
ATOM     20  C   UNL     1      10.245  11.848  17.903  0.00  0.00    +0.000 A 
ATOM     21  C   UNL     1       9.552  12.372  19.001  0.00  0.00    +0.000 A 
ENDBRANCH  14  16
ENDBRANCH   1  15
BRANCH   9  22
ATOM     22  C   UNL     1       6.870  15.871  19.296  0.00  0.00    +0.000 A 
ATOM     23  C   UNL     1       6.434  14.740  18.594  0.00  0.00    +0.000 A 
ATOM     24  C   UNL     1       5.205  14.709  17.932  0.00  0.00    +0.000 A 
ATOM     25  C   UNL     1       4.346  15.792  18.034  0.00  0.00    +0.000 A 
ATOM     26  C   UNL     1       4.718  16.898  18.793  0.00  0.00    +0.000 A 
ATOM     27  C   UNL     1       5.976  16.937  19.416  0.00  0.00    +0.000 A 
ENDBRANCH   9  22
TORSDOF 3
ENDMDL
MODEL 7
REMARK VINA RESULT:      -7.9      3.975      7.771
REMARK  Name = 
REMARK  4 active torsions:
REMARK  status: ('A' for Active; 'I' for Inactive)
REMARK    1  A    between atoms: C_1  and  C_2
REMARK    2  A    between atoms: C_5  and  C_6
REMARK    3  A    between atoms: C_12  and  C_13
REMARK    4  A    between atoms: N_21  and  C_22
REMARK                            x       y       z     vdW  Elec       q    Type
REMARK                         _______ _______ _______ _____ _____    ______ ____
ROOT
ATOM      1  C   UNL     1      -2.984  14.819  21.402  0.00  0.00    +0.000 C 
ATOM      2  O   UNL     1      -3.701  15.556  20.722  0.00  0.00    +0.000 OA
ATOM      3  N   UNL     1      -1.581  14.807  21.211  0.00  0.00    +0.000 N 
ATOM      4  C   UNL     1      -1.069  15.916  20.410  0.00  0.00    +0.000 C 
ATOM      5  C   UNL     1       0.230  16.472  20.960  0.00  0.00    +0.000 C 
ATOM      6  C   UNL     1       1.336  15.459  20.803  0.00  0.00    +0.000 C 
ATOM      7  S   UNL     1       0.925  13.864  21.486  0.00  0.00    +0.000 S 
ATOM      8  C   UNL     1      -0.808  13.638  21.253  0.00  0.00    +0.000 C 
ATOM      9  N   UNL     1      -1.391  12.479  21.220  0.00  0.00    +0.000 NA
ENDROOT
BRANCH   1  15
ATOM     10  C   UNL     1      -2.531  14.854  24.748  0.00  0.00    +0.000 C 
ATOM     11  C   UNL     1      -3.366  14.060  23.828  0.00  0.00    +0.000 A 
ATOM     12  O   UNL     1      -4.157  13.160  24.455  0.00  0.00    +0.000 OA
ATOM     13  N   UNL     1      -4.957  12.530  23.551  0.00  0.00    +0.000 NA
ATOM     14  C   UNL     1      -4.651  13.029  22.340  0.00  0.00    +0.000 A 
ATOM     15  C   UNL     1      -3.586  13.999  22.460  0.00  0.00    +0.000 A 
BRANCH  14  16
ATOM     16  C   UNL     1      -5.410  12.542  21.182  0.00  0.00    +0.000 A 
ATOM     17  C   UNL     1      -6.760  12.176  21.347  0.00  0.00    +0.000 A 
ATOM     18  C   UNL     1      -7.501  11.657  20.282  0.00  0.00    +0.000 A 
ATOM     19  C   UNL     1      -6.909  11.501  19.034  0.00  0.00    +0.000 A 
ATOM     20  C   UNL     1      -5.577  11.860  18.855  0.00  0.00    +0.000 A 
ATOM     21  C   UNL     1      -4.827  12.369  19.922  0.00  0.00    +0.000 A 
ENDBRANCH  14  16
ENDBRANCH   1  15
BRANCH   9  22
ATOM     22  C   UNL     1      -0.742  11.230  21.358  0.00  0.00    +0.000 A 
ATOM     23  C   UNL     1      -0.164  10.533  20.289  0.00  0.00    +0.000 A 
ATOM     24  C   UNL     1       0.472   9.303  20.468  0.00  0.00    +0.000 A 
ATOM     25  C   UNL     1       0.613   8.785  21.745  0.00  0.00    +0.000 A 
ATOM     26  C   UNL     1       0.120   9.496  22.836  0.00  0.00    +0.000 A 
ATOM     27  C   UNL     1      -0.558  10.709  22.640  0.00  0.00    +0.000 A 
ENDBRANCH   9  22
TORSDOF 3
ENDMDL
MODEL 8
REMARK VINA RESULT:      -7.8      4.330      7.761
REMARK  Name = 
REMARK  4 active torsions:
REMARK  status: ('A' for Active; 'I' for Inactive)
REMARK    1  A    between atoms: C_1  and  C_2
REMARK    2  A    between atoms: C_5  and  C_6
REMARK    3  A    between atoms: C_12  and  C_13
REMARK    4  A    between atoms: N_21  and  C_22
REMARK                            x       y       z     vdW  Elec       q    Type
REMARK                         _______ _______ _______ _____ _____    ______ ____
ROOT
ATOM      1  C   UNL     1      -4.221  14.989  21.108  0.00  0.00    +0.000 C 
ATOM      2  O   UNL     1      -4.686  15.746  20.253  0.00  0.00    +0.000 OA
ATOM      3  N   UNL     1      -2.977  15.277  21.720  0.00  0.00    +0.000 N 
ATOM      4  C   UNL     1      -2.490  16.635  21.493  0.00  0.00    +0.000 C 
ATOM      5  C   UNL     1      -1.868  17.239  22.738  0.00  0.00    +0.000 C 
ATOM      6  C   UNL     1      -0.587  16.519  23.080  0.00  0.00    +0.000 C 
ATOM      7  S   UNL     1      -0.790  14.752  23.199  0.00  0.00    +0.000 S 
ATOM      8  C   UNL     1      -2.022  14.297  22.022  0.00  0.00    +0.000 C 
ATOM      9  N   UNL     1      -2.139  13.108  21.516  0.00  0.00    +0.000 NA
ENDROOT
BRANCH   1  15
ATOM     10  C   UNL     1      -5.789  14.328  24.023  0.00  0.00    +0.000 C 
ATOM     11  C   UNL     1      -5.626  13.600  22.751  0.00  0.00    +0.000 A 
ATOM     12  O   UNL     1      -6.271  12.413  22.721  0.00  0.00    +0.000 OA
ATOM     13  N   UNL     1      -6.146  11.844  21.489  0.00  0.00    +0.000 NA
ATOM     14  C   UNL     1      -5.399  12.678  20.745  0.00  0.00    +0.000 A 
ATOM     15  C   UNL     1      -4.995  13.819  21.536  0.00  0.00    +0.000 A 
BRANCH  14  16
ATOM     16  C   UNL     1      -5.147  12.315  19.345  0.00  0.00    +0.000 A 
ATOM     17  C   UNL     1      -3.908  11.747  18.992  0.00  0.00    +0.000 A 
ATOM     18  C   UNL     1      -3.610  11.438  17.662  0.00  0.00    +0.000 A 
ATOM     19  C   UNL     1      -4.545  11.684  16.664  0.00  0.00    +0.000 A 
ATOM     20  C   UNL     1      -5.775  12.243  16.998  0.00  0.00    +0.000 A 
ATOM     21  C   UNL     1      -6.074  12.566  18.327  0.00  0.00    +0.000 A 
ENDBRANCH  14  16
ENDBRANCH   1  15
BRANCH   9  22
ATOM     22  C   UNL     1      -1.308  12.003  21.817  0.00  0.00    +0.000 A 
ATOM     23  C   UNL     1      -1.478  11.187  22.942  0.00  0.00    +0.000 A 
ATOM     24  C   UNL     1      -0.638  10.102  23.201  0.00  0.00    +0.000 A 
ATOM     25  C   UNL     1       0.345   9.764  22.284  0.00  0.00    +0.000 A 
ATOM     26  C   UNL     1       0.483  10.508  21.116  0.00  0.00    +0.000 A 
ATOM     27  C   UNL     1      -0.337  11.624  20.888  0.00  0.00    +0.000 A 
ENDBRANCH   9  22
TORSDOF 3
ENDMDL
MODEL 9
REMARK VINA RESULT:      -7.8      7.663     10.985
REMARK  Name = 
REMARK  4 active torsions:
REMARK  status: ('A' for Active; 'I' for Inactive)
REMARK    1  A    between atoms: C_1  and  C_2
REMARK    2  A    between atoms: C_5  and  C_6
REMARK    3  A    between atoms: C_12  and  C_13
REMARK    4  A    between atoms: N_21  and  C_22
REMARK                            x       y       z     vdW  Elec       q    Type
REMARK                         _______ _______ _______ _____ _____    ______ ____
ROOT
ATOM      1  C   UNL     1       7.873  14.061  18.303  0.00  0.00    +0.000 C 
ATOM      2  O   UNL     1       7.281  13.753  17.266  0.00  0.00    +0.000 OA
ATOM      3  N   UNL     1       8.923  13.251  18.797  0.00  0.00    +0.000 N 
ATOM      4  C   UNL     1       9.420  12.258  17.849  0.00  0.00    +0.000 C 
ATOM      5  C   UNL     1      10.931  12.130  17.889  0.00  0.00    +0.000 C 
ATOM      6  C   UNL     1      11.366  11.528  19.201  0.00  0.00    +0.000 C 
ATOM      7  S   UNL     1      10.710  12.391  20.617  0.00  0.00    +0.000 S 
ATOM      8  C   UNL     1       9.114  12.985  20.160  0.00  0.00    +0.000 C 
ATOM      9  N   UNL     1       8.176  13.272  21.010  0.00  0.00    +0.000 NA
ENDROOT
BRANCH   1  15
ATOM     10  C   UNL     1       9.721  16.814  18.939  0.00  0.00    +0.000 C 
ATOM     11  C   UNL     1       8.328  16.419  19.219  0.00  0.00    +0.000 A 
ATOM     12  O   UNL     1       7.609  17.378  19.844  0.00  0.00    +0.000 OA
ATOM     13  N   UNL     1       6.316  16.974  19.989  0.00  0.00    +0.000 NA
ATOM     14  C   UNL     1       6.229  15.738  19.464  0.00  0.00    +0.000 A 
ATOM     15  C   UNL     1       7.526  15.311  18.989  0.00  0.00    +0.000 A 
BRANCH  14  16
ATOM     16  C   UNL     1       4.916  15.084  19.455  0.00  0.00    +0.000 A 
ATOM     17  C   UNL     1       4.207  14.979  18.243  0.00  0.00    +0.000 A 
ATOM     18  C   UNL     1       2.929  14.411  18.202  0.00  0.00    +0.000 A 
ATOM     19  C   UNL     1       2.343  13.935  19.369  0.00  0.00    +0.000 A 
ATOM     20  C   UNL     1       3.032  14.031  20.573  0.00  0.00    +0.000 A 
ATOM     21  C   UNL     1       4.307  14.609  20.622  0.00  0.00    +0.000 A 
ENDBRANCH  14  16
ENDBRANCH   1  15
BRANCH   9  22
ATOM     22  C   UNL     1       8.277  13.152  22.415  0.00  0.00    +0.000 A 
ATOM     23  C   UNL     1       8.506  14.234  23.274  0.00  0.00    +0.000 A 
ATOM     24  C   UNL     1       8.595  14.073  24.658  0.00  0.00    +0.000 A 
ATOM     25  C   UNL     1       8.371  12.825  25.217  0.00  0.00    +0.000 A 
ATOM     26  C   UNL     1       8.059  11.747  24.393  0.00  0.00    +0.000 A 
ATOM     27  C   UNL     1       8.018  11.910  23.000  0.00  0.00    +0.000 A 
ENDBRANCH   9  22
TORSDOF 3
ENDMDL
