MODEL 1
REMARK VINA RESULT:      -9.2      0.000      0.000
REMARK  Name = 
REMARK  7 active torsions:
REMARK  status: ('A' for Active; 'I' for Inactive)
REMARK    1  A    between atoms: S_2  and  N_4
REMARK    2  A    between atoms: S_2  and  C_22
REMARK    3  A    between atoms: N_4  and  C_5
REMARK    4  A    between atoms: N_8  and  C_9
REMARK    5  A    between atoms: C_9  and  C_10
REMARK    6  A    between atoms: C_10  and  C_11
REMARK    7  A    between atoms: C_11  and  C_12
REMARK                            x       y       z     vdW  Elec       q    Type
REMARK                         _______ _______ _______ _____ _____    ______ ____
ROOT
ATOM      1  C   UNL     1       5.817   4.344  16.696  0.00  0.00    +0.000 C 
ATOM      2  C   UNL     1       5.073   5.670  16.700  0.00  0.00    +0.000 C 
ATOM      3  C   UNL     1       6.073   6.602  16.044  0.00  0.00    +0.000 C 
ATOM      4  N   UNL     1       7.380   6.210  16.600  0.00  0.00    +0.000 NA
ATOM      5  C   UNL     1       7.290   4.750  16.827  0.00  0.00    +0.000 C 
ENDROOT
BRANCH   1   6
ATOM      6  N   UNL     1       5.318   3.508  17.810  0.00  0.00    +0.000 NA
ATOM      7  H   UNL     1       5.980   2.787  18.088  0.00  0.00    +0.000 HD
BRANCH   6   9
ATOM      8  O   UNL     1       3.083   3.590  16.616  0.00  0.00    +0.000 OA
ATOM      9  S   UNL     1       3.736   2.907  17.704  0.00  0.00    +0.000 S 
ATOM     10  O   UNL     1       3.819   1.460  17.755  0.00  0.00    +0.000 OA
BRANCH   9  11
ATOM     11  C   UNL     1       2.965   3.476  19.208  0.00  0.00    +0.000 A 
ATOM     12  C   UNL     1       2.685   2.501  20.172  0.00  0.00    +0.000 A 
ATOM     13  C   UNL     1       2.034   2.861  21.339  0.00  0.00    +0.000 A 
ATOM     14  C   UNL     1       1.758   4.194  21.616  0.00  0.00    +0.000 A 
ATOM     15  C   UNL     1       2.025   5.185  20.666  0.00  0.00    +0.000 A 
ATOM     16  C   UNL     1       1.675   6.514  20.955  0.00  0.00    +0.000 A 
ATOM     17  C   UNL     1       1.844   7.519  20.009  0.00  0.00    +0.000 A 
ATOM     18  C   UNL     1       2.368   7.206  18.764  0.00  0.00    +0.000 A 
ATOM     19  C   UNL     1       2.737   5.890  18.469  0.00  0.00    +0.000 A 
ATOM     20  C   UNL     1       2.600   4.840  19.411  0.00  0.00    +0.000 A 
ENDBRANCH   9  11
ENDBRANCH   6   9
ENDBRANCH   1   6
BRANCH   4  21
ATOM     21  C   UNL     1       7.695   6.961  17.827  0.00  0.00    +0.000 C 
BRANCH  21  22
ATOM     22  C   UNL     1       7.806   8.481  17.620  0.00  0.00    +0.000 C 
BRANCH  22  23
ATOM     23  C   UNL     1       8.766   9.151  18.608  0.00  0.00    +0.000 C 
BRANCH  23  24
ATOM     24  C   UNL     1       8.945  10.612  18.344  0.00  0.00    +0.000 A 
ATOM     25  N   UNL     1       8.111  11.250  17.509  0.00  0.00    +0.000 NA
ATOM     26  O   UNL     1       8.556  12.562  17.466  0.00  0.00    +0.000 OA
ATOM     27  C   UNL     1       9.641  12.705  18.270  0.00  0.00    +0.000 A 
ATOM     28  C   UNL     1      10.356  13.881  18.488  0.00  0.00    +0.000 A 
ATOM     29  C   UNL     1      11.447  13.793  19.353  0.00  0.00    +0.000 A 
ATOM     30  C   UNL     1      11.794  12.577  19.939  0.00  0.00    +0.000 A 
ATOM     31  C   UNL     1      11.047  11.410  19.710  0.00  0.00    +0.000 A 
ATOM     32  C   UNL     1       9.941  11.488  18.851  0.00  0.00    +0.000 A 
ENDBRANCH  23  24
ENDBRANCH  22  23
ENDBRANCH  21  22
ENDBRANCH   4  21
TORSDOF 7
ENDMDL
MODEL 2
REMARK VINA RESULT:      -8.8      4.546      7.521
REMARK  Name = 
REMARK  7 active torsions:
REMARK  status: ('A' for Active; 'I' for Inactive)
REMARK    1  A    between atoms: S_2  and  N_4
REMARK    2  A    between atoms: S_2  and  C_22
REMARK    3  A    between atoms: N_4  and  C_5
REMARK    4  A    between atoms: N_8  and  C_9
REMARK    5  A    between atoms: C_9  and  C_10
REMARK    6  A    between atoms: C_10  and  C_11
REMARK    7  A    between atoms: C_11  and  C_12
REMARK                            x       y       z     vdW  Elec       q    Type
REMARK                         _______ _______ _______ _____ _____    ______ ____
ROOT
ATOM      1  C   UNL     1       2.094   7.025  20.431  0.00  0.00    +0.000 C 
ATOM      2  C   UNL     1       1.243   5.803  20.740  0.00  0.00    +0.000 C 
ATOM      3  C   UNL     1       2.169   4.663  20.365  0.00  0.00    +0.000 C 
ATOM      4  N   UNL     1       2.836   5.106  19.127  0.00  0.00    +0.000 NA
ATOM      5  C   UNL     1       2.969   6.574  19.255  0.00  0.00    +0.000 C 
ENDROOT
BRANCH   1   6
ATOM      6  N   UNL     1       1.204   8.166  20.122  0.00  0.00    +0.000 NA
ATOM      7  H   UNL     1       1.621   8.824  19.467  0.00  0.00    +0.000 HD
BRANCH   6   9
ATOM      8  O   UNL     1      -0.668   8.145  21.832  0.00  0.00    +0.000 OA
ATOM      9  S   UNL     1       0.449   8.957  21.418  0.00  0.00    +0.000 S 
ATOM     10  O   UNL     1       1.488   9.354  22.347  0.00  0.00    +0.000 OA
BRANCH   9  11
ATOM     11  C   UNL     1      -0.231  10.430  20.676  0.00  0.00    +0.000 A 
ATOM     12  C   UNL     1       0.080  10.648  19.330  0.00  0.00    +0.000 A 
ATOM     13  C   UNL     1      -0.363  11.800  18.704  0.00  0.00    +0.000 A 
ATOM     14  C   UNL     1      -1.207  12.686  19.363  0.00  0.00    +0.000 A 
ATOM     15  C   UNL     1      -1.528  12.490  20.710  0.00  0.00    +0.000 A 
ATOM     16  C   UNL     1      -2.333  13.438  21.360  0.00  0.00    +0.000 A 
ATOM     17  C   UNL     1      -2.609  13.330  22.719  0.00  0.00    +0.000 A 
ATOM     18  C   UNL     1      -2.084  12.270  23.441  0.00  0.00    +0.000 A 
ATOM     19  C   UNL     1      -1.295  11.308  22.802  0.00  0.00    +0.000 A 
ATOM     20  C   UNL     1      -1.007  11.370  21.417  0.00  0.00    +0.000 A 
ENDBRANCH   9  11
ENDBRANCH   6   9
ENDBRANCH   1   6
BRANCH   4  21
ATOM     21  C   UNL     1       2.080   4.702  17.930  0.00  0.00    +0.000 C 
BRANCH  21  22
ATOM     22  C   UNL     1       2.740   3.570  17.124  0.00  0.00    +0.000 C 
BRANCH  22  23
ATOM     23  C   UNL     1       4.222   3.378  17.464  0.00  0.00    +0.000 C 
BRANCH  23  24
ATOM     24  C   UNL     1       5.071   4.532  17.033  0.00  0.00    +0.000 A 
ATOM     25  N   UNL     1       4.943   5.032  15.795  0.00  0.00    +0.000 NA
ATOM     26  O   UNL     1       5.872   6.058  15.709  0.00  0.00    +0.000 OA
ATOM     27  C   UNL     1       6.543   6.169  16.884  0.00  0.00    +0.000 A 
ATOM     28  C   UNL     1       7.546   7.091  17.177  0.00  0.00    +0.000 A 
ATOM     29  C   UNL     1       8.103   7.017  18.453  0.00  0.00    +0.000 A 
ATOM     30  C   UNL     1       7.677   6.050  19.362  0.00  0.00    +0.000 A 
ATOM     31  C   UNL     1       6.656   5.140  19.042  0.00  0.00    +0.000 A 
ATOM     32  C   UNL     1       6.078   5.212  17.766  0.00  0.00    +0.000 A 
ENDBRANCH  23  24
ENDBRANCH  22  23
ENDBRANCH  21  22
ENDBRANCH   4  21
TORSDOF 7
ENDMDL
MODEL 3
REMARK VINA RESULT:      -8.7      5.455      7.992
REMARK  Name = 
REMARK  7 active torsions:
REMARK  status: ('A' for Active; 'I' for Inactive)
REMARK    1  A    between atoms: S_2  and  N_4
REMARK    2  A    between atoms: S_2  and  C_22
REMARK    3  A    between atoms: N_4  and  C_5
REMARK    4  A    between atoms: N_8  and  C_9
REMARK    5  A    between atoms: C_9  and  C_10
REMARK    6  A    between atoms: C_10  and  C_11
REMARK    7  A    between atoms: C_11  and  C_12
REMARK                            x       y       z     vdW  Elec       q    Type
REMARK                         _______ _______ _______ _____ _____    ______ ____
ROOT
ATOM      1  C   UNL     1       2.339   6.631  20.354  0.00  0.00    +0.000 C 
ATOM      2  C   UNL     1       1.570   5.331  20.533  0.00  0.00    +0.000 C 
ATOM      3  C   UNL     1       2.615   4.289  20.186  0.00  0.00    +0.000 C 
ATOM      4  N   UNL     1       3.342   4.848  19.032  0.00  0.00    +0.000 NA
ATOM      5  C   UNL     1       3.341   6.313  19.237  0.00  0.00    +0.000 C 
ENDROOT
BRANCH   1   6
ATOM      6  N   UNL     1       1.386   7.713  20.023  0.00  0.00    +0.000 NA
ATOM      7  H   UNL     1       1.735   8.336  19.298  0.00  0.00    +0.000 HD
BRANCH   6   9
ATOM      8  O   UNL     1      -0.511   7.855  21.699  0.00  0.00    +0.000 OA
ATOM      9  S   UNL     1       0.678   8.568  21.305  0.00  0.00    +0.000 S 
ATOM     10  O   UNL     1       1.732   8.875  22.252  0.00  0.00    +0.000 OA
BRANCH   9  11
ATOM     11  C   UNL     1       0.140  10.092  20.552  0.00  0.00    +0.000 A 
ATOM     12  C   UNL     1       0.542  10.308  19.228  0.00  0.00    +0.000 A 
ATOM     13  C   UNL     1       0.212  11.495  18.599  0.00  0.00    +0.000 A 
ATOM     14  C   UNL     1      -0.609  12.425  19.224  0.00  0.00    +0.000 A 
ATOM     15  C   UNL     1      -1.019  12.233  20.547  0.00  0.00    +0.000 A 
ATOM     16  C   UNL     1      -1.796  13.224  21.167  0.00  0.00    +0.000 A 
ATOM     17  C   UNL     1      -2.156  13.117  22.507  0.00  0.00    +0.000 A 
ATOM     18  C   UNL     1      -1.744  12.014  23.239  0.00  0.00    +0.000 A 
ATOM     19  C   UNL     1      -0.984  11.011  22.629  0.00  0.00    +0.000 A 
ATOM     20  C   UNL     1      -0.614  11.072  21.263  0.00  0.00    +0.000 A 
ENDBRANCH   9  11
ENDBRANCH   6   9
ENDBRANCH   1   6
BRANCH   4  21
ATOM     21  C   UNL     1       2.722   4.449  17.757  0.00  0.00    +0.000 C 
BRANCH  21  22
ATOM     22  C   UNL     1       3.732   4.095  16.652  0.00  0.00    +0.000 C 
BRANCH  22  23
ATOM     23  C   UNL     1       5.185   4.128  17.137  0.00  0.00    +0.000 C 
BRANCH  23  24
ATOM     24  C   UNL     1       6.132   4.640  16.099  0.00  0.00    +0.000 A 
ATOM     25  N   UNL     1       7.047   5.567  16.424  0.00  0.00    +0.000 NA
ATOM     26  O   UNL     1       7.737   5.837  15.253  0.00  0.00    +0.000 OA
ATOM     27  C   UNL     1       7.241   5.078  14.242  0.00  0.00    +0.000 A 
ATOM     28  C   UNL     1       7.688   5.070  12.922  0.00  0.00    +0.000 A 
ATOM     29  C   UNL     1       7.023   4.211  12.048  0.00  0.00    +0.000 A 
ATOM     30  C   UNL     1       5.959   3.426  12.491  0.00  0.00    +0.000 A 
ATOM     31  C   UNL     1       5.539   3.447  13.831  0.00  0.00    +0.000 A 
ATOM     32  C   UNL     1       6.207   4.298  14.724  0.00  0.00    +0.000 A 
ENDBRANCH  23  24
ENDBRANCH  22  23
ENDBRANCH  21  22
ENDBRANCH   4  21
TORSDOF 7
ENDMDL
MODEL 4
REMARK VINA RESULT:      -8.7      1.098      1.364
REMARK  Name = 
REMARK  7 active torsions:
REMARK  status: ('A' for Active; 'I' for Inactive)
REMARK    1  A    between atoms: S_2  and  N_4
REMARK    2  A    between atoms: S_2  and  C_22
REMARK    3  A    between atoms: N_4  and  C_5
REMARK    4  A    between atoms: N_8  and  C_9
REMARK    5  A    between atoms: C_9  and  C_10
REMARK    6  A    between atoms: C_10  and  C_11
REMARK    7  A    between atoms: C_11  and  C_12
REMARK                            x       y       z     vdW  Elec       q    Type
REMARK                         _______ _______ _______ _____ _____    ______ ____
ROOT
ATOM      1  C   UNL     1       6.074   4.232  16.846  0.00  0.00    +0.000 C 
ATOM      2  C   UNL     1       5.183   5.245  16.144  0.00  0.00    +0.000 C 
ATOM      3  C   UNL     1       6.195   6.194  15.534  0.00  0.00    +0.000 C 
ATOM      4  N   UNL     1       7.239   6.352  16.562  0.00  0.00    +0.000 NA
ATOM      5  C   UNL     1       7.303   5.049  17.262  0.00  0.00    +0.000 C 
ENDROOT
BRANCH   1   6
ATOM      6  N   UNL     1       5.329   3.638  17.978  0.00  0.00    +0.000 NA
ATOM      7  H   UNL     1       5.909   3.033  18.556  0.00  0.00    +0.000 HD
BRANCH   6   9
ATOM      8  O   UNL     1       3.282   3.588  16.483  0.00  0.00    +0.000 OA
ATOM      9  S   UNL     1       3.816   2.944  17.657  0.00  0.00    +0.000 S 
ATOM     10  O   UNL     1       3.976   1.505  17.730  0.00  0.00    +0.000 OA
BRANCH   9  11
ATOM     11  C   UNL     1       2.810   3.466  19.034  0.00  0.00    +0.000 A 
ATOM     12  C   UNL     1       2.253   2.450  19.819  0.00  0.00    +0.000 A 
ATOM     13  C   UNL     1       1.414   2.779  20.868  0.00  0.00    +0.000 A 
ATOM     14  C   UNL     1       1.208   4.107  21.223  0.00  0.00    +0.000 A 
ATOM     15  C   UNL     1       1.751   5.139  20.451  0.00  0.00    +0.000 A 
ATOM     16  C   UNL     1       1.471   6.469  20.803  0.00  0.00    +0.000 A 
ATOM     17  C   UNL     1       1.918   7.526  20.018  0.00  0.00    +0.000 A 
ATOM     18  C   UNL     1       2.654   7.263  18.872  0.00  0.00    +0.000 A 
ATOM     19  C   UNL     1       2.955   5.943  18.519  0.00  0.00    +0.000 A 
ATOM     20  C   UNL     1       2.536   4.840  19.303  0.00  0.00    +0.000 A 
ENDBRANCH   9  11
ENDBRANCH   6   9
ENDBRANCH   1   6
BRANCH   4  21
ATOM     21  C   UNL     1       6.941   7.474  17.468  0.00  0.00    +0.000 C 
BRANCH  21  22
ATOM     22  C   UNL     1       8.189   8.149  18.061  0.00  0.00    +0.000 C 
BRANCH  22  23
ATOM     23  C   UNL     1       8.377   9.591  17.578  0.00  0.00    +0.000 C 
BRANCH  23  24
ATOM     24  C   UNL     1       8.989  10.476  18.617  0.00  0.00    +0.000 A 
ATOM     25  N   UNL     1       9.297   9.980  19.824  0.00  0.00    +0.000 NA
ATOM     26  O   UNL     1       9.815  11.044  20.545  0.00  0.00    +0.000 OA
ATOM     27  C   UNL     1       9.819  12.162  19.774  0.00  0.00    +0.000 A 
ATOM     28  C   UNL     1      10.274  13.423  20.153  0.00  0.00    +0.000 A 
ATOM     29  C   UNL     1      10.175  14.432  19.196  0.00  0.00    +0.000 A 
ATOM     30  C   UNL     1       9.628  14.171  17.940  0.00  0.00    +0.000 A 
ATOM     31  C   UNL     1       9.188  12.886  17.582  0.00  0.00    +0.000 A 
ATOM     32  C   UNL     1       9.294  11.860  18.532  0.00  0.00    +0.000 A 
ENDBRANCH  23  24
ENDBRANCH  22  23
ENDBRANCH  21  22
ENDBRANCH   4  21
TORSDOF 7
ENDMDL
MODEL 5
REMARK VINA RESULT:      -8.7      5.238      7.146
REMARK  Name = 
REMARK  7 active torsions:
REMARK  status: ('A' for Active; 'I' for Inactive)
REMARK    1  A    between atoms: S_2  and  N_4
REMARK    2  A    between atoms: S_2  and  C_22
REMARK    3  A    between atoms: N_4  and  C_5
REMARK    4  A    between atoms: N_8  and  C_9
REMARK    5  A    between atoms: C_9  and  C_10
REMARK    6  A    between atoms: C_10  and  C_11
REMARK    7  A    between atoms: C_11  and  C_12
REMARK                            x       y       z     vdW  Elec       q    Type
REMARK                         _______ _______ _______ _____ _____    ______ ____
ROOT
ATOM      1  C   UNL     1       1.742   4.021  19.120  0.00  0.00    +0.000 C 
ATOM      2  C   UNL     1       1.385   3.289  17.836  0.00  0.00    +0.000 C 
ATOM      3  C   UNL     1       2.197   2.016  17.955  0.00  0.00    +0.000 C 
ATOM      4  N   UNL     1       3.494   2.441  18.513  0.00  0.00    +0.000 NA
ATOM      5  C   UNL     1       3.183   3.581  19.404  0.00  0.00    +0.000 C 
ENDROOT
BRANCH   1   6
ATOM      6  N   UNL     1       1.583   5.476  18.907  0.00  0.00    +0.000 NA
ATOM      7  H   UNL     1       1.719   5.748  17.935  0.00  0.00    +0.000 HD
BRANCH   6   9
ATOM      8  O   UNL     1       1.910   6.228  21.306  0.00  0.00    +0.000 OA
ATOM      9  S   UNL     1       2.375   6.528  19.975  0.00  0.00    +0.000 S 
ATOM     10  O   UNL     1       3.785   6.504  19.637  0.00  0.00    +0.000 OA
BRANCH   9  11
ATOM     11  C   UNL     1       1.725   8.133  19.550  0.00  0.00    +0.000 A 
ATOM     12  C   UNL     1       1.970   8.578  18.246  0.00  0.00    +0.000 A 
ATOM     13  C   UNL     1       1.547   9.839  17.863  0.00  0.00    +0.000 A 
ATOM     14  C   UNL     1       0.782  10.621  18.720  0.00  0.00    +0.000 A 
ATOM     15  C   UNL     1       0.528  10.198  20.029  0.00  0.00    +0.000 A 
ATOM     16  C   UNL     1      -0.195  11.043  20.886  0.00  0.00    +0.000 A 
ATOM     17  C   UNL     1      -0.399  10.703  22.219  0.00  0.00    +0.000 A 
ATOM     18  C   UNL     1       0.116   9.512  22.708  0.00  0.00    +0.000 A 
ATOM     19  C   UNL     1       0.823   8.653  21.860  0.00  0.00    +0.000 A 
ATOM     20  C   UNL     1       1.036   8.952  20.492  0.00  0.00    +0.000 A 
ENDBRANCH   9  11
ENDBRANCH   6   9
ENDBRANCH   1   6
BRANCH   4  21
ATOM     21  C   UNL     1       4.453   2.789  17.452  0.00  0.00    +0.000 C 
BRANCH  21  22
ATOM     22  C   UNL     1       5.198   4.113  17.689  0.00  0.00    +0.000 C 
BRANCH  22  23
ATOM     23  C   UNL     1       4.948   5.147  16.586  0.00  0.00    +0.000 C 
BRANCH  23  24
ATOM     24  C   UNL     1       6.020   5.154  15.543  0.00  0.00    +0.000 A 
ATOM     25  N   UNL     1       7.155   5.837  15.752  0.00  0.00    +0.000 NA
ATOM     26  O   UNL     1       7.914   5.661  14.605  0.00  0.00    +0.000 OA
ATOM     27  C   UNL     1       7.239   4.877  13.725  0.00  0.00    +0.000 A 
ATOM     28  C   UNL     1       7.687   4.476  12.467  0.00  0.00    +0.000 A 
ATOM     29  C   UNL     1       6.818   3.674  11.727  0.00  0.00    +0.000 A 
ATOM     30  C   UNL     1       5.568   3.323  12.232  0.00  0.00    +0.000 A 
ATOM     31  C   UNL     1       5.148   3.733  13.508  0.00  0.00    +0.000 A 
ATOM     32  C   UNL     1       6.017   4.530  14.268  0.00  0.00    +0.000 A 
ENDBRANCH  23  24
ENDBRANCH  22  23
ENDBRANCH  21  22
ENDBRANCH   4  21
TORSDOF 7
ENDMDL
MODEL 6
REMARK VINA RESULT:      -8.7      3.645      5.874
REMARK  Name = 
REMARK  7 active torsions:
REMARK  status: ('A' for Active; 'I' for Inactive)
REMARK    1  A    between atoms: S_2  and  N_4
REMARK    2  A    between atoms: S_2  and  C_22
REMARK    3  A    between atoms: N_4  and  C_5
REMARK    4  A    between atoms: N_8  and  C_9
REMARK    5  A    between atoms: C_9  and  C_10
REMARK    6  A    between atoms: C_10  and  C_11
REMARK    7  A    between atoms: C_11  and  C_12
REMARK                            x       y       z     vdW  Elec       q    Type
REMARK                         _______ _______ _______ _____ _____    ______ ____
ROOT
ATOM      1  C   UNL     1       2.034   3.501  21.044  0.00  0.00    +0.000 C 
ATOM      2  C   UNL     1       0.849   3.290  20.115  0.00  0.00    +0.000 C 
ATOM      3  C   UNL     1       1.166   1.947  19.490  0.00  0.00    +0.000 C 
ATOM      4  N   UNL     1       2.617   1.978  19.236  0.00  0.00    +0.000 NA
ATOM      5  C   UNL     1       3.191   2.794  20.329  0.00  0.00    +0.000 C 
ENDROOT
BRANCH   1   6
ATOM      6  N   UNL     1       2.239   4.954  21.241  0.00  0.00    +0.000 NA
ATOM      7  H   UNL     1       1.600   5.351  21.926  0.00  0.00    +0.000 HD
BRANCH   6   9
ATOM      8  O   UNL     1       3.774   6.238  19.685  0.00  0.00    +0.000 OA
ATOM      9  S   UNL     1       2.377   5.931  19.862  0.00  0.00    +0.000 S 
ATOM     10  O   UNL     1       1.595   5.309  18.812  0.00  0.00    +0.000 OA
BRANCH   9  11
ATOM     11  C   UNL     1       1.571   7.449  20.337  0.00  0.00    +0.000 A 
ATOM     12  C   UNL     1       0.848   7.421  21.535  0.00  0.00    +0.000 A 
ATOM     13  C   UNL     1       0.147   8.545  21.937  0.00  0.00    +0.000 A 
ATOM     14  C   UNL     1       0.246   9.734  21.226  0.00  0.00    +0.000 A 
ATOM     15  C   UNL     1       0.960   9.785  20.024  0.00  0.00    +0.000 A 
ATOM     16  C   UNL     1       0.987  10.988  19.301  0.00  0.00    +0.000 A 
ATOM     17  C   UNL     1       1.612  11.063  18.061  0.00  0.00    +0.000 A 
ATOM     18  C   UNL     1       2.220   9.934  17.533  0.00  0.00    +0.000 A 
ATOM     19  C   UNL     1       2.217   8.734  18.251  0.00  0.00    +0.000 A 
ATOM     20  C   UNL     1       1.609   8.621  19.525  0.00  0.00    +0.000 A 
ENDBRANCH   9  11
ENDBRANCH   6   9
ENDBRANCH   1   6
BRANCH   4  21
ATOM     21  C   UNL     1       2.922   2.516  17.899  0.00  0.00    +0.000 C 
BRANCH  21  22
ATOM     22  C   UNL     1       4.227   3.327  17.833  0.00  0.00    +0.000 C 
BRANCH  22  23
ATOM     23  C   UNL     1       4.490   3.926  16.447  0.00  0.00    +0.000 C 
BRANCH  23  24
ATOM     24  C   UNL     1       5.241   5.218  16.505  0.00  0.00    +0.000 A 
ATOM     25  N   UNL     1       4.989   6.181  15.606  0.00  0.00    +0.000 NA
ATOM     26  O   UNL     1       5.853   7.219  15.918  0.00  0.00    +0.000 OA
ATOM     27  C   UNL     1       6.610   6.878  16.993  0.00  0.00    +0.000 A 
ATOM     28  C   UNL     1       7.583   7.670  17.600  0.00  0.00    +0.000 A 
ATOM     29  C   UNL     1       8.245   7.110  18.693  0.00  0.00    +0.000 A 
ATOM     30  C   UNL     1       7.943   5.820  19.123  0.00  0.00    +0.000 A 
ATOM     31  C   UNL     1       6.948   5.050  18.499  0.00  0.00    +0.000 A 
ATOM     32  C   UNL     1       6.267   5.605  17.406  0.00  0.00    +0.000 A 
ENDBRANCH  23  24
ENDBRANCH  22  23
ENDBRANCH  21  22
ENDBRANCH   4  21
TORSDOF 7
ENDMDL
MODEL 7
REMARK VINA RESULT:      -8.7      3.718      6.147
REMARK  Name = 
REMARK  7 active torsions:
REMARK  status: ('A' for Active; 'I' for Inactive)
REMARK    1  A    between atoms: S_2  and  N_4
REMARK    2  A    between atoms: S_2  and  C_22
REMARK    3  A    between atoms: N_4  and  C_5
REMARK    4  A    between atoms: N_8  and  C_9
REMARK    5  A    between atoms: C_9  and  C_10
REMARK    6  A    between atoms: C_10  and  C_11
REMARK    7  A    between atoms: C_11  and  C_12
REMARK                            x       y       z     vdW  Elec       q    Type
REMARK                         _______ _______ _______ _____ _____    ______ ____
ROOT
ATOM      1  C   UNL     1       1.358   4.194  20.488  0.00  0.00    +0.000 C 
ATOM      2  C   UNL     1       1.079   3.559  19.135  0.00  0.00    +0.000 C 
ATOM      3  C   UNL     1       1.731   2.198  19.277  0.00  0.00    +0.000 C 
ATOM      4  N   UNL     1       2.990   2.452  20.001  0.00  0.00    +0.000 NA
ATOM      5  C   UNL     1       2.701   3.583  20.910  0.00  0.00    +0.000 C 
ENDROOT
BRANCH   1   6
ATOM      6  N   UNL     1       1.382   5.665  20.335  0.00  0.00    +0.000 NA
ATOM      7  H   UNL     1       0.450   6.070  20.277  0.00  0.00    +0.000 HD
BRANCH   6   9
ATOM      8  O   UNL     1       3.760   6.312  19.739  0.00  0.00    +0.000 OA
ATOM      9  S   UNL     1       2.432   6.327  19.179  0.00  0.00    +0.000 S 
ATOM     10  O   UNL     1       2.133   5.692  17.911  0.00  0.00    +0.000 OA
BRANCH   9  11
ATOM     11  C   UNL     1       1.931   8.036  19.082  0.00  0.00    +0.000 A 
ATOM     12  C   UNL     1       2.244   8.709  17.896  0.00  0.00    +0.000 A 
ATOM     13  C   UNL     1       1.940  10.053  17.772  0.00  0.00    +0.000 A 
ATOM     14  C   UNL     1       1.225  10.713  18.765  0.00  0.00    +0.000 A 
ATOM     15  C   UNL     1       0.905  10.061  19.960  0.00  0.00    +0.000 A 
ATOM     16  C   UNL     1       0.238  10.778  20.966  0.00  0.00    +0.000 A 
ATOM     17  C   UNL     1      -0.025  10.199  22.202  0.00  0.00    +0.000 A 
ATOM     18  C   UNL     1       0.375   8.893  22.444  0.00  0.00    +0.000 A 
ATOM     19  C   UNL     1       1.024   8.162  21.445  0.00  0.00    +0.000 A 
ATOM     20  C   UNL     1       1.294   8.708  20.166  0.00  0.00    +0.000 A 
ENDBRANCH   9  11
ENDBRANCH   6   9
ENDBRANCH   1   6
BRANCH   4  21
ATOM     21  C   UNL     1       4.099   2.732  19.074  0.00  0.00    +0.000 C 
BRANCH  21  22
ATOM     22  C   UNL     1       3.649   3.168  17.670  0.00  0.00    +0.000 C 
BRANCH  22  23
ATOM     23  C   UNL     1       4.814   3.307  16.683  0.00  0.00    +0.000 C 
BRANCH  23  24
ATOM     24  C   UNL     1       5.366   4.696  16.630  0.00  0.00    +0.000 A 
ATOM     25  N   UNL     1       4.960   5.543  15.673  0.00  0.00    +0.000 NA
ATOM     26  O   UNL     1       5.666   6.716  15.887  0.00  0.00    +0.000 OA
ATOM     27  C   UNL     1       6.483   6.570  16.963  0.00  0.00    +0.000 A 
ATOM     28  C   UNL     1       7.338   7.538  17.485  0.00  0.00    +0.000 A 
ATOM     29  C   UNL     1       8.093   7.163  18.597  0.00  0.00    +0.000 A 
ATOM     30  C   UNL     1       7.992   5.878  19.126  0.00  0.00    +0.000 A 
ATOM     31  C   UNL     1       7.112   4.927  18.584  0.00  0.00    +0.000 A 
ATOM     32  C   UNL     1       6.338   5.295  17.474  0.00  0.00    +0.000 A 
ENDBRANCH  23  24
ENDBRANCH  22  23
ENDBRANCH  21  22
ENDBRANCH   4  21
TORSDOF 7
ENDMDL
MODEL 8
REMARK VINA RESULT:      -8.7      4.865      8.477
REMARK  Name = 
REMARK  7 active torsions:
REMARK  status: ('A' for Active; 'I' for Inactive)
REMARK    1  A    between atoms: S_2  and  N_4
REMARK    2  A    between atoms: S_2  and  C_22
REMARK    3  A    between atoms: N_4  and  C_5
REMARK    4  A    between atoms: N_8  and  C_9
REMARK    5  A    between atoms: C_9  and  C_10
REMARK    6  A    between atoms: C_10  and  C_11
REMARK    7  A    between atoms: C_11  and  C_12
REMARK                            x       y       z     vdW  Elec       q    Type
REMARK                         _______ _______ _______ _____ _____    ______ ____
ROOT
ATOM      1  C   UNL     1       2.792   7.211  18.591  0.00  0.00    +0.000 C 
ATOM      2  C   UNL     1       2.603   8.173  17.429  0.00  0.00    +0.000 C 
ATOM      3  C   UNL     1       2.425   9.501  18.138  0.00  0.00    +0.000 C 
ATOM      4  N   UNL     1       1.581   9.199  19.308  0.00  0.00    +0.000 NA
ATOM      5  C   UNL     1       1.953   7.826  19.718  0.00  0.00    +0.000 C 
ENDROOT
BRANCH   1   6
ATOM      6  N   UNL     1       2.352   5.860  18.176  0.00  0.00    +0.000 NA
ATOM      7  H   UNL     1       1.342   5.743  18.229  0.00  0.00    +0.000 HD
BRANCH   6   9
ATOM      8  O   UNL     1       3.065   4.588  20.249  0.00  0.00    +0.000 OA
ATOM      9  S   UNL     1       3.178   4.524  18.813  0.00  0.00    +0.000 S 
ATOM     10  O   UNL     1       2.752   3.357  18.067  0.00  0.00    +0.000 OA
BRANCH   9  11
ATOM     11  C   UNL     1       4.885   4.852  18.414  0.00  0.00    +0.000 A 
ATOM     12  C   UNL     1       5.700   5.277  19.469  0.00  0.00    +0.000 A 
ATOM     13  C   UNL     1       7.020   5.607  19.222  0.00  0.00    +0.000 A 
ATOM     14  C   UNL     1       7.577   5.413  17.964  0.00  0.00    +0.000 A 
ATOM     15  C   UNL     1       6.781   4.992  16.894  0.00  0.00    +0.000 A 
ATOM     16  C   UNL     1       7.364   4.866  15.623  0.00  0.00    +0.000 A 
ATOM     17  C   UNL     1       6.595   4.533  14.513  0.00  0.00    +0.000 A 
ATOM     18  C   UNL     1       5.233   4.320  14.665  0.00  0.00    +0.000 A 
ATOM     19  C   UNL     1       4.643   4.425  15.928  0.00  0.00    +0.000 A 
ATOM     20  C   UNL     1       5.394   4.742  17.086  0.00  0.00    +0.000 A 
ENDBRANCH   9  11
ENDBRANCH   6   9
ENDBRANCH   1   6
BRANCH   4  21
ATOM     21  C   UNL     1       0.149   9.333  18.992  0.00  0.00    +0.000 C 
BRANCH  21  22
ATOM     22  C   UNL     1      -0.294  10.774  18.689  0.00  0.00    +0.000 C 
BRANCH  22  23
ATOM     23  C   UNL     1       0.288  11.798  19.670  0.00  0.00    +0.000 C 
BRANCH  23  24
ATOM     24  C   UNL     1      -0.375  11.760  21.010  0.00  0.00    +0.000 A 
ATOM     25  N   UNL     1       0.281  11.261  22.069  0.00  0.00    +0.000 NA
ATOM     26  O   UNL     1      -0.604  11.348  23.132  0.00  0.00    +0.000 OA
ATOM     27  C   UNL     1      -1.773  11.897  22.712  0.00  0.00    +0.000 A 
ATOM     28  C   UNL     1      -2.895  12.149  23.499  0.00  0.00    +0.000 A 
ATOM     29  C   UNL     1      -3.993  12.715  22.851  0.00  0.00    +0.000 A 
ATOM     30  C   UNL     1      -3.951  12.986  21.484  0.00  0.00    +0.000 A 
ATOM     31  C   UNL     1      -2.802  12.731  20.718  0.00  0.00    +0.000 A 
ATOM     32  C   UNL     1      -1.687  12.174  21.361  0.00  0.00    +0.000 A 
ENDBRANCH  23  24
ENDBRANCH  22  23
ENDBRANCH  21  22
ENDBRANCH   4  21
TORSDOF 7
ENDMDL
MODEL 9
REMARK VINA RESULT:      -8.6      5.892      8.697
REMARK  Name = 
REMARK  7 active torsions:
REMARK  status: ('A' for Active; 'I' for Inactive)
REMARK    1  A    between atoms: S_2  and  N_4
REMARK    2  A    between atoms: S_2  and  C_22
REMARK    3  A    between atoms: N_4  and  C_5
REMARK    4  A    between atoms: N_8  and  C_9
REMARK    5  A    between atoms: C_9  and  C_10
REMARK    6  A    between atoms: C_10  and  C_11
REMARK    7  A    between atoms: C_11  and  C_12
REMARK                            x       y       z     vdW  Elec       q    Type
REMARK                         _______ _______ _______ _____ _____    ______ ____
ROOT
ATOM      1  C   UNL     1       1.116  10.199  18.859  0.00  0.00    +0.000 C 
ATOM      2  C   UNL     1       0.632   9.048  19.727  0.00  0.00    +0.000 C 
ATOM      3  C   UNL     1       1.875   8.189  19.844  0.00  0.00    +0.000 C 
ATOM      4  N   UNL     1       2.485   8.216  18.503  0.00  0.00    +0.000 NA
ATOM      5  C   UNL     1       2.177   9.557  17.958  0.00  0.00    +0.000 C 
ENDROOT
BRANCH   1   6
ATOM      6  N   UNL     1      -0.037  10.769  18.127  0.00  0.00    +0.000 NA
ATOM      7  H   UNL     1       0.178  10.975  17.154  0.00  0.00    +0.000 HD
BRANCH   6   9
ATOM      8  O   UNL     1      -0.838  11.824  20.289  0.00  0.00    +0.000 OA
ATOM      9  S   UNL     1      -0.902  12.028  18.864  0.00  0.00    +0.000 S 
ATOM     10  O   UNL     1      -0.465  13.268  18.251  0.00  0.00    +0.000 OA
BRANCH   9  11
ATOM     11  C   UNL     1      -2.590  11.726  18.374  0.00  0.00    +0.000 A 
ATOM     12  C   UNL     1      -2.779  11.167  17.105  0.00  0.00    +0.000 A 
ATOM     13  C   UNL     1      -4.063  10.960  16.634  0.00  0.00    +0.000 A 
ATOM     14  C   UNL     1      -5.164  11.192  17.449  0.00  0.00    +0.000 A 
ATOM     15  C   UNL     1      -4.999  11.753  18.720  0.00  0.00    +0.000 A 
ATOM     16  C   UNL     1      -6.139  12.032  19.491  0.00  0.00    +0.000 A 
ATOM     17  C   UNL     1      -6.030  12.667  20.724  0.00  0.00    +0.000 A 
ATOM     18  C   UNL     1      -4.778  13.027  21.198  0.00  0.00    +0.000 A 
ATOM     19  C   UNL     1      -3.633  12.740  20.449  0.00  0.00    +0.000 A 
ATOM     20  C   UNL     1      -3.699  12.077  19.199  0.00  0.00    +0.000 A 
ENDBRANCH   9  11
ENDBRANCH   6   9
ENDBRANCH   1   6
BRANCH   4  21
ATOM     21  C   UNL     1       1.979   7.124  17.655  0.00  0.00    +0.000 C 
BRANCH  21  22
ATOM     22  C   UNL     1       2.090   5.730  18.296  0.00  0.00    +0.000 C 
BRANCH  22  23
ATOM     23  C   UNL     1       3.111   4.828  17.593  0.00  0.00    +0.000 C 
BRANCH  23  24
ATOM     24  C   UNL     1       4.461   4.868  18.235  0.00  0.00    +0.000 A 
ATOM     25  N   UNL     1       4.786   3.964  19.171  0.00  0.00    +0.000 NA
ATOM     26  O   UNL     1       6.073   4.288  19.572  0.00  0.00    +0.000 OA
ATOM     27  C   UNL     1       6.511   5.371  18.879  0.00  0.00    +0.000 A 
ATOM     28  C   UNL     1       7.758   5.980  19.005  0.00  0.00    +0.000 A 
ATOM     29  C   UNL     1       7.989   7.091  18.193  0.00  0.00    +0.000 A 
ATOM     30  C   UNL     1       7.003   7.558  17.326  0.00  0.00    +0.000 A 
ATOM     31  C   UNL     1       5.759   6.915  17.213  0.00  0.00    +0.000 A 
ATOM     32  C   UNL     1       5.518   5.790  18.015  0.00  0.00    +0.000 A 
ENDBRANCH  23  24
ENDBRANCH  22  23
ENDBRANCH  21  22
ENDBRANCH   4  21
TORSDOF 7
ENDMDL
