MODEL 1
REMARK VINA RESULT:      -8.2      0.000      0.000
REMARK  Name = 
REMARK  2 active torsions:
REMARK  status: ('A' for Active; 'I' for Inactive)
REMARK    1  A    between atoms: C_5  and  C_6
REMARK    2  A    between atoms: C_8  and  C_9
REMARK                            x       y       z     vdW  Elec       q    Type
REMARK                         _______ _______ _______ _____ _____    ______ ____
ROOT
ATOM      1  C   UNL     1       3.776   5.637  18.241  0.00  0.00    +0.000 A 
ATOM      2  N   UNL     1       3.328   6.909  18.576  0.00  0.00    +0.000 N 
ATOM      3  C   UNL     1       2.301   6.873  19.510  0.00  0.00    +0.000 A 
ATOM      4  C   UNL     1       2.138   5.540  19.800  0.00  0.00    +0.000 A 
ATOM      5  C   UNL     1       3.037   4.787  19.024  0.00  0.00    +0.000 A 
ATOM      6  C   UNL     1       2.881   3.334  19.259  0.00  0.00    +0.000 C 
ATOM      7  C   UNL     1       1.514   3.268  20.004  0.00  0.00    +0.000 C 
ATOM      8  C   UNL     1       1.282   4.673  20.643  0.00  0.00    +0.000 C 
ATOM      9  H   UNL     1       3.714   7.759  18.195  0.00  0.00    +0.000 HD
ENDROOT
BRANCH   1  14
ATOM     10  F   UNL     1       7.689   4.705  14.349  0.00  0.00    +0.000 F 
ATOM     11  C   UNL     1       6.762   4.914  15.291  0.00  0.00    +0.000 A 
ATOM     12  C   UNL     1       5.562   4.219  15.239  0.00  0.00    +0.000 A 
ATOM     13  C   UNL     1       4.593   4.447  16.218  0.00  0.00    +0.000 A 
ATOM     14  C   UNL     1       4.816   5.375  17.247  0.00  0.00    +0.000 A 
ATOM     15  C   UNL     1       6.039   6.062  17.281  0.00  0.00    +0.000 A 
ATOM     16  C   UNL     1       7.011   5.832  16.304  0.00  0.00    +0.000 A 
ENDBRANCH   1  14
BRANCH   3  17
ATOM     17  C   UNL     1       1.614   8.067  20.008  0.00  0.00    +0.000 A 
ATOM     18  C   UNL     1       1.324   9.146  19.158  0.00  0.00    +0.000 A 
ATOM     19  C   UNL     1       0.640  10.267  19.638  0.00  0.00    +0.000 A 
ATOM     20  C   UNL     1       0.242  10.311  20.968  0.00  0.00    +0.000 A 
ATOM     21  F   UNL     1      -0.423  11.380  21.424  0.00  0.00    +0.000 F 
ATOM     22  C   UNL     1       0.521   9.259  21.828  0.00  0.00    +0.000 A 
ATOM     23  C   UNL     1       1.208   8.141  21.349  0.00  0.00    +0.000 A 
ENDBRANCH   3  17
TORSDOF 2
ENDMDL
MODEL 2
REMARK VINA RESULT:      -8.2      0.090      1.033
REMARK  Name = 
REMARK  2 active torsions:
REMARK  status: ('A' for Active; 'I' for Inactive)
REMARK    1  A    between atoms: C_5  and  C_6
REMARK    2  A    between atoms: C_8  and  C_9
REMARK                            x       y       z     vdW  Elec       q    Type
REMARK                         _______ _______ _______ _____ _____    ______ ____
ROOT
ATOM      1  C   UNL     1       3.786   5.629  18.252  0.00  0.00    +0.000 A 
ATOM      2  N   UNL     1       3.347   6.898  18.610  0.00  0.00    +0.000 N 
ATOM      3  C   UNL     1       2.316   6.852  19.540  0.00  0.00    +0.000 A 
ATOM      4  C   UNL     1       2.142   5.515  19.804  0.00  0.00    +0.000 A 
ATOM      5  C   UNL     1       3.037   4.770  19.016  0.00  0.00    +0.000 A 
ATOM      6  C   UNL     1       2.870   3.314  19.223  0.00  0.00    +0.000 C 
ATOM      7  C   UNL     1       1.499   3.245  19.963  0.00  0.00    +0.000 C 
ATOM      8  C   UNL     1       1.277   4.639  20.627  0.00  0.00    +0.000 C 
ATOM      9  H   UNL     1       3.741   7.752  18.246  0.00  0.00    +0.000 HD
ENDROOT
BRANCH   1  14
ATOM     10  F   UNL     1       7.703   4.738  14.354  0.00  0.00    +0.000 F 
ATOM     11  C   UNL     1       6.775   4.938  15.298  0.00  0.00    +0.000 A 
ATOM     12  C   UNL     1       5.581   4.232  15.246  0.00  0.00    +0.000 A 
ATOM     13  C   UNL     1       4.611   4.450  16.226  0.00  0.00    +0.000 A 
ATOM     14  C   UNL     1       4.827   5.378  17.257  0.00  0.00    +0.000 A 
ATOM     15  C   UNL     1       6.045   6.076  17.291  0.00  0.00    +0.000 A 
ATOM     16  C   UNL     1       7.017   5.855  16.312  0.00  0.00    +0.000 A 
ENDBRANCH   1  14
BRANCH   3  17
ATOM     17  C   UNL     1       1.637   8.042  20.058  0.00  0.00    +0.000 A 
ATOM     18  C   UNL     1       1.295   8.149  21.416  0.00  0.00    +0.000 A 
ATOM     19  C   UNL     1       0.675   9.304  21.904  0.00  0.00    +0.000 A 
ATOM     20  C   UNL     1       0.398  10.353  21.038  0.00  0.00    +0.000 A 
ATOM     21  F   UNL     1      -0.185  11.462  21.509  0.00  0.00    +0.000 F 
ATOM     22  C   UNL     1       0.722  10.268  19.691  0.00  0.00    +0.000 A 
ATOM     23  C   UNL     1       1.338   9.114  19.204  0.00  0.00    +0.000 A 
ENDBRANCH   3  17
TORSDOF 2
ENDMDL
MODEL 3
REMARK VINA RESULT:      -8.1      0.119      1.460
REMARK  Name = 
REMARK  2 active torsions:
REMARK  status: ('A' for Active; 'I' for Inactive)
REMARK    1  A    between atoms: C_5  and  C_6
REMARK    2  A    between atoms: C_8  and  C_9
REMARK                            x       y       z     vdW  Elec       q    Type
REMARK                         _______ _______ _______ _____ _____    ______ ____
ROOT
ATOM      1  C   UNL     1       3.746   5.672  18.236  0.00  0.00    +0.000 A 
ATOM      2  N   UNL     1       3.311   6.941  18.598  0.00  0.00    +0.000 N 
ATOM      3  C   UNL     1       2.302   6.898  19.552  0.00  0.00    +0.000 A 
ATOM      4  C   UNL     1       2.138   5.562  19.826  0.00  0.00    +0.000 A 
ATOM      5  C   UNL     1       3.017   4.815  19.022  0.00  0.00    +0.000 A 
ATOM      6  C   UNL     1       2.859   3.359  19.239  0.00  0.00    +0.000 C 
ATOM      7  C   UNL     1       1.506   3.290  20.010  0.00  0.00    +0.000 C 
ATOM      8  C   UNL     1       1.294   4.686  20.673  0.00  0.00    +0.000 C 
ATOM      9  H   UNL     1       3.694   7.795  18.222  0.00  0.00    +0.000 HD
ENDROOT
BRANCH   1  14
ATOM     10  F   UNL     1       7.721   4.643  14.433  0.00  0.00    +0.000 F 
ATOM     11  C   UNL     1       6.762   4.901  15.330  0.00  0.00    +0.000 A 
ATOM     12  C   UNL     1       6.963   5.889  16.284  0.00  0.00    +0.000 A 
ATOM     13  C   UNL     1       5.964   6.149  17.225  0.00  0.00    +0.000 A 
ATOM     14  C   UNL     1       4.765   5.420  17.219  0.00  0.00    +0.000 A 
ATOM     15  C   UNL     1       4.582   4.431  16.241  0.00  0.00    +0.000 A 
ATOM     16  C   UNL     1       5.580   4.172  15.297  0.00  0.00    +0.000 A 
ENDBRANCH   1  14
BRANCH   3  17
ATOM     17  C   UNL     1       1.631   8.088  20.080  0.00  0.00    +0.000 A 
ATOM     18  C   UNL     1       1.315   8.198  21.443  0.00  0.00    +0.000 A 
ATOM     19  C   UNL     1       0.702   9.353  21.940  0.00  0.00    +0.000 A 
ATOM     20  C   UNL     1       0.408  10.400  21.076  0.00  0.00    +0.000 A 
ATOM     21  F   UNL     1      -0.168  11.509  21.556  0.00  0.00    +0.000 F 
ATOM     22  C   UNL     1       0.707  10.312  19.724  0.00  0.00    +0.000 A 
ATOM     23  C   UNL     1       1.316   9.157  19.228  0.00  0.00    +0.000 A 
ENDBRANCH   3  17
TORSDOF 2
ENDMDL
MODEL 4
REMARK VINA RESULT:      -8.1      0.067      1.032
REMARK  Name = 
REMARK  2 active torsions:
REMARK  status: ('A' for Active; 'I' for Inactive)
REMARK    1  A    between atoms: C_5  and  C_6
REMARK    2  A    between atoms: C_8  and  C_9
REMARK                            x       y       z     vdW  Elec       q    Type
REMARK                         _______ _______ _______ _____ _____    ______ ____
ROOT
ATOM      1  C   UNL     1       3.756   5.694  18.220  0.00  0.00    +0.000 A 
ATOM      2  N   UNL     1       3.304   6.959  18.573  0.00  0.00    +0.000 N 
ATOM      3  C   UNL     1       2.294   6.907  19.526  0.00  0.00    +0.000 A 
ATOM      4  C   UNL     1       2.146   5.571  19.807  0.00  0.00    +0.000 A 
ATOM      5  C   UNL     1       3.037   4.831  19.009  0.00  0.00    +0.000 A 
ATOM      6  C   UNL     1       2.898   3.375  19.234  0.00  0.00    +0.000 C 
ATOM      7  C   UNL     1       1.544   3.292  20.003  0.00  0.00    +0.000 C 
ATOM      8  C   UNL     1       1.313   4.689  20.657  0.00  0.00    +0.000 C 
ATOM      9  H   UNL     1       3.677   7.815  18.193  0.00  0.00    +0.000 HD
ENDROOT
BRANCH   1  14
ATOM     10  F   UNL     1       7.750   4.690  14.429  0.00  0.00    +0.000 F 
ATOM     11  C   UNL     1       6.786   4.943  15.323  0.00  0.00    +0.000 A 
ATOM     12  C   UNL     1       6.991   5.910  16.297  0.00  0.00    +0.000 A 
ATOM     13  C   UNL     1       5.988   6.164  17.235  0.00  0.00    +0.000 A 
ATOM     14  C   UNL     1       4.781   5.449  17.206  0.00  0.00    +0.000 A 
ATOM     15  C   UNL     1       4.595   4.480  16.208  0.00  0.00    +0.000 A 
ATOM     16  C   UNL     1       5.597   4.228  15.267  0.00  0.00    +0.000 A 
ENDBRANCH   1  14
BRANCH   3  17
ATOM     17  C   UNL     1       1.607   8.091  20.045  0.00  0.00    +0.000 A 
ATOM     18  C   UNL     1       1.304   9.180  19.212  0.00  0.00    +0.000 A 
ATOM     19  C   UNL     1       0.619  10.292  19.714  0.00  0.00    +0.000 A 
ATOM     20  C   UNL     1       0.234  10.316  21.048  0.00  0.00    +0.000 A 
ATOM     21  F   UNL     1      -0.431  11.376  21.524  0.00  0.00    +0.000 F 
ATOM     22  C   UNL     1       0.526   9.254  21.892  0.00  0.00    +0.000 A 
ATOM     23  C   UNL     1       1.213   8.146  21.391  0.00  0.00    +0.000 A 
ENDBRANCH   3  17
TORSDOF 2
ENDMDL
MODEL 5
REMARK VINA RESULT:      -8.1      0.272      7.093
REMARK  Name = 
REMARK  2 active torsions:
REMARK  status: ('A' for Active; 'I' for Inactive)
REMARK    1  A    between atoms: C_5  and  C_6
REMARK    2  A    between atoms: C_8  and  C_9
REMARK                            x       y       z     vdW  Elec       q    Type
REMARK                         _______ _______ _______ _____ _____    ______ ____
ROOT
ATOM      1  C   UNL     1       2.303   6.873  19.491  0.00  0.00    +0.000 A 
ATOM      2  N   UNL     1       3.245   6.893  18.470  0.00  0.00    +0.000 N 
ATOM      3  C   UNL     1       3.774   5.633  18.221  0.00  0.00    +0.000 A 
ATOM      4  C   UNL     1       3.105   4.796  19.081  0.00  0.00    +0.000 A 
ATOM      5  C   UNL     1       2.209   5.554  19.856  0.00  0.00    +0.000 A 
ATOM      6  C   UNL     1       1.485   4.714  20.837  0.00  0.00    +0.000 C 
ATOM      7  C   UNL     1       2.322   3.399  20.822  0.00  0.00    +0.000 C 
ATOM      8  C   UNL     1       3.078   3.363  19.457  0.00  0.00    +0.000 C 
ATOM      9  H   UNL     1       3.504   7.723  17.960  0.00  0.00    +0.000 HD
ENDROOT
BRANCH   1  14
ATOM     10  F   UNL     1      -0.418  11.398  21.348  0.00  0.00    +0.000 F 
ATOM     11  C   UNL     1       0.250  10.323  20.910  0.00  0.00    +0.000 A 
ATOM     12  C   UNL     1       0.670  10.269  19.588  0.00  0.00    +0.000 A 
ATOM     13  C   UNL     1       1.357   9.142  19.132  0.00  0.00    +0.000 A 
ATOM     14  C   UNL     1       1.621   8.065  19.992  0.00  0.00    +0.000 A 
ATOM     15  C   UNL     1       1.190   8.146  21.326  0.00  0.00    +0.000 A 
ATOM     16  C   UNL     1       0.505   9.274  21.784  0.00  0.00    +0.000 A 
ENDBRANCH   1  14
BRANCH   3  17
ATOM     17  C   UNL     1       4.818   5.372  17.228  0.00  0.00    +0.000 A 
ATOM     18  C   UNL     1       4.669   4.359  16.266  0.00  0.00    +0.000 A 
ATOM     19  C   UNL     1       5.660   4.141  15.303  0.00  0.00    +0.000 A 
ATOM     20  C   UNL     1       6.799   4.935  15.298  0.00  0.00    +0.000 A 
ATOM     21  F   UNL     1       7.741   4.733  14.368  0.00  0.00    +0.000 F 
ATOM     22  C   UNL     1       6.970   5.939  16.241  0.00  0.00    +0.000 A 
ATOM     23  C   UNL     1       5.983   6.154  17.204  0.00  0.00    +0.000 A 
ENDBRANCH   3  17
TORSDOF 2
ENDMDL
MODEL 6
REMARK VINA RESULT:      -8.1      0.287      7.094
REMARK  Name = 
REMARK  2 active torsions:
REMARK  status: ('A' for Active; 'I' for Inactive)
REMARK    1  A    between atoms: C_5  and  C_6
REMARK    2  A    between atoms: C_8  and  C_9
REMARK                            x       y       z     vdW  Elec       q    Type
REMARK                         _______ _______ _______ _____ _____    ______ ____
ROOT
ATOM      1  C   UNL     1       2.325   6.882  19.497  0.00  0.00    +0.000 A 
ATOM      2  N   UNL     1       3.265   6.899  18.474  0.00  0.00    +0.000 N 
ATOM      3  C   UNL     1       3.789   5.637  18.223  0.00  0.00    +0.000 A 
ATOM      4  C   UNL     1       3.119   4.802  19.085  0.00  0.00    +0.000 A 
ATOM      5  C   UNL     1       2.228   5.563  19.863  0.00  0.00    +0.000 A 
ATOM      6  C   UNL     1       1.503   4.725  20.845  0.00  0.00    +0.000 C 
ATOM      7  C   UNL     1       2.336   3.407  20.827  0.00  0.00    +0.000 C 
ATOM      8  C   UNL     1       3.087   3.370  19.460  0.00  0.00    +0.000 C 
ATOM      9  H   UNL     1       3.525   7.728  17.964  0.00  0.00    +0.000 HD
ENDROOT
BRANCH   1  14
ATOM     10  F   UNL     1      -0.151  11.492  21.483  0.00  0.00    +0.000 F 
ATOM     11  C   UNL     1       0.423  10.382  21.003  0.00  0.00    +0.000 A 
ATOM     12  C   UNL     1       0.697   9.326  21.861  0.00  0.00    +0.000 A 
ATOM     13  C   UNL     1       1.306   8.174  21.359  0.00  0.00    +0.000 A 
ATOM     14  C   UNL     1       1.649   8.076  20.001  0.00  0.00    +0.000 A 
ATOM     15  C   UNL     1       1.356   9.155  19.153  0.00  0.00    +0.000 A 
ATOM     16  C   UNL     1       0.744  10.307  19.654  0.00  0.00    +0.000 A 
ENDBRANCH   1  14
BRANCH   3  17
ATOM     17  C   UNL     1       4.828   5.372  17.227  0.00  0.00    +0.000 A 
ATOM     18  C   UNL     1       4.653   4.393  16.236  0.00  0.00    +0.000 A 
ATOM     19  C   UNL     1       5.641   4.172  15.271  0.00  0.00    +0.000 A 
ATOM     20  C   UNL     1       6.804   4.931  15.293  0.00  0.00    +0.000 A 
ATOM     21  F   UNL     1       7.744   4.726  14.362  0.00  0.00    +0.000 F 
ATOM     22  C   UNL     1       7.002   5.901  16.265  0.00  0.00    +0.000 A 
ATOM     23  C   UNL     1       6.017   6.118  17.230  0.00  0.00    +0.000 A 
ENDBRANCH   3  17
TORSDOF 2
ENDMDL
MODEL 7
REMARK VINA RESULT:      -8.0      0.293      7.109
REMARK  Name = 
REMARK  2 active torsions:
REMARK  status: ('A' for Active; 'I' for Inactive)
REMARK    1  A    between atoms: C_5  and  C_6
REMARK    2  A    between atoms: C_8  and  C_9
REMARK                            x       y       z     vdW  Elec       q    Type
REMARK                         _______ _______ _______ _____ _____    ______ ____
ROOT
ATOM      1  C   UNL     1       2.308   6.926  19.524  0.00  0.00    +0.000 A 
ATOM      2  N   UNL     1       3.235   6.952  18.490  0.00  0.00    +0.000 N 
ATOM      3  C   UNL     1       3.769   5.695  18.232  0.00  0.00    +0.000 A 
ATOM      4  C   UNL     1       3.117   4.854  19.102  0.00  0.00    +0.000 A 
ATOM      5  C   UNL     1       2.228   5.606  19.890  0.00  0.00    +0.000 A 
ATOM      6  C   UNL     1       1.523   4.761  20.881  0.00  0.00    +0.000 C 
ATOM      7  C   UNL     1       2.368   3.452  20.853  0.00  0.00    +0.000 C 
ATOM      8  C   UNL     1       3.104   3.421  19.478  0.00  0.00    +0.000 C 
ATOM      9  H   UNL     1       3.482   7.784  17.976  0.00  0.00    +0.000 HD
ENDROOT
BRANCH   1  14
ATOM     10  F   UNL     1      -0.416  11.431  21.424  0.00  0.00    +0.000 F 
ATOM     11  C   UNL     1       0.253  10.362  20.975  0.00  0.00    +0.000 A 
ATOM     12  C   UNL     1       0.634  10.301  19.642  0.00  0.00    +0.000 A 
ATOM     13  C   UNL     1       1.322   9.179  19.174  0.00  0.00    +0.000 A 
ATOM     14  C   UNL     1       1.625   8.113  20.036  0.00  0.00    +0.000 A 
ATOM     15  C   UNL     1       1.235   8.200  21.380  0.00  0.00    +0.000 A 
ATOM     16  C   UNL     1       0.549   9.324  21.849  0.00  0.00    +0.000 A 
ENDBRANCH   1  14
BRANCH   3  17
ATOM     17  C   UNL     1       4.800   5.441  17.224  0.00  0.00    +0.000 A 
ATOM     18  C   UNL     1       5.984   6.193  17.191  0.00  0.00    +0.000 A 
ATOM     19  C   UNL     1       6.975   5.920  16.242  0.00  0.00    +0.000 A 
ATOM     20  C   UNL     1       6.784   4.893  15.327  0.00  0.00    +0.000 A 
ATOM     21  F   UNL     1       7.738   4.625  14.427  0.00  0.00    +0.000 F 
ATOM     22  C   UNL     1       5.620   4.139  15.337  0.00  0.00    +0.000 A 
ATOM     23  C   UNL     1       4.630   4.415  16.283  0.00  0.00    +0.000 A 
ENDBRANCH   3  17
TORSDOF 2
ENDMDL
MODEL 8
REMARK VINA RESULT:      -8.0      0.314      7.113
REMARK  Name = 
REMARK  2 active torsions:
REMARK  status: ('A' for Active; 'I' for Inactive)
REMARK    1  A    between atoms: C_5  and  C_6
REMARK    2  A    between atoms: C_8  and  C_9
REMARK                            x       y       z     vdW  Elec       q    Type
REMARK                         _______ _______ _______ _____ _____    ______ ____
ROOT
ATOM      1  C   UNL     1       2.313   6.943  19.528  0.00  0.00    +0.000 A 
ATOM      2  N   UNL     1       3.238   6.971  18.492  0.00  0.00    +0.000 N 
ATOM      3  C   UNL     1       3.776   5.716  18.236  0.00  0.00    +0.000 A 
ATOM      4  C   UNL     1       3.130   4.874  19.109  0.00  0.00    +0.000 A 
ATOM      5  C   UNL     1       2.239   5.624  19.898  0.00  0.00    +0.000 A 
ATOM      6  C   UNL     1       1.540   4.778  20.892  0.00  0.00    +0.000 C 
ATOM      7  C   UNL     1       2.391   3.472  20.865  0.00  0.00    +0.000 C 
ATOM      8  C   UNL     1       3.124   3.442  19.488  0.00  0.00    +0.000 C 
ATOM      9  H   UNL     1       3.480   7.803  17.976  0.00  0.00    +0.000 HD
ENDROOT
BRANCH   1  14
ATOM     10  F   UNL     1      -0.201  11.522  21.538  0.00  0.00    +0.000 F 
ATOM     11  C   UNL     1       0.382  10.420  21.052  0.00  0.00    +0.000 A 
ATOM     12  C   UNL     1       0.688   9.372  21.909  0.00  0.00    +0.000 A 
ATOM     13  C   UNL     1       1.306   8.227  21.402  0.00  0.00    +0.000 A 
ATOM     14  C   UNL     1       1.626   8.129  20.038  0.00  0.00    +0.000 A 
ATOM     15  C   UNL     1       1.302   9.199  19.191  0.00  0.00    +0.000 A 
ATOM     16  C   UNL     1       0.681  10.344  19.698  0.00  0.00    +0.000 A 
ENDBRANCH   1  14
BRANCH   3  17
ATOM     17  C   UNL     1       4.806   5.464  17.226  0.00  0.00    +0.000 A 
ATOM     18  C   UNL     1       6.003   6.197  17.211  0.00  0.00    +0.000 A 
ATOM     19  C   UNL     1       6.992   5.926  16.260  0.00  0.00    +0.000 A 
ATOM     20  C   UNL     1       6.787   4.919  15.325  0.00  0.00    +0.000 A 
ATOM     21  F   UNL     1       7.740   4.653  14.423  0.00  0.00    +0.000 F 
ATOM     22  C   UNL     1       5.611   4.184  15.318  0.00  0.00    +0.000 A 
ATOM     23  C   UNL     1       4.622   4.458  16.265  0.00  0.00    +0.000 A 
ENDBRANCH   3  17
TORSDOF 2
ENDMDL
MODEL 9
REMARK VINA RESULT:      -7.8      1.286      1.850
REMARK  Name = 
REMARK  2 active torsions:
REMARK  status: ('A' for Active; 'I' for Inactive)
REMARK    1  A    between atoms: C_5  and  C_6
REMARK    2  A    between atoms: C_8  and  C_9
REMARK                            x       y       z     vdW  Elec       q    Type
REMARK                         _______ _______ _______ _____ _____    ______ ____
ROOT
ATOM      1  C   UNL     1       4.423   4.913  16.658  0.00  0.00    +0.000 A 
ATOM      2  N   UNL     1       3.964   6.150  17.094  0.00  0.00    +0.000 N 
ATOM      3  C   UNL     1       3.078   6.035  18.158  0.00  0.00    +0.000 A 
ATOM      4  C   UNL     1       3.022   4.688  18.422  0.00  0.00    +0.000 A 
ATOM      5  C   UNL     1       3.841   4.004  17.506  0.00  0.00    +0.000 A 
ATOM      6  C   UNL     1       3.790   2.539  17.710  0.00  0.00    +0.000 C 
ATOM      7  C   UNL     1       2.544   2.381  18.632  0.00  0.00    +0.000 C 
ATOM      8  C   UNL     1       2.334   3.754  19.344  0.00  0.00    +0.000 C 
ATOM      9  H   UNL     1       4.252   7.029  16.693  0.00  0.00    +0.000 HD
ENDROOT
BRANCH   1  14
ATOM     10  F   UNL     1       7.815   4.313  12.246  0.00  0.00    +0.000 F 
ATOM     11  C   UNL     1       7.012   4.441  13.310  0.00  0.00    +0.000 A 
ATOM     12  C   UNL     1       5.759   3.845  13.299  0.00  0.00    +0.000 A 
ATOM     13  C   UNL     1       4.920   3.989  14.406  0.00  0.00    +0.000 A 
ATOM     14  C   UNL     1       5.328   4.734  15.524  0.00  0.00    +0.000 A 
ATOM     15  C   UNL     1       6.601   5.322  15.513  0.00  0.00    +0.000 A 
ATOM     16  C   UNL     1       7.443   5.176  14.407  0.00  0.00    +0.000 A 
ENDBRANCH   1  14
BRANCH   3  17
ATOM     17  C   UNL     1       2.409   7.177  18.785  0.00  0.00    +0.000 A 
ATOM     18  C   UNL     1       2.056   8.311  18.037  0.00  0.00    +0.000 A 
ATOM     19  C   UNL     1       1.389   9.382  18.641  0.00  0.00    +0.000 A 
ATOM     20  C   UNL     1       1.072   9.319  19.992  0.00  0.00    +0.000 A 
ATOM     21  F   UNL     1       0.424  10.340  20.566  0.00  0.00    +0.000 F 
ATOM     22  C   UNL     1       1.415   8.210  20.752  0.00  0.00    +0.000 A 
ATOM     23  C   UNL     1       2.084   7.143  20.149  0.00  0.00    +0.000 A 
ENDBRANCH   3  17
TORSDOF 2
ENDMDL
