MODEL 1
REMARK VINA RESULT:      -8.3      0.000      0.000
REMARK  Name = 
REMARK  6 active torsions:
REMARK  status: ('A' for Active; 'I' for Inactive)
REMARK    1  A    between atoms: C_1  and  C_2
REMARK    2  A    between atoms: C_2  and  C_3
REMARK    3  A    between atoms: C_6  and  N_7
REMARK    4  A    between atoms: N_10  and  C_11
REMARK    5  A    between atoms: C_16  and  C_17
REMARK    6  A    between atoms: C_22  and  C_23
REMARK                            x       y       z     vdW  Elec       q    Type
REMARK                         _______ _______ _______ _____ _____    ______ ____
ROOT
ATOM      1  N   UNL     1       2.605   6.941  19.847  0.00  0.00    +0.000 N 
ATOM      2  C   UNL     1       1.644   7.519  20.648  0.00  0.00    +0.000 C 
ATOM      3  O   UNL     1       0.780   6.817  21.168  0.00  0.00    +0.000 OA
ATOM      4  N   UNL     1       1.770   8.886  20.760  0.00  0.00    +0.000 N 
ATOM      5  H   UNL     1       3.514   7.386  19.877  0.00  0.00    +0.000 HD
ATOM      6  H   UNL     1       2.591   9.317  20.363  0.00  0.00    +0.000 HD
ENDROOT
BRANCH   1  12
ATOM      7  C   UNL     1       2.544   2.049  17.745  0.00  0.00    +0.000 C 
ATOM      8  C   UNL     1       3.424   3.304  17.844  0.00  0.00    +0.000 C 
ATOM      9  C   UNL     1       4.642   3.047  16.943  0.00  0.00    +0.000 C 
ATOM     10  O   UNL     1       2.678   4.424  17.361  0.00  0.00    +0.000 OA
ATOM     11  C   UNL     1       1.821   5.021  18.349  0.00  0.00    +0.000 C 
ATOM     12  C   UNL     1       2.591   5.481  19.613  0.00  0.00    +0.000 C 
ATOM     13  C   UNL     1       3.998   4.850  19.592  0.00  0.00    +0.000 C 
ATOM     14  O   UNL     1       3.896   3.474  19.184  0.00  0.00    +0.000 OA
BRANCH  13  15
ATOM     15  C   UNL     1       5.085   5.634  18.857  0.00  0.00    +0.000 A 
ATOM     16  C   UNL     1       6.427   5.448  19.222  0.00  0.00    +0.000 A 
ATOM     17  C   UNL     1       7.444   6.130  18.548  0.00  0.00    +0.000 A 
ATOM     18  C   UNL     1       7.145   6.991  17.498  0.00  0.00    +0.000 A 
ATOM     19  C   UNL     1       5.826   7.176  17.109  0.00  0.00    +0.000 A 
ATOM     20  C   UNL     1       4.806   6.510  17.790  0.00  0.00    +0.000 A 
ENDBRANCH  13  15
ENDBRANCH   1  12
BRANCH   4  21
ATOM     21  C   UNL     1       0.855   9.752  21.438  0.00  0.00    +0.000 A 
ATOM     22  C   UNL     1       0.037   9.238  22.460  0.00  0.00    +0.000 A 
ATOM     23  C   UNL     1      -0.886  10.030  23.144  0.00  0.00    +0.000 A 
ATOM     24  C   UNL     1      -1.003  11.373  22.836  0.00  0.00    +0.000 A 
ATOM     25  C   UNL     1      -0.214  11.912  21.822  0.00  0.00    +0.000 A 
ATOM     26  C   UNL     1       0.695  11.117  21.082  0.00  0.00    +0.000 A 
BRANCH  26  27
ATOM     27  C   UNL     1       1.396  11.771  19.966  0.00  0.00    +0.000 A 
ATOM     28  C   UNL     1       1.639  11.283  18.641  0.00  0.00    +0.000 A 
ATOM     29  C   UNL     1       2.299  12.200  17.849  0.00  0.00    +0.000 A 
ATOM     30  S   UNL     1       2.715  13.614  18.710  0.00  0.00    +0.000 S 
ATOM     31  C   UNL     1       1.977  13.019  20.132  0.00  0.00    +0.000 A 
ENDBRANCH  26  27
ENDBRANCH   4  21
TORSDOF 4
ENDMDL
MODEL 2
REMARK VINA RESULT:      -8.2      3.183      8.333
REMARK  Name = 
REMARK  6 active torsions:
REMARK  status: ('A' for Active; 'I' for Inactive)
REMARK    1  A    between atoms: C_1  and  C_2
REMARK    2  A    between atoms: C_2  and  C_3
REMARK    3  A    between atoms: C_6  and  N_7
REMARK    4  A    between atoms: N_10  and  C_11
REMARK    5  A    between atoms: C_16  and  C_17
REMARK    6  A    between atoms: C_22  and  C_23
REMARK                            x       y       z     vdW  Elec       q    Type
REMARK                         _______ _______ _______ _____ _____    ______ ____
ROOT
ATOM      1  N   UNL     1       1.461   8.749  18.807  0.00  0.00    +0.000 N 
ATOM      2  C   UNL     1       2.408   8.083  18.060  0.00  0.00    +0.000 C 
ATOM      3  O   UNL     1       2.580   8.385  16.881  0.00  0.00    +0.000 OA
ATOM      4  N   UNL     1       3.068   7.097  18.761  0.00  0.00    +0.000 N 
ATOM      5  H   UNL     1       1.687   8.862  19.787  0.00  0.00    +0.000 HD
ATOM      6  H   UNL     1       2.896   7.031  19.753  0.00  0.00    +0.000 HD
ENDROOT
BRANCH   1  12
ATOM      7  C   UNL     1      -2.446  11.860  16.960  0.00  0.00    +0.000 C 
ATOM      8  C   UNL     1      -1.860  11.318  18.271  0.00  0.00    +0.000 C 
ATOM      9  C   UNL     1      -2.807  11.781  19.389  0.00  0.00    +0.000 C 
ATOM     10  O   UNL     1      -1.835   9.890  18.204  0.00  0.00    +0.000 OA
ATOM     11  C   UNL     1      -0.676   9.360  17.538  0.00  0.00    +0.000 C 
ATOM     12  C   UNL     1       0.654   9.823  18.187  0.00  0.00    +0.000 C 
ATOM     13  C   UNL     1       0.356  10.995  19.143  0.00  0.00    +0.000 C 
ATOM     14  O   UNL     1      -0.575  11.896  18.516  0.00  0.00    +0.000 OA
BRANCH  13  15
ATOM     15  C   UNL     1      -0.014  10.625  20.580  0.00  0.00    +0.000 A 
ATOM     16  C   UNL     1      -0.345  11.645  21.484  0.00  0.00    +0.000 A 
ATOM     17  C   UNL     1      -0.716  11.335  22.796  0.00  0.00    +0.000 A 
ATOM     18  C   UNL     1      -0.776  10.012  23.221  0.00  0.00    +0.000 A 
ATOM     19  C   UNL     1      -0.470   8.987  22.337  0.00  0.00    +0.000 A 
ATOM     20  C   UNL     1      -0.083   9.293  21.032  0.00  0.00    +0.000 A 
ENDBRANCH  13  15
ENDBRANCH   1  12
BRANCH   4  21
ATOM     21  C   UNL     1       4.020   6.182  18.212  0.00  0.00    +0.000 A 
ATOM     22  C   UNL     1       5.097   6.671  17.451  0.00  0.00    +0.000 A 
ATOM     23  C   UNL     1       6.047   5.826  16.876  0.00  0.00    +0.000 A 
ATOM     24  C   UNL     1       5.957   4.459  17.064  0.00  0.00    +0.000 A 
ATOM     25  C   UNL     1       4.895   3.941  17.804  0.00  0.00    +0.000 A 
ATOM     26  C   UNL     1       3.893   4.776  18.356  0.00  0.00    +0.000 A 
BRANCH  26  27
ATOM     27  C   UNL     1       2.767   4.109  19.027  0.00  0.00    +0.000 A 
ATOM     28  C   UNL     1       1.509   3.692  18.483  0.00  0.00    +0.000 A 
ATOM     29  C   UNL     1       0.711   3.057  19.412  0.00  0.00    +0.000 A 
ATOM     30  S   UNL     1       1.420   3.037  20.964  0.00  0.00    +0.000 S 
ATOM     31  C   UNL     1       2.813   3.842  20.387  0.00  0.00    +0.000 A 
ENDBRANCH  26  27
ENDBRANCH   4  21
TORSDOF 4
ENDMDL
MODEL 3
REMARK VINA RESULT:      -8.1      2.730      4.203
REMARK  Name = 
REMARK  6 active torsions:
REMARK  status: ('A' for Active; 'I' for Inactive)
REMARK    1  A    between atoms: C_1  and  C_2
REMARK    2  A    between atoms: C_2  and  C_3
REMARK    3  A    between atoms: C_6  and  N_7
REMARK    4  A    between atoms: N_10  and  C_11
REMARK    5  A    between atoms: C_16  and  C_17
REMARK    6  A    between atoms: C_22  and  C_23
REMARK                            x       y       z     vdW  Elec       q    Type
REMARK                         _______ _______ _______ _____ _____    ______ ____
ROOT
ATOM      1  N   UNL     1       1.869   7.701  18.730  0.00  0.00    +0.000 N 
ATOM      2  C   UNL     1       1.717   9.061  18.568  0.00  0.00    +0.000 C 
ATOM      3  O   UNL     1       2.269   9.630  17.630  0.00  0.00    +0.000 OA
ATOM      4  N   UNL     1       0.936   9.647  19.540  0.00  0.00    +0.000 N 
ATOM      5  H   UNL     1       1.067   7.222  19.121  0.00  0.00    +0.000 HD
ATOM      6  H   UNL     1       0.461   9.039  20.191  0.00  0.00    +0.000 HD
ENDROOT
BRANCH   1  12
ATOM      7  C   UNL     1       5.648   4.817  16.331  0.00  0.00    +0.000 C 
ATOM      8  C   UNL     1       4.594   4.729  17.444  0.00  0.00    +0.000 C 
ATOM      9  C   UNL     1       4.801   3.367  18.124  0.00  0.00    +0.000 C 
ATOM     10  O   UNL     1       4.825   5.788  18.377  0.00  0.00    +0.000 OA
ATOM     11  C   UNL     1       4.228   7.039  17.994  0.00  0.00    +0.000 C 
ATOM     12  C   UNL     1       2.697   6.932  17.775  0.00  0.00    +0.000 C 
ATOM     13  C   UNL     1       2.312   5.442  17.692  0.00  0.00    +0.000 C 
ATOM     14  O   UNL     1       3.278   4.746  16.883  0.00  0.00    +0.000 OA
BRANCH  13  15
ATOM     15  C   UNL     1       1.997   4.744  19.015  0.00  0.00    +0.000 A 
ATOM     16  C   UNL     1       1.226   3.572  19.003  0.00  0.00    +0.000 A 
ATOM     17  C   UNL     1       0.946   2.897  20.195  0.00  0.00    +0.000 A 
ATOM     18  C   UNL     1       1.438   3.368  21.408  0.00  0.00    +0.000 A 
ATOM     19  C   UNL     1       2.217   4.516  21.440  0.00  0.00    +0.000 A 
ATOM     20  C   UNL     1       2.485   5.202  20.255  0.00  0.00    +0.000 A 
ENDBRANCH  13  15
ENDBRANCH   1  12
BRANCH   4  21
ATOM     21  C   UNL     1       0.697  11.050  19.681  0.00  0.00    +0.000 A 
ATOM     22  C   UNL     1       1.560  11.826  20.476  0.00  0.00    +0.000 A 
ATOM     23  C   UNL     1       1.368  13.195  20.665  0.00  0.00    +0.000 A 
ATOM     24  C   UNL     1       0.311  13.835  20.044  0.00  0.00    +0.000 A 
ATOM     25  C   UNL     1      -0.568  13.093  19.257  0.00  0.00    +0.000 A 
ATOM     26  C   UNL     1      -0.421  11.694  19.091  0.00  0.00    +0.000 A 
BRANCH  26  27
ATOM     27  C   UNL     1      -1.469  11.001  18.326  0.00  0.00    +0.000 A 
ATOM     28  C   UNL     1      -1.333  10.034  17.278  0.00  0.00    +0.000 A 
ATOM     29  C   UNL     1      -2.549   9.569  16.821  0.00  0.00    +0.000 A 
ATOM     30  S   UNL     1      -3.864  10.354  17.576  0.00  0.00    +0.000 S 
ATOM     31  C   UNL     1      -2.808  11.287  18.544  0.00  0.00    +0.000 A 
ENDBRANCH  26  27
ENDBRANCH   4  21
TORSDOF 4
ENDMDL
MODEL 4
REMARK VINA RESULT:      -7.5      2.165      4.317
REMARK  Name = 
REMARK  6 active torsions:
REMARK  status: ('A' for Active; 'I' for Inactive)
REMARK    1  A    between atoms: C_1  and  C_2
REMARK    2  A    between atoms: C_2  and  C_3
REMARK    3  A    between atoms: C_6  and  N_7
REMARK    4  A    between atoms: N_10  and  C_11
REMARK    5  A    between atoms: C_16  and  C_17
REMARK    6  A    between atoms: C_22  and  C_23
REMARK                            x       y       z     vdW  Elec       q    Type
REMARK                         _______ _______ _______ _____ _____    ______ ____
ROOT
ATOM      1  N   UNL     1       2.315   7.389  18.589  0.00  0.00    +0.000 N 
ATOM      2  C   UNL     1       2.179   8.715  18.240  0.00  0.00    +0.000 C 
ATOM      3  O   UNL     1       2.553   9.097  17.134  0.00  0.00    +0.000 OA
ATOM      4  N   UNL     1       1.624   9.491  19.234  0.00  0.00    +0.000 N 
ATOM      5  H   UNL     1       1.592   7.028  19.198  0.00  0.00    +0.000 HD
ATOM      6  H   UNL     1       1.268   9.022  20.054  0.00  0.00    +0.000 HD
ENDROOT
BRANCH   1  12
ATOM      7  C   UNL     1       5.333   3.763  16.119  0.00  0.00    +0.000 C 
ATOM      8  C   UNL     1       4.391   3.926  17.320  0.00  0.00    +0.000 C 
ATOM      9  C   UNL     1       4.439   2.595  18.088  0.00  0.00    +0.000 C 
ATOM     10  O   UNL     1       4.877   4.989  18.143  0.00  0.00    +0.000 OA
ATOM     11  C   UNL     1       4.456   6.295  17.713  0.00  0.00    +0.000 C 
ATOM     12  C   UNL     1       2.914   6.432  17.633  0.00  0.00    +0.000 C 
ATOM     13  C   UNL     1       2.287   5.025  17.702  0.00  0.00    +0.000 C 
ATOM     14  O   UNL     1       3.047   4.126  16.873  0.00  0.00    +0.000 OA
BRANCH  13  15
ATOM     15  C   UNL     1       1.993   4.477  19.098  0.00  0.00    +0.000 A 
ATOM     16  C   UNL     1       1.153   3.362  19.232  0.00  0.00    +0.000 A 
ATOM     17  C   UNL     1       0.888   2.822  20.493  0.00  0.00    +0.000 A 
ATOM     18  C   UNL     1       1.463   3.373  21.634  0.00  0.00    +0.000 A 
ATOM     19  C   UNL     1       2.311   4.466  21.523  0.00  0.00    +0.000 A 
ATOM     20  C   UNL     1       2.564   5.018  20.267  0.00  0.00    +0.000 A 
ENDBRANCH  13  15
ENDBRANCH   1  12
BRANCH   4  21
ATOM     21  C   UNL     1       1.464  10.912  19.188  0.00  0.00    +0.000 A 
ATOM     22  C   UNL     1       2.064  11.646  18.149  0.00  0.00    +0.000 A 
ATOM     23  C   UNL     1       1.958  13.035  18.062  0.00  0.00    +0.000 A 
ATOM     24  C   UNL     1       1.225  13.731  19.005  0.00  0.00    +0.000 A 
ATOM     25  C   UNL     1       0.625  13.033  20.053  0.00  0.00    +0.000 A 
ATOM     26  C   UNL     1       0.761  11.630  20.189  0.00  0.00    +0.000 A 
BRANCH  26  27
ATOM     27  C   UNL     1       0.173  11.019  21.391  0.00  0.00    +0.000 A 
ATOM     28  C   UNL     1      -0.977  11.427  22.142  0.00  0.00    +0.000 A 
ATOM     29  C   UNL     1      -1.253  10.578  23.195  0.00  0.00    +0.000 A 
ATOM     30  S   UNL     1      -0.088   9.341  23.348  0.00  0.00    +0.000 S 
ATOM     31  C   UNL     1       0.766   9.915  21.983  0.00  0.00    +0.000 A 
ENDBRANCH  26  27
ENDBRANCH   4  21
TORSDOF 4
ENDMDL
MODEL 5
REMARK VINA RESULT:      -7.5      3.175      7.986
REMARK  Name = 
REMARK  6 active torsions:
REMARK  status: ('A' for Active; 'I' for Inactive)
REMARK    1  A    between atoms: C_1  and  C_2
REMARK    2  A    between atoms: C_2  and  C_3
REMARK    3  A    between atoms: C_6  and  N_7
REMARK    4  A    between atoms: N_10  and  C_11
REMARK    5  A    between atoms: C_16  and  C_17
REMARK    6  A    between atoms: C_22  and  C_23
REMARK                            x       y       z     vdW  Elec       q    Type
REMARK                         _______ _______ _______ _____ _____    ______ ____
ROOT
ATOM      1  N   UNL     1       1.523   9.113  18.902  0.00  0.00    +0.000 N 
ATOM      2  C   UNL     1       1.782   8.016  19.696  0.00  0.00    +0.000 C 
ATOM      3  O   UNL     1       1.988   8.166  20.898  0.00  0.00    +0.000 OA
ATOM      4  N   UNL     1       1.792   6.825  19.003  0.00  0.00    +0.000 N 
ATOM      5  H   UNL     1       0.888   8.946  18.132  0.00  0.00    +0.000 HD
ATOM      6  H   UNL     1       1.502   6.841  18.036  0.00  0.00    +0.000 HD
ENDROOT
BRANCH   1  12
ATOM      7  C   UNL     1       1.399  14.361  19.795  0.00  0.00    +0.000 C 
ATOM      8  C   UNL     1       0.550  13.219  19.217  0.00  0.00    +0.000 C 
ATOM      9  C   UNL     1      -0.709  13.876  18.629  0.00  0.00    +0.000 C 
ATOM     10  O   UNL     1       1.297  12.571  18.185  0.00  0.00    +0.000 OA
ATOM     11  C   UNL     1       2.206  11.567  18.670  0.00  0.00    +0.000 C 
ATOM     12  C   UNL     1       1.498  10.466  19.500  0.00  0.00    +0.000 C 
ATOM     13  C   UNL     1       0.079  10.951  19.857  0.00  0.00    +0.000 C 
ATOM     14  O   UNL     1       0.136  12.332  20.260  0.00  0.00    +0.000 OA
BRANCH  13  15
ATOM     15  C   UNL     1      -1.021  10.649  18.840  0.00  0.00    +0.000 A 
ATOM     16  C   UNL     1      -2.317  11.136  19.069  0.00  0.00    +0.000 A 
ATOM     17  C   UNL     1      -3.336  10.900  18.143  0.00  0.00    +0.000 A 
ATOM     18  C   UNL     1      -3.080  10.192  16.973  0.00  0.00    +0.000 A 
ATOM     19  C   UNL     1      -1.801   9.717  16.718  0.00  0.00    +0.000 A 
ATOM     20  C   UNL     1      -0.785   9.936  17.648  0.00  0.00    +0.000 A 
ENDBRANCH  13  15
ENDBRANCH   1  12
BRANCH   4  21
ATOM     21  C   UNL     1       2.135   5.548  19.548  0.00  0.00    +0.000 A 
ATOM     22  C   UNL     1       1.255   4.916  20.445  0.00  0.00    +0.000 A 
ATOM     23  C   UNL     1       1.544   3.679  21.023  0.00  0.00    +0.000 A 
ATOM     24  C   UNL     1       2.720   3.026  20.701  0.00  0.00    +0.000 A 
ATOM     25  C   UNL     1       3.618   3.630  19.824  0.00  0.00    +0.000 A 
ATOM     26  C   UNL     1       3.368   4.907  19.263  0.00  0.00    +0.000 A 
BRANCH  26  27
ATOM     27  C   UNL     1       4.435   5.490  18.434  0.00  0.00    +0.000 A 
ATOM     28  C   UNL     1       4.350   6.065  17.125  0.00  0.00    +0.000 A 
ATOM     29  C   UNL     1       5.561   6.551  16.678  0.00  0.00    +0.000 A 
ATOM     30  S   UNL     1       6.827   6.241  17.779  0.00  0.00    +0.000 S 
ATOM     31  C   UNL     1       5.750   5.491  18.875  0.00  0.00    +0.000 A 
ENDBRANCH  26  27
ENDBRANCH   4  21
TORSDOF 4
ENDMDL
MODEL 6
REMARK VINA RESULT:      -7.4      2.672      7.776
REMARK  Name = 
REMARK  6 active torsions:
REMARK  status: ('A' for Active; 'I' for Inactive)
REMARK    1  A    between atoms: C_1  and  C_2
REMARK    2  A    between atoms: C_2  and  C_3
REMARK    3  A    between atoms: C_6  and  N_7
REMARK    4  A    between atoms: N_10  and  C_11
REMARK    5  A    between atoms: C_16  and  C_17
REMARK    6  A    between atoms: C_22  and  C_23
REMARK                            x       y       z     vdW  Elec       q    Type
REMARK                         _______ _______ _______ _____ _____    ______ ____
ROOT
ATOM      1  N   UNL     1       1.917   8.812  19.418  0.00  0.00    +0.000 N 
ATOM      2  C   UNL     1       2.062   7.520  18.963  0.00  0.00    +0.000 C 
ATOM      3  O   UNL     1       1.592   7.199  17.874  0.00  0.00    +0.000 OA
ATOM      4  N   UNL     1       2.740   6.700  19.839  0.00  0.00    +0.000 N 
ATOM      5  H   UNL     1       2.686   9.160  19.978  0.00  0.00    +0.000 HD
ATOM      6  H   UNL     1       3.161   7.127  20.652  0.00  0.00    +0.000 HD
ENDROOT
BRANCH   1  12
ATOM      7  C   UNL     1      -1.725  11.646  16.761  0.00  0.00    +0.000 C 
ATOM      8  C   UNL     1      -1.328  11.233  18.185  0.00  0.00    +0.000 C 
ATOM      9  C   UNL     1      -2.435  11.764  19.111  0.00  0.00    +0.000 C 
ATOM     10  O   UNL     1      -1.272   9.806  18.249  0.00  0.00    +0.000 OA
ATOM     11  C   UNL     1      -0.020   9.254  17.807  0.00  0.00    +0.000 C 
ATOM     12  C   UNL     1       1.193   9.807  18.597  0.00  0.00    +0.000 C 
ATOM     13  C   UNL     1       0.742  11.047  19.393  0.00  0.00    +0.000 C 
ATOM     14  O   UNL     1      -0.101  11.866  18.561  0.00  0.00    +0.000 OA
BRANCH  13  15
ATOM     15  C   UNL     1       0.171  10.791  20.788  0.00  0.00    +0.000 A 
ATOM     16  C   UNL     1      -0.295  11.876  21.546  0.00  0.00    +0.000 A 
ATOM     17  C   UNL     1      -0.848  11.668  22.813  0.00  0.00    +0.000 A 
ATOM     18  C   UNL     1      -0.958  10.384  23.336  0.00  0.00    +0.000 A 
ATOM     19  C   UNL     1      -0.520   9.295  22.595  0.00  0.00    +0.000 A 
ATOM     20  C   UNL     1       0.048   9.500  21.338  0.00  0.00    +0.000 A 
ENDBRANCH  13  15
ENDBRANCH   1  12
BRANCH   4  21
ATOM     21  C   UNL     1       2.942   5.294  19.675  0.00  0.00    +0.000 A 
ATOM     22  C   UNL     1       2.014   4.390  20.222  0.00  0.00    +0.000 A 
ATOM     23  C   UNL     1       2.168   3.007  20.109  0.00  0.00    +0.000 A 
ATOM     24  C   UNL     1       3.251   2.487  19.424  0.00  0.00    +0.000 A 
ATOM     25  C   UNL     1       4.194   3.357  18.880  0.00  0.00    +0.000 A 
ATOM     26  C   UNL     1       4.084   4.762  19.023  0.00  0.00    +0.000 A 
BRANCH  26  27
ATOM     27  C   UNL     1       5.194   5.573  18.498  0.00  0.00    +0.000 A 
ATOM     28  C   UNL     1       5.203   6.483  17.392  0.00  0.00    +0.000 A 
ATOM     29  C   UNL     1       6.425   7.100  17.220  0.00  0.00    +0.000 A 
ATOM     30  S   UNL     1       7.596   6.527  18.322  0.00  0.00    +0.000 S 
ATOM     31  C   UNL     1       6.460   5.483  19.056  0.00  0.00    +0.000 A 
ENDBRANCH  26  27
ENDBRANCH   4  21
TORSDOF 4
ENDMDL
MODEL 7
REMARK VINA RESULT:      -7.4      2.274      3.747
REMARK  Name = 
REMARK  6 active torsions:
REMARK  status: ('A' for Active; 'I' for Inactive)
REMARK    1  A    between atoms: C_1  and  C_2
REMARK    2  A    between atoms: C_2  and  C_3
REMARK    3  A    between atoms: C_6  and  N_7
REMARK    4  A    between atoms: N_10  and  C_11
REMARK    5  A    between atoms: C_16  and  C_17
REMARK    6  A    between atoms: C_22  and  C_23
REMARK                            x       y       z     vdW  Elec       q    Type
REMARK                         _______ _______ _______ _____ _____    ______ ____
ROOT
ATOM      1  N   UNL     1       2.709   8.084  18.700  0.00  0.00    +0.000 N 
ATOM      2  C   UNL     1       1.612   8.747  18.195  0.00  0.00    +0.000 C 
ATOM      3  O   UNL     1       1.334   8.648  17.002  0.00  0.00    +0.000 OA
ATOM      4  N   UNL     1       0.936   9.491  19.138  0.00  0.00    +0.000 N 
ATOM      5  H   UNL     1       2.616   7.764  19.656  0.00  0.00    +0.000 HD
ATOM      6  H   UNL     1       1.218   9.395  20.102  0.00  0.00    +0.000 HD
ENDROOT
BRANCH   1  12
ATOM      7  C   UNL     1       6.334   4.797  16.600  0.00  0.00    +0.000 C 
ATOM      8  C   UNL     1       5.122   4.805  17.543  0.00  0.00    +0.000 C 
ATOM      9  C   UNL     1       5.015   3.384  18.118  0.00  0.00    +0.000 C 
ATOM     10  O   UNL     1       5.364   5.747  18.591  0.00  0.00    +0.000 OA
ATOM     11  C   UNL     1       5.027   7.101  18.244  0.00  0.00    +0.000 C 
ATOM     12  C   UNL     1       3.549   7.259  17.805  0.00  0.00    +0.000 C 
ATOM     13  C   UNL     1       2.961   5.859  17.533  0.00  0.00    +0.000 C 
ATOM     14  O   UNL     1       3.924   5.072  16.807  0.00  0.00    +0.000 OA
BRANCH  13  15
ATOM     15  C   UNL     1       2.347   5.133  18.731  0.00  0.00    +0.000 A 
ATOM     16  C   UNL     1       1.507   4.033  18.505  0.00  0.00    +0.000 A 
ATOM     17  C   UNL     1       0.954   3.333  19.581  0.00  0.00    +0.000 A 
ATOM     18  C   UNL     1       1.239   3.707  20.891  0.00  0.00    +0.000 A 
ATOM     19  C   UNL     1       2.082   4.781  21.136  0.00  0.00    +0.000 A 
ATOM     20  C   UNL     1       2.622   5.493  20.065  0.00  0.00    +0.000 A 
ENDBRANCH  13  15
ENDBRANCH   1  12
BRANCH   4  21
ATOM     21  C   UNL     1      -0.170  10.359  18.875  0.00  0.00    +0.000 A 
ATOM     22  C   UNL     1      -1.404   9.813  18.479  0.00  0.00    +0.000 A 
ATOM     23  C   UNL     1      -2.513  10.611  18.192  0.00  0.00    +0.000 A 
ATOM     24  C   UNL     1      -2.424  11.985  18.316  0.00  0.00    +0.000 A 
ATOM     25  C   UNL     1      -1.212  12.558  18.697  0.00  0.00    +0.000 A 
ATOM     26  C   UNL     1      -0.060  11.772  18.945  0.00  0.00    +0.000 A 
BRANCH  26  27
ATOM     27  C   UNL     1       1.188  12.494  19.238  0.00  0.00    +0.000 A 
ATOM     28  C   UNL     1       2.265  12.831  18.355  0.00  0.00    +0.000 A 
ATOM     29  C   UNL     1       3.259  13.555  18.981  0.00  0.00    +0.000 A 
ATOM     30  S   UNL     1       2.958  13.756  20.649  0.00  0.00    +0.000 S 
ATOM     31  C   UNL     1       1.476  12.911  20.528  0.00  0.00    +0.000 A 
ENDBRANCH  26  27
ENDBRANCH   4  21
TORSDOF 4
ENDMDL
MODEL 8
REMARK VINA RESULT:      -7.4      3.057      8.039
REMARK  Name = 
REMARK  6 active torsions:
REMARK  status: ('A' for Active; 'I' for Inactive)
REMARK    1  A    between atoms: C_1  and  C_2
REMARK    2  A    between atoms: C_2  and  C_3
REMARK    3  A    between atoms: C_6  and  N_7
REMARK    4  A    between atoms: N_10  and  C_11
REMARK    5  A    between atoms: C_16  and  C_17
REMARK    6  A    between atoms: C_22  and  C_23
REMARK                            x       y       z     vdW  Elec       q    Type
REMARK                         _______ _______ _______ _____ _____    ______ ____
ROOT
ATOM      1  N   UNL     1       1.737   8.494  18.041  0.00  0.00    +0.000 N 
ATOM      2  C   UNL     1       2.065   7.275  18.594  0.00  0.00    +0.000 C 
ATOM      3  O   UNL     1       2.546   7.227  19.724  0.00  0.00    +0.000 OA
ATOM      4  N   UNL     1       1.812   6.206  17.763  0.00  0.00    +0.000 N 
ATOM      5  H   UNL     1       0.934   8.484  17.425  0.00  0.00    +0.000 HD
ATOM      6  H   UNL     1       1.316   6.387  16.902  0.00  0.00    +0.000 HD
ENDROOT
BRANCH   1  12
ATOM      7  C   UNL     1       2.360  13.538  19.629  0.00  0.00    +0.000 C 
ATOM      8  C   UNL     1       1.301  12.574  19.076  0.00  0.00    +0.000 C 
ATOM      9  C   UNL     1       0.039  13.417  18.830  0.00  0.00    +0.000 C 
ATOM     10  O   UNL     1       1.778  12.027  17.845  0.00  0.00    +0.000 OA
ATOM     11  C   UNL     1       2.639  10.888  18.010  0.00  0.00    +0.000 C 
ATOM     12  C   UNL     1       1.969   9.738  18.806  0.00  0.00    +0.000 C 
ATOM     13  C   UNL     1       0.699  10.283  19.488  0.00  0.00    +0.000 C 
ATOM     14  O   UNL     1       0.980  11.578  20.052  0.00  0.00    +0.000 OA
BRANCH  13  15
ATOM     15  C   UNL     1      -0.590  10.234  18.667  0.00  0.00    +0.000 A 
ATOM     16  C   UNL     1      -1.758  10.806  19.194  0.00  0.00    +0.000 A 
ATOM     17  C   UNL     1      -2.944  10.801  18.454  0.00  0.00    +0.000 A 
ATOM     18  C   UNL     1      -2.982  10.243  17.180  0.00  0.00    +0.000 A 
ATOM     19  C   UNL     1      -1.834   9.688  16.634  0.00  0.00    +0.000 A 
ATOM     20  C   UNL     1      -0.652   9.676  17.375  0.00  0.00    +0.000 A 
ENDBRANCH  13  15
ENDBRANCH   1  12
BRANCH   4  21
ATOM     21  C   UNL     1       2.150   4.843  18.034  0.00  0.00    +0.000 A 
ATOM     22  C   UNL     1       1.196   3.994  18.622  0.00  0.00    +0.000 A 
ATOM     23  C   UNL     1       1.473   2.660  18.926  0.00  0.00    +0.000 A 
ATOM     24  C   UNL     1       2.715   2.130  18.628  0.00  0.00    +0.000 A 
ATOM     25  C   UNL     1       3.686   2.948  18.054  0.00  0.00    +0.000 A 
ATOM     26  C   UNL     1       3.443   4.316  17.782  0.00  0.00    +0.000 A 
BRANCH  26  27
ATOM     27  C   UNL     1       4.576   5.105  17.273  0.00  0.00    +0.000 A 
ATOM     28  C   UNL     1       5.022   5.280  15.923  0.00  0.00    +0.000 A 
ATOM     29  C   UNL     1       6.103   6.131  15.825  0.00  0.00    +0.000 A 
ATOM     30  S   UNL     1       6.651   6.655  17.354  0.00  0.00    +0.000 S 
ATOM     31  C   UNL     1       5.418   5.776  18.147  0.00  0.00    +0.000 A 
ENDBRANCH  26  27
ENDBRANCH   4  21
TORSDOF 4
ENDMDL
MODEL 9
REMARK VINA RESULT:      -7.3      1.691      1.765
REMARK  Name = 
REMARK  6 active torsions:
REMARK  status: ('A' for Active; 'I' for Inactive)
REMARK    1  A    between atoms: C_1  and  C_2
REMARK    2  A    between atoms: C_2  and  C_3
REMARK    3  A    between atoms: C_6  and  N_7
REMARK    4  A    between atoms: N_10  and  C_11
REMARK    5  A    between atoms: C_16  and  C_17
REMARK    6  A    between atoms: C_22  and  C_23
REMARK                            x       y       z     vdW  Elec       q    Type
REMARK                         _______ _______ _______ _____ _____    ______ ____
ROOT
ATOM      1  N   UNL     1       2.309   6.654  19.316  0.00  0.00    +0.000 N 
ATOM      2  C   UNL     1       1.586   7.154  20.378  0.00  0.00    +0.000 C 
ATOM      3  O   UNL     1       1.147   6.387  21.232  0.00  0.00    +0.000 OA
ATOM      4  N   UNL     1       1.425   8.521  20.340  0.00  0.00    +0.000 N 
ATOM      5  H   UNL     1       3.041   7.262  18.971  0.00  0.00    +0.000 HD
ATOM      6  H   UNL     1       1.931   9.035  19.634  0.00  0.00    +0.000 HD
ENDROOT
BRANCH   1  12
ATOM      7  C   UNL     1       3.218   1.683  17.638  0.00  0.00    +0.000 C 
ATOM      8  C   UNL     1       3.872   3.071  17.695  0.00  0.00    +0.000 C 
ATOM      9  C   UNL     1       5.189   2.958  16.911  0.00  0.00    +0.000 C 
ATOM     10  O   UNL     1       3.001   4.014  17.065  0.00  0.00    +0.000 OA
ATOM     11  C   UNL     1       1.977   4.528  17.932  0.00  0.00    +0.000 C 
ATOM     12  C   UNL     1       2.550   5.199  19.207  0.00  0.00    +0.000 C 
ATOM     13  C   UNL     1       4.036   4.813  19.344  0.00  0.00    +0.000 C 
ATOM     14  O   UNL     1       4.192   3.413  19.047  0.00  0.00    +0.000 OA
BRANCH  13  15
ATOM     15  C   UNL     1       5.043   5.713  18.627  0.00  0.00    +0.000 A 
ATOM     16  C   UNL     1       6.398   5.640  18.982  0.00  0.00    +0.000 A 
ATOM     17  C   UNL     1       7.345   6.430  18.324  0.00  0.00    +0.000 A 
ATOM     18  C   UNL     1       6.962   7.289  17.299  0.00  0.00    +0.000 A 
ATOM     19  C   UNL     1       5.629   7.363  16.920  0.00  0.00    +0.000 A 
ATOM     20  C   UNL     1       4.679   6.589  17.585  0.00  0.00    +0.000 A 
ENDBRANCH  13  15
ENDBRANCH   1  12
BRANCH   4  21
ATOM     21  C   UNL     1       0.635   9.291  21.251  0.00  0.00    +0.000 A 
ATOM     22  C   UNL     1       0.846   9.163  22.635  0.00  0.00    +0.000 A 
ATOM     23  C   UNL     1       0.094   9.874  23.571  0.00  0.00    +0.000 A 
ATOM     24  C   UNL     1      -0.882  10.756  23.145  0.00  0.00    +0.000 A 
ATOM     25  C   UNL     1      -1.122  10.899  21.780  0.00  0.00    +0.000 A 
ATOM     26  C   UNL     1      -0.406  10.152  20.814  0.00  0.00    +0.000 A 
BRANCH  26  27
ATOM     27  C   UNL     1      -0.818  10.309  19.410  0.00  0.00    +0.000 A 
ATOM     28  C   UNL     1      -0.365   9.601  18.251  0.00  0.00    +0.000 A 
ATOM     29  C   UNL     1      -1.014   9.995  17.099  0.00  0.00    +0.000 A 
ATOM     30  S   UNL     1      -2.104  11.278  17.380  0.00  0.00    +0.000 S 
ATOM     31  C   UNL     1      -1.739  11.281  19.050  0.00  0.00    +0.000 A 
ENDBRANCH  26  27
ENDBRANCH   4  21
TORSDOF 4
ENDMDL
