MODEL 1
REMARK VINA RESULT:      -8.5      0.000      0.000
REMARK  Name = 
REMARK  8 active torsions:
REMARK  status: ('A' for Active; 'I' for Inactive)
REMARK    1  A    between atoms: C_1  and  O_2
REMARK    2  A    between atoms: O_2  and  C_3
REMARK    3  A    between atoms: C_6  and  C_7
REMARK    4  A    between atoms: C_7  and  N_8
REMARK    5  A    between atoms: C_11  and  C_12
REMARK    6  A    between atoms: C_20  and  C_22
REMARK    7  A    between atoms: C_22  and  C_23
REMARK    8  A    between atoms: C_22  and  C_24
REMARK                            x       y       z     vdW  Elec       q    Type
REMARK                         _______ _______ _______ _____ _____    ______ ____
ROOT
ATOM      1  N   UNL     1       1.832   7.972  18.819  0.00  0.00    +0.000 N 
ATOM      2  C   UNL     1       2.773   7.044  18.520  0.00  0.00    +0.000 A 
ATOM      3  N   UNL     1       3.696   7.121  17.582  0.00  0.00    +0.000 NA
ATOM      4  C   UNL     1       4.244   5.863  17.538  0.00  0.00    +0.000 A 
ATOM      5  N   UNL     1       3.731   5.016  18.432  0.00  0.00    +0.000 NA
ATOM      6  N   UNL     1       2.835   5.778  19.107  0.00  0.00    +0.000 N 
ATOM      7  C   UNL     1       2.127   5.229  20.189  0.00  0.00    +0.000 C 
ATOM      8  O   UNL     1       1.474   5.955  20.929  0.00  0.00    +0.000 OA
ATOM      9  H   UNL     1       0.921   7.670  19.155  0.00  0.00    +0.000 HD
ENDROOT
BRANCH   4  10
ATOM     10  C   UNL     1       5.211   5.435  16.550  0.00  0.00    +0.000 A 
ATOM     11  C   UNL     1       4.973   4.380  15.672  0.00  0.00    +0.000 A 
ATOM     12  C   UNL     1       5.970   3.976  14.793  0.00  0.00    +0.000 A 
ATOM     13  C   UNL     1       7.184   4.651  14.812  0.00  0.00    +0.000 A 
ATOM     14  N   UNL     1       7.448   5.685  15.632  0.00  0.00    +0.000 NA
ATOM     15  C   UNL     1       6.464   6.053  16.481  0.00  0.00    +0.000 A 
ENDBRANCH   4  10
BRANCH   7  16
ATOM     16  C   UNL     1       2.164   3.698  20.254  0.00  0.00    +0.000 C 
ATOM     17  C   UNL     1       2.226   3.129  21.670  0.00  0.00    +0.000 C 
ATOM     18  C   UNL     1       0.956   3.118  19.518  0.00  0.00    +0.000 C 
ENDBRANCH   7  16
BRANCH   1  19
ATOM     19  C   UNL     1       1.853   9.288  18.212  0.00  0.00    +0.000 C 
BRANCH  19  23
ATOM     20  C   UNL     1      -1.846  11.395  19.045  0.00  0.00    +0.000 A 
ATOM     21  C   UNL     1      -1.761  10.485  17.986  0.00  0.00    +0.000 A 
ATOM     22  C   UNL     1      -0.563   9.815  17.720  0.00  0.00    +0.000 A 
ATOM     23  C   UNL     1       0.571  10.046  18.506  0.00  0.00    +0.000 A 
ATOM     24  C   UNL     1       0.487  10.981  19.548  0.00  0.00    +0.000 A 
ATOM     25  C   UNL     1      -0.713  11.656  19.820  0.00  0.00    +0.000 A 
BRANCH  20  27
ATOM     26  C   UNL     1      -4.104  11.532  18.323  0.00  0.00    +0.000 C 
ATOM     27  O   UNL     1      -3.072  11.984  19.191  0.00  0.00    +0.000 OA
ENDBRANCH  20  27
ENDBRANCH  19  23
ENDBRANCH   1  19
TORSDOF 5
ENDMDL
MODEL 2
REMARK VINA RESULT:      -8.2      1.060      1.643
REMARK  Name = 
REMARK  8 active torsions:
REMARK  status: ('A' for Active; 'I' for Inactive)
REMARK    1  A    between atoms: C_1  and  O_2
REMARK    2  A    between atoms: O_2  and  C_3
REMARK    3  A    between atoms: C_6  and  C_7
REMARK    4  A    between atoms: C_7  and  N_8
REMARK    5  A    between atoms: C_11  and  C_12
REMARK    6  A    between atoms: C_20  and  C_22
REMARK    7  A    between atoms: C_22  and  C_23
REMARK    8  A    between atoms: C_22  and  C_24
REMARK                            x       y       z     vdW  Elec       q    Type
REMARK                         _______ _______ _______ _____ _____    ______ ____
ROOT
ATOM      1  N   UNL     1       1.856   7.688  19.045  0.00  0.00    +0.000 N 
ATOM      2  C   UNL     1       2.804   6.798  18.663  0.00  0.00    +0.000 A 
ATOM      3  N   UNL     1       3.702   6.953  17.710  0.00  0.00    +0.000 NA
ATOM      4  C   UNL     1       4.269   5.709  17.570  0.00  0.00    +0.000 A 
ATOM      5  N   UNL     1       3.793   4.798  18.420  0.00  0.00    +0.000 NA
ATOM      6  N   UNL     1       2.902   5.498  19.165  0.00  0.00    +0.000 N 
ATOM      7  C   UNL     1       2.232   4.868  20.226  0.00  0.00    +0.000 C 
ATOM      8  O   UNL     1       1.586   5.533  21.028  0.00  0.00    +0.000 OA
ATOM      9  H   UNL     1       0.960   7.348  19.383  0.00  0.00    +0.000 HD
ENDROOT
BRANCH   4  10
ATOM     10  C   UNL     1       5.217   5.364  16.533  0.00  0.00    +0.000 A 
ATOM     11  C   UNL     1       4.962   4.385  15.575  0.00  0.00    +0.000 A 
ATOM     12  C   UNL     1       5.941   4.054  14.649  0.00  0.00    +0.000 A 
ATOM     13  C   UNL     1       7.156   4.724  14.701  0.00  0.00    +0.000 A 
ATOM     14  N   UNL     1       7.438   5.687  15.598  0.00  0.00    +0.000 NA
ATOM     15  C   UNL     1       6.470   5.985  16.492  0.00  0.00    +0.000 A 
ENDBRANCH   4  10
BRANCH   7  16
ATOM     16  C   UNL     1       2.296   3.337  20.190  0.00  0.00    +0.000 C 
ATOM     17  C   UNL     1       2.447   2.681  21.562  0.00  0.00    +0.000 C 
ATOM     18  C   UNL     1       1.057   2.782  19.488  0.00  0.00    +0.000 C 
ENDBRANCH   7  16
BRANCH   1  19
ATOM     19  C   UNL     1       1.839   9.040  18.524  0.00  0.00    +0.000 C 
BRANCH  19  23
ATOM     20  C   UNL     1      -0.925  11.532  20.752  0.00  0.00    +0.000 A 
ATOM     21  C   UNL     1      -0.083  10.628  21.409  0.00  0.00    +0.000 A 
ATOM     22  C   UNL     1       0.801   9.824  20.683  0.00  0.00    +0.000 A 
ATOM     23  C   UNL     1       0.855   9.907  19.287  0.00  0.00    +0.000 A 
ATOM     24  C   UNL     1      -0.012  10.794  18.633  0.00  0.00    +0.000 A 
ATOM     25  C   UNL     1      -0.901  11.604  19.357  0.00  0.00    +0.000 A 
BRANCH  20  27
ATOM     26  C   UNL     1      -1.195  12.641  22.835  0.00  0.00    +0.000 C 
ATOM     27  O   UNL     1      -1.742  12.252  21.580  0.00  0.00    +0.000 OA
ENDBRANCH  20  27
ENDBRANCH  19  23
ENDBRANCH   1  19
TORSDOF 5
ENDMDL
MODEL 3
REMARK VINA RESULT:      -8.0      1.418      1.735
REMARK  Name = 
REMARK  8 active torsions:
REMARK  status: ('A' for Active; 'I' for Inactive)
REMARK    1  A    between atoms: C_1  and  O_2
REMARK    2  A    between atoms: O_2  and  C_3
REMARK    3  A    between atoms: C_6  and  C_7
REMARK    4  A    between atoms: C_7  and  N_8
REMARK    5  A    between atoms: C_11  and  C_12
REMARK    6  A    between atoms: C_20  and  C_22
REMARK    7  A    between atoms: C_22  and  C_23
REMARK    8  A    between atoms: C_22  and  C_24
REMARK                            x       y       z     vdW  Elec       q    Type
REMARK                         _______ _______ _______ _____ _____    ______ ____
ROOT
ATOM      1  N   UNL     1       1.803   7.937  18.803  0.00  0.00    +0.000 N 
ATOM      2  C   UNL     1       2.747   7.010  18.508  0.00  0.00    +0.000 A 
ATOM      3  N   UNL     1       3.679   7.092  17.580  0.00  0.00    +0.000 NA
ATOM      4  C   UNL     1       4.227   5.834  17.534  0.00  0.00    +0.000 A 
ATOM      5  N   UNL     1       3.706   4.983  18.420  0.00  0.00    +0.000 NA
ATOM      6  N   UNL     1       2.803   5.741  19.090  0.00  0.00    +0.000 N 
ATOM      7  C   UNL     1       2.085   5.187  20.162  0.00  0.00    +0.000 C 
ATOM      8  O   UNL     1       1.425   5.909  20.900  0.00  0.00    +0.000 OA
ATOM      9  H   UNL     1       0.889   7.633  19.129  0.00  0.00    +0.000 HD
ENDROOT
BRANCH   4  10
ATOM     10  C   UNL     1       5.203   5.412  16.554  0.00  0.00    +0.000 A 
ATOM     11  C   UNL     1       4.981   4.350  15.679  0.00  0.00    +0.000 A 
ATOM     12  C   UNL     1       5.986   3.952  14.808  0.00  0.00    +0.000 A 
ATOM     13  C   UNL     1       7.193   4.639  14.829  0.00  0.00    +0.000 A 
ATOM     14  N   UNL     1       7.443   5.679  15.646  0.00  0.00    +0.000 NA
ATOM     15  C   UNL     1       6.451   6.042  16.488  0.00  0.00    +0.000 A 
ENDBRANCH   4  10
BRANCH   7  16
ATOM     16  C   UNL     1       2.123   3.656  20.220  0.00  0.00    +0.000 C 
ATOM     17  C   UNL     1       2.263   3.082  21.629  0.00  0.00    +0.000 C 
ATOM     18  C   UNL     1       0.873   3.081  19.552  0.00  0.00    +0.000 C 
ENDBRANCH   7  16
BRANCH   1  19
ATOM     19  C   UNL     1       1.828   9.256  18.203  0.00  0.00    +0.000 C 
BRANCH  19  23
ATOM     20  C   UNL     1      -0.268  12.179  20.626  0.00  0.00    +0.000 A 
ATOM     21  C   UNL     1       0.665  12.580  19.664  0.00  0.00    +0.000 A 
ATOM     22  C   UNL     1       1.341  11.631  18.892  0.00  0.00    +0.000 A 
ATOM     23  C   UNL     1       1.098  10.265  19.070  0.00  0.00    +0.000 A 
ATOM     24  C   UNL     1       0.184   9.868  20.056  0.00  0.00    +0.000 A 
ATOM     25  C   UNL     1      -0.499  10.816  20.834  0.00  0.00    +0.000 A 
BRANCH  20  27
ATOM     26  C   UNL     1       0.014  14.230  21.789  0.00  0.00    +0.000 C 
ATOM     27  O   UNL     1      -0.853  13.206  21.314  0.00  0.00    +0.000 OA
ENDBRANCH  20  27
ENDBRANCH  19  23
ENDBRANCH   1  19
TORSDOF 5
ENDMDL
MODEL 4
REMARK VINA RESULT:      -8.0      0.750      1.235
REMARK  Name = 
REMARK  8 active torsions:
REMARK  status: ('A' for Active; 'I' for Inactive)
REMARK    1  A    between atoms: C_1  and  O_2
REMARK    2  A    between atoms: O_2  and  C_3
REMARK    3  A    between atoms: C_6  and  C_7
REMARK    4  A    between atoms: C_7  and  N_8
REMARK    5  A    between atoms: C_11  and  C_12
REMARK    6  A    between atoms: C_20  and  C_22
REMARK    7  A    between atoms: C_22  and  C_23
REMARK    8  A    between atoms: C_22  and  C_24
REMARK                            x       y       z     vdW  Elec       q    Type
REMARK                         _______ _______ _______ _____ _____    ______ ____
ROOT
ATOM      1  N   UNL     1       1.914   8.124  18.732  0.00  0.00    +0.000 N 
ATOM      2  C   UNL     1       2.862   7.186  18.487  0.00  0.00    +0.000 A 
ATOM      3  N   UNL     1       3.826   7.246  17.589  0.00  0.00    +0.000 NA
ATOM      4  C   UNL     1       4.366   5.984  17.585  0.00  0.00    +0.000 A 
ATOM      5  N   UNL     1       3.810   5.153  18.468  0.00  0.00    +0.000 NA
ATOM      6  N   UNL     1       2.890   5.928  19.093  0.00  0.00    +0.000 N 
ATOM      7  C   UNL     1       2.133   5.398  20.150  0.00  0.00    +0.000 C 
ATOM      8  O   UNL     1       1.452   6.138  20.851  0.00  0.00    +0.000 OA
ATOM      9  H   UNL     1       0.988   7.832  19.032  0.00  0.00    +0.000 HD
ENDROOT
BRANCH   4  10
ATOM     10  C   UNL     1       5.373   5.538  16.647  0.00  0.00    +0.000 A 
ATOM     11  C   UNL     1       5.116   5.381  15.286  0.00  0.00    +0.000 A 
ATOM     12  C   UNL     1       6.107   4.884  14.450  0.00  0.00    +0.000 A 
ATOM     13  C   UNL     1       7.341   4.564  15.001  0.00  0.00    +0.000 A 
ATOM     14  N   UNL     1       7.636   4.716  16.305  0.00  0.00    +0.000 NA
ATOM     15  C   UNL     1       6.652   5.195  17.098  0.00  0.00    +0.000 A 
ENDBRANCH   4  10
BRANCH   7  16
ATOM     16  C   UNL     1       2.158   3.868  20.236  0.00  0.00    +0.000 C 
ATOM     17  C   UNL     1       2.264   3.320  21.658  0.00  0.00    +0.000 C 
ATOM     18  C   UNL     1       0.919   3.289  19.552  0.00  0.00    +0.000 C 
ENDBRANCH   7  16
BRANCH   1  19
ATOM     19  C   UNL     1       1.969   9.432  18.109  0.00  0.00    +0.000 C 
BRANCH  19  23
ATOM     20  C   UNL     1      -1.494  11.846  19.106  0.00  0.00    +0.000 A 
ATOM     21  C   UNL     1      -0.219  12.197  19.561  0.00  0.00    +0.000 A 
ATOM     22  C   UNL     1       0.891  11.410  19.241  0.00  0.00    +0.000 A 
ATOM     23  C   UNL     1       0.745  10.256  18.462  0.00  0.00    +0.000 A 
ATOM     24  C   UNL     1      -0.540   9.894  18.033  0.00  0.00    +0.000 A 
ATOM     25  C   UNL     1      -1.658  10.681  18.351  0.00  0.00    +0.000 A 
BRANCH  20  27
ATOM     26  C   UNL     1      -2.780  12.747  20.887  0.00  0.00    +0.000 C 
ATOM     27  O   UNL     1      -2.491  12.697  19.494  0.00  0.00    +0.000 OA
ENDBRANCH  20  27
ENDBRANCH  19  23
ENDBRANCH   1  19
TORSDOF 5
ENDMDL
MODEL 5
REMARK VINA RESULT:      -7.9      0.648      1.195
REMARK  Name = 
REMARK  8 active torsions:
REMARK  status: ('A' for Active; 'I' for Inactive)
REMARK    1  A    between atoms: C_1  and  O_2
REMARK    2  A    between atoms: O_2  and  C_3
REMARK    3  A    between atoms: C_6  and  C_7
REMARK    4  A    between atoms: C_7  and  N_8
REMARK    5  A    between atoms: C_11  and  C_12
REMARK    6  A    between atoms: C_20  and  C_22
REMARK    7  A    between atoms: C_22  and  C_23
REMARK    8  A    between atoms: C_22  and  C_24
REMARK                            x       y       z     vdW  Elec       q    Type
REMARK                         _______ _______ _______ _____ _____    ______ ____
ROOT
ATOM      1  N   UNL     1       1.710   8.018  18.942  0.00  0.00    +0.000 N 
ATOM      2  C   UNL     1       2.675   7.099  18.692  0.00  0.00    +0.000 A 
ATOM      3  N   UNL     1       3.639   7.181  17.797  0.00  0.00    +0.000 NA
ATOM      4  C   UNL     1       4.202   5.929  17.787  0.00  0.00    +0.000 A 
ATOM      5  N   UNL     1       3.660   5.083  18.665  0.00  0.00    +0.000 NA
ATOM      6  N   UNL     1       2.726   5.839  19.293  0.00  0.00    +0.000 N 
ATOM      7  C   UNL     1       1.976   5.290  20.346  0.00  0.00    +0.000 C 
ATOM      8  O   UNL     1       1.282   6.014  21.051  0.00  0.00    +0.000 OA
ATOM      9  H   UNL     1       0.789   7.707  19.239  0.00  0.00    +0.000 HD
ENDROOT
BRANCH   4  10
ATOM     10  C   UNL     1       5.218   5.506  16.848  0.00  0.00    +0.000 A 
ATOM     11  C   UNL     1       6.221   4.598  17.182  0.00  0.00    +0.000 A 
ATOM     12  C   UNL     1       7.206   4.285  16.254  0.00  0.00    +0.000 A 
ATOM     13  C   UNL     1       7.154   4.888  15.004  0.00  0.00    +0.000 A 
ATOM     14  N   UNL     1       6.194   5.756  14.635  0.00  0.00    +0.000 NA
ATOM     15  C   UNL     1       5.252   6.048  15.558  0.00  0.00    +0.000 A 
ENDBRANCH   4  10
BRANCH   7  16
ATOM     16  C   UNL     1       2.030   3.760  20.426  0.00  0.00    +0.000 C 
ATOM     17  C   UNL     1       2.158   3.208  21.844  0.00  0.00    +0.000 C 
ATOM     18  C   UNL     1       0.795   3.163  19.750  0.00  0.00    +0.000 C 
ENDBRANCH   7  16
BRANCH   1  19
ATOM     19  C   UNL     1       1.742   9.329  18.324  0.00  0.00    +0.000 C 
BRANCH  19  23
ATOM     20  C   UNL     1      -2.035  11.413  18.778  0.00  0.00    +0.000 A 
ATOM     21  C   UNL     1      -0.963  11.674  19.638  0.00  0.00    +0.000 A 
ATOM     22  C   UNL     1       0.248  10.993  19.489  0.00  0.00    +0.000 A 
ATOM     23  C   UNL     1       0.409  10.038  18.479  0.00  0.00    +0.000 A 
ATOM     24  C   UNL     1      -0.679   9.760  17.639  0.00  0.00    +0.000 A 
ATOM     25  C   UNL     1      -1.898  10.441  17.783  0.00  0.00    +0.000 A 
BRANCH  20  27
ATOM     26  C   UNL     1      -4.387  11.627  18.528  0.00  0.00    +0.000 C 
ATOM     27  O   UNL     1      -3.163  12.144  19.036  0.00  0.00    +0.000 OA
ENDBRANCH  20  27
ENDBRANCH  19  23
ENDBRANCH   1  19
TORSDOF 5
ENDMDL
MODEL 6
REMARK VINA RESULT:      -7.9      1.869      2.464
REMARK  Name = 
REMARK  8 active torsions:
REMARK  status: ('A' for Active; 'I' for Inactive)
REMARK    1  A    between atoms: C_1  and  O_2
REMARK    2  A    between atoms: O_2  and  C_3
REMARK    3  A    between atoms: C_6  and  C_7
REMARK    4  A    between atoms: C_7  and  N_8
REMARK    5  A    between atoms: C_11  and  C_12
REMARK    6  A    between atoms: C_20  and  C_22
REMARK    7  A    between atoms: C_22  and  C_23
REMARK    8  A    between atoms: C_22  and  C_24
REMARK                            x       y       z     vdW  Elec       q    Type
REMARK                         _______ _______ _______ _____ _____    ______ ____
ROOT
ATOM      1  N   UNL     1       2.814   6.801  18.383  0.00  0.00    +0.000 N 
ATOM      2  C   UNL     1       3.752   6.030  17.781  0.00  0.00    +0.000 A 
ATOM      3  N   UNL     1       4.412   6.302  16.673  0.00  0.00    +0.000 NA
ATOM      4  C   UNL     1       5.067   5.133  16.370  0.00  0.00    +0.000 A 
ATOM      5  N   UNL     1       4.876   4.159  17.261  0.00  0.00    +0.000 NA
ATOM      6  N   UNL     1       4.089   4.740  18.199  0.00  0.00    +0.000 N 
ATOM      7  C   UNL     1       3.722   4.019  19.347  0.00  0.00    +0.000 C 
ATOM      8  O   UNL     1       3.188   4.592  20.290  0.00  0.00    +0.000 OA
ATOM      9  H   UNL     1       2.047   6.356  18.882  0.00  0.00    +0.000 HD
ENDROOT
BRANCH   4  10
ATOM     10  C   UNL     1       5.812   4.916  15.149  0.00  0.00    +0.000 A 
ATOM     11  C   UNL     1       5.381   4.048  14.148  0.00  0.00    +0.000 A 
ATOM     12  C   UNL     1       6.177   3.832  13.031  0.00  0.00    +0.000 A 
ATOM     13  C   UNL     1       7.389   4.505  12.942  0.00  0.00    +0.000 A 
ATOM     14  N   UNL     1       7.835   5.363  13.877  0.00  0.00    +0.000 NA
ATOM     15  C   UNL     1       7.045   5.550  14.956  0.00  0.00    +0.000 A 
ENDBRANCH   4  10
BRANCH   7  16
ATOM     16  C   UNL     1       3.940   2.506  19.236  0.00  0.00    +0.000 C 
ATOM     17  C   UNL     1       4.551   1.865  20.481  0.00  0.00    +0.000 C 
ATOM     18  C   UNL     1       2.618   1.816  18.897  0.00  0.00    +0.000 C 
ENDBRANCH   7  16
BRANCH   1  19
ATOM     19  C   UNL     1       2.546   8.152  17.932  0.00  0.00    +0.000 C 
BRANCH  19  23
ATOM     20  C   UNL     1      -0.036  10.220  20.739  0.00  0.00    +0.000 A 
ATOM     21  C   UNL     1       0.679   9.080  21.125  0.00  0.00    +0.000 A 
ATOM     22  C   UNL     1       1.503   8.416  20.212  0.00  0.00    +0.000 A 
ATOM     23  C   UNL     1       1.626   8.877  18.897  0.00  0.00    +0.000 A 
ATOM     24  C   UNL     1       0.885  10.003  18.508  0.00  0.00    +0.000 A 
ATOM     25  C   UNL     1       0.056  10.674  19.420  0.00  0.00    +0.000 A 
BRANCH  20  27
ATOM     26  C   UNL     1      -0.734  10.155  23.007  0.00  0.00    +0.000 C 
ATOM     27  O   UNL     1      -0.807  10.769  21.725  0.00  0.00    +0.000 OA
ENDBRANCH  20  27
ENDBRANCH  19  23
ENDBRANCH   1  19
TORSDOF 5
ENDMDL
MODEL 7
REMARK VINA RESULT:      -7.8      3.055      7.641
REMARK  Name = 
REMARK  8 active torsions:
REMARK  status: ('A' for Active; 'I' for Inactive)
REMARK    1  A    between atoms: C_1  and  O_2
REMARK    2  A    between atoms: O_2  and  C_3
REMARK    3  A    between atoms: C_6  and  C_7
REMARK    4  A    between atoms: C_7  and  N_8
REMARK    5  A    between atoms: C_11  and  C_12
REMARK    6  A    between atoms: C_20  and  C_22
REMARK    7  A    between atoms: C_22  and  C_23
REMARK    8  A    between atoms: C_22  and  C_24
REMARK                            x       y       z     vdW  Elec       q    Type
REMARK                         _______ _______ _______ _____ _____    ______ ____
ROOT
ATOM      1  N   UNL     1       5.460   4.676  18.258  0.00  0.00    +0.000 N 
ATOM      2  C   UNL     1       4.288   5.324  18.460  0.00  0.00    +0.000 A 
ATOM      3  N   UNL     1       4.014   6.581  18.171  0.00  0.00    +0.000 NA
ATOM      4  C   UNL     1       2.795   6.809  18.760  0.00  0.00    +0.000 A 
ATOM      5  N   UNL     1       2.277   5.740  19.367  0.00  0.00    +0.000 NA
ATOM      6  N   UNL     1       3.194   4.769  19.127  0.00  0.00    +0.000 N 
ATOM      7  C   UNL     1       2.955   3.459  19.574  0.00  0.00    +0.000 C 
ATOM      8  O   UNL     1       3.668   2.539  19.191  0.00  0.00    +0.000 OA
ATOM      9  H   UNL     1       5.748   3.949  18.908  0.00  0.00    +0.000 HD
ENDROOT
BRANCH   4  10
ATOM     10  C   UNL     1       2.157   8.106  18.825  0.00  0.00    +0.000 A 
ATOM     11  C   UNL     1       2.204   9.022  17.776  0.00  0.00    +0.000 A 
ATOM     12  C   UNL     1       1.629  10.276  17.928  0.00  0.00    +0.000 A 
ATOM     13  C   UNL     1       1.008  10.579  19.133  0.00  0.00    +0.000 A 
ATOM     14  N   UNL     1       0.925   9.719  20.165  0.00  0.00    +0.000 NA
ATOM     15  C   UNL     1       1.499   8.508  19.993  0.00  0.00    +0.000 A 
ENDBRANCH   4  10
BRANCH   7  16
ATOM     16  C   UNL     1       1.848   3.345  20.628  0.00  0.00    +0.000 C 
ATOM     17  C   UNL     1       0.530   2.784  20.097  0.00  0.00    +0.000 C 
ATOM     18  C   UNL     1       2.335   2.493  21.801  0.00  0.00    +0.000 C 
ENDBRANCH   7  16
BRANCH   1  19
ATOM     19  C   UNL     1       6.541   5.289  17.511  0.00  0.00    +0.000 C 
BRANCH  19  23
ATOM     20  C   UNL     1       6.409   4.047  13.357  0.00  0.00    +0.000 A 
ATOM     21  C   UNL     1       5.469   3.574  14.279  0.00  0.00    +0.000 A 
ATOM     22  C   UNL     1       5.523   3.973  15.617  0.00  0.00    +0.000 A 
ATOM     23  C   UNL     1       6.518   4.852  16.058  0.00  0.00    +0.000 A 
ATOM     24  C   UNL     1       7.475   5.300  15.136  0.00  0.00    +0.000 A 
ATOM     25  C   UNL     1       7.425   4.903  13.791  0.00  0.00    +0.000 A 
BRANCH  20  27
ATOM     26  C   UNL     1       4.945   3.113  11.738  0.00  0.00    +0.000 C 
ATOM     27  O   UNL     1       6.245   3.574  12.084  0.00  0.00    +0.000 OA
ENDBRANCH  20  27
ENDBRANCH  19  23
ENDBRANCH   1  19
TORSDOF 5
ENDMDL
MODEL 8
REMARK VINA RESULT:      -7.7      1.932      2.428
REMARK  Name = 
REMARK  8 active torsions:
REMARK  status: ('A' for Active; 'I' for Inactive)
REMARK    1  A    between atoms: C_1  and  O_2
REMARK    2  A    between atoms: O_2  and  C_3
REMARK    3  A    between atoms: C_6  and  C_7
REMARK    4  A    between atoms: C_7  and  N_8
REMARK    5  A    between atoms: C_11  and  C_12
REMARK    6  A    between atoms: C_20  and  C_22
REMARK    7  A    between atoms: C_22  and  C_23
REMARK    8  A    between atoms: C_22  and  C_24
REMARK                            x       y       z     vdW  Elec       q    Type
REMARK                         _______ _______ _______ _____ _____    ______ ____
ROOT
ATOM      1  N   UNL     1       2.061   6.907  19.682  0.00  0.00    +0.000 N 
ATOM      2  C   UNL     1       3.029   6.149  19.111  0.00  0.00    +0.000 A 
ATOM      3  N   UNL     1       3.819   6.490  18.112  0.00  0.00    +0.000 NA
ATOM      4  C   UNL     1       4.457   5.323  17.769  0.00  0.00    +0.000 A 
ATOM      5  N   UNL     1       4.131   4.281  18.535  0.00  0.00    +0.000 NA
ATOM      6  N   UNL     1       3.267   4.812  19.435  0.00  0.00    +0.000 N 
ATOM      7  C   UNL     1       2.747   4.007  20.462  0.00  0.00    +0.000 C 
ATOM      8  O   UNL     1       2.134   4.516  21.394  0.00  0.00    +0.000 OA
ATOM      9  H   UNL     1       1.227   6.457  20.050  0.00  0.00    +0.000 HD
ENDROOT
BRANCH   4  10
ATOM     10  C   UNL     1       5.324   5.183  16.620  0.00  0.00    +0.000 A 
ATOM     11  C   UNL     1       5.029   4.337  15.552  0.00  0.00    +0.000 A 
ATOM     12  C   UNL     1       5.937   4.197  14.511  0.00  0.00    +0.000 A 
ATOM     13  C   UNL     1       7.122   4.920  14.563  0.00  0.00    +0.000 A 
ATOM     14  N   UNL     1       7.439   5.760  15.566  0.00  0.00    +0.000 NA
ATOM     15  C   UNL     1       6.541   5.873  16.569  0.00  0.00    +0.000 A 
ENDBRANCH   4  10
BRANCH   7  16
ATOM     16  C   UNL     1       2.917   2.502  20.229  0.00  0.00    +0.000 C 
ATOM     17  C   UNL     1       2.269   1.987  18.944  0.00  0.00    +0.000 C 
ATOM     18  C   UNL     1       4.402   2.141  20.238  0.00  0.00    +0.000 C 
ENDBRANCH   7  16
BRANCH   1  19
ATOM     19  C   UNL     1       1.898   8.306  19.338  0.00  0.00    +0.000 C 
BRANCH  19  23
ATOM     20  C   UNL     1      -0.317  10.436  22.399  0.00  0.00    +0.000 A 
ATOM     21  C   UNL     1      -0.378  10.835  21.060  0.00  0.00    +0.000 A 
ATOM     22  C   UNL     1       0.344  10.147  20.081  0.00  0.00    +0.000 A 
ATOM     23  C   UNL     1       1.142   9.050  20.423  0.00  0.00    +0.000 A 
ATOM     24  C   UNL     1       1.221   8.672  21.772  0.00  0.00    +0.000 A 
ATOM     25  C   UNL     1       0.498   9.359  22.759  0.00  0.00    +0.000 A 
BRANCH  20  27
ATOM     26  C   UNL     1      -1.190  12.578  22.936  0.00  0.00    +0.000 C 
ATOM     27  O   UNL     1      -1.067  11.196  23.254  0.00  0.00    +0.000 OA
ENDBRANCH  20  27
ENDBRANCH  19  23
ENDBRANCH   1  19
TORSDOF 5
ENDMDL
MODEL 9
REMARK VINA RESULT:      -7.6      0.800      1.106
REMARK  Name = 
REMARK  8 active torsions:
REMARK  status: ('A' for Active; 'I' for Inactive)
REMARK    1  A    between atoms: C_1  and  O_2
REMARK    2  A    between atoms: O_2  and  C_3
REMARK    3  A    between atoms: C_6  and  C_7
REMARK    4  A    between atoms: C_7  and  N_8
REMARK    5  A    between atoms: C_11  and  C_12
REMARK    6  A    between atoms: C_20  and  C_22
REMARK    7  A    between atoms: C_22  and  C_23
REMARK    8  A    between atoms: C_22  and  C_24
REMARK                            x       y       z     vdW  Elec       q    Type
REMARK                         _______ _______ _______ _____ _____    ______ ____
ROOT
ATOM      1  N   UNL     1       1.923   7.945  18.769  0.00  0.00    +0.000 N 
ATOM      2  C   UNL     1       2.841   6.989  18.489  0.00  0.00    +0.000 A 
ATOM      3  N   UNL     1       3.776   7.033  17.561  0.00  0.00    +0.000 NA
ATOM      4  C   UNL     1       4.290   5.759  17.535  0.00  0.00    +0.000 A 
ATOM      5  N   UNL     1       3.746   4.936  18.432  0.00  0.00    +0.000 NA
ATOM      6  N   UNL     1       2.863   5.728  19.090  0.00  0.00    +0.000 N 
ATOM      7  C   UNL     1       2.130   5.209  20.170  0.00  0.00    +0.000 C 
ATOM      8  O   UNL     1       1.489   5.960  20.896  0.00  0.00    +0.000 OA
ATOM      9  H   UNL     1       1.001   7.671  19.099  0.00  0.00    +0.000 HD
ENDROOT
BRANCH   4  10
ATOM     10  C   UNL     1       5.256   5.296  16.562  0.00  0.00    +0.000 A 
ATOM     11  C   UNL     1       6.601   5.658  16.605  0.00  0.00    +0.000 A 
ATOM     12  C   UNL     1       7.462   5.233  15.602  0.00  0.00    +0.000 A 
ATOM     13  C   UNL     1       6.951   4.445  14.579  0.00  0.00    +0.000 A 
ATOM     14  N   UNL     1       5.663   4.059  14.509  0.00  0.00    +0.000 NA
ATOM     15  C   UNL     1       4.846   4.491  15.493  0.00  0.00    +0.000 A 
ENDBRANCH   4  10
BRANCH   7  16
ATOM     16  C   UNL     1       2.126   3.679  20.250  0.00  0.00    +0.000 C 
ATOM     17  C   UNL     1       2.303   3.123  21.662  0.00  0.00    +0.000 C 
ATOM     18  C   UNL     1       0.836   3.131  19.638  0.00  0.00    +0.000 C 
ENDBRANCH   7  16
BRANCH   1  19
ATOM     19  C   UNL     1       1.985   9.254  18.149  0.00  0.00    +0.000 C 
BRANCH  19  23
ATOM     20  C   UNL     1      -1.565  11.552  19.119  0.00  0.00    +0.000 A 
ATOM     21  C   UNL     1      -1.606  10.538  18.156  0.00  0.00    +0.000 A 
ATOM     22  C   UNL     1      -0.457   9.806  17.844  0.00  0.00    +0.000 A 
ATOM     23  C   UNL     1       0.756  10.078  18.488  0.00  0.00    +0.000 A 
ATOM     24  C   UNL     1       0.798  11.115  19.431  0.00  0.00    +0.000 A 
ATOM     25  C   UNL     1      -0.354  11.852  19.748  0.00  0.00    +0.000 A 
BRANCH  20  27
ATOM     26  C   UNL     1      -2.951  12.781  20.603  0.00  0.00    +0.000 C 
ATOM     27  O   UNL     1      -2.756  12.191  19.323  0.00  0.00    +0.000 OA
ENDBRANCH  20  27
ENDBRANCH  19  23
ENDBRANCH   1  19
TORSDOF 5
ENDMDL
