MODEL 1
REMARK VINA RESULT:      -9.6      0.000      0.000
REMARK  Name = 
REMARK  8 active torsions:
REMARK  status: ('A' for Active; 'I' for Inactive)
REMARK    1  A    between atoms: C_1  and  C_2
REMARK    2  A    between atoms: N_6  and  C_7
REMARK    3  A    between atoms: N_11  and  C_12
REMARK    4  A    between atoms: C_14  and  C_15
REMARK    5  A    between atoms: N_22  and  C_23
REMARK    6  A    between atoms: C_23  and  C_24
REMARK    7  A    between atoms: C_23  and  C_26
REMARK    8  A    between atoms: C_24  and  O_25
REMARK                            x       y       z     vdW  Elec       q    Type
REMARK                         _______ _______ _______ _____ _____    ______ ____
ROOT
ATOM      1  C   UNL     1       1.131   9.381  19.413  0.00  0.00    +0.000 A 
ATOM      2  C   UNL     1       0.866   8.798  20.686  0.00  0.00    +0.000 A 
ATOM      3  C   UNL     1       1.268   7.494  21.017  0.00  0.00    +0.000 A 
ATOM      4  C   UNL     1       1.924   6.764  20.048  0.00  0.00    +0.000 A 
ATOM      5  C   UNL     1       2.174   7.284  18.787  0.00  0.00    +0.000 A 
ATOM      6  C   UNL     1       1.814   8.586  18.473  0.00  0.00    +0.000 A 
ATOM      7  C   UNL     1       2.873   6.279  17.937  0.00  0.00    +0.000 C 
ATOM      8  N   UNL     1       3.096   5.181  18.862  0.00  0.00    +0.000 N 
ATOM      9  C   UNL     1       2.543   5.434  20.112  0.00  0.00    +0.000 C 
ATOM     10  O   UNL     1       2.581   4.725  21.104  0.00  0.00    +0.000 OA
ENDROOT
BRANCH   1  18
ATOM     11  C   UNL     1      -1.609  10.353  18.186  0.00  0.00    +0.000 C 
ATOM     12  C   UNL     1      -0.458  11.218  18.587  0.00  0.00    +0.000 A 
ATOM     13  C   UNL     1      -0.562  12.576  18.372  0.00  0.00    +0.000 A 
ATOM     14  N   UNL     1       0.403  13.458  18.648  0.00  0.00    +0.000 NA
ATOM     15  C   UNL     1       1.540  12.989  19.165  0.00  0.00    +0.000 A 
ATOM     16  N   UNL     1       2.637  13.840  19.372  0.00  0.00    +0.000 N 
ATOM     17  N   UNL     1       1.734  11.689  19.444  0.00  0.00    +0.000 NA
ATOM     18  C   UNL     1       0.752  10.798  19.137  0.00  0.00    +0.000 A 
ATOM     19  H   UNL     1       3.402  13.269  19.709  0.00  0.00    +0.000 HD
BRANCH  16  20
ATOM     20  C   UNL     1       2.819  15.038  18.757  0.00  0.00    +0.000 A 
ATOM     21  C   UNL     1       3.357  15.382  17.533  0.00  0.00    +0.000 A 
ATOM     22  C   UNL     1       3.350  16.785  17.496  0.00  0.00    +0.000 A 
ATOM     23  N   UNL     1       2.814  17.317  18.594  0.00  0.00    +0.000 NA
ATOM     24  N   UNL     1       2.491  16.241  19.345  0.00  0.00    +0.000 N 
ATOM     25  C   UNL     1       1.907  16.461  20.646  0.00  0.00    +0.000 C 
ENDBRANCH  16  20
ENDBRANCH   1  18
BRANCH   8  26
ATOM     26  C   UNL     1       3.920   4.002  18.576  0.00  0.00    +0.000 C 
BRANCH  26  27
ATOM     27  C   UNL     1       5.075   4.277  17.619  0.00  0.00    +0.000 A 
ATOM     28  C   UNL     1       6.265   4.833  18.118  0.00  0.00    +0.000 A 
ATOM     29  C   UNL     1       7.348   5.089  17.271  0.00  0.00    +0.000 A 
ATOM     30  C   UNL     1       7.268   4.774  15.917  0.00  0.00    +0.000 A 
ATOM     31  C   UNL     1       6.098   4.221  15.408  0.00  0.00    +0.000 A 
ATOM     32 CL   UNL     1       5.999   3.802  13.742  0.00  0.00    +0.000 Cl
ATOM     33  C   UNL     1       5.004   3.991  16.243  0.00  0.00    +0.000 A 
ENDBRANCH  26  27
BRANCH  26  34
ATOM     34  C   UNL     1       4.346   3.249  19.863  0.00  0.00    +0.000 C 
BRANCH  34  35
ATOM     35  O   UNL     1       4.982   1.995  19.609  0.00  0.00    +0.000 OA
ATOM     36  H   UNL     1       5.720   2.177  19.002  0.00  0.00    +0.000 HD
ENDBRANCH  34  35
ENDBRANCH  26  34
ENDBRANCH   8  26
TORSDOF 6
ENDMDL
MODEL 2
REMARK VINA RESULT:      -9.4      0.837      1.127
REMARK  Name = 
REMARK  8 active torsions:
REMARK  status: ('A' for Active; 'I' for Inactive)
REMARK    1  A    between atoms: C_1  and  C_2
REMARK    2  A    between atoms: N_6  and  C_7
REMARK    3  A    between atoms: N_11  and  C_12
REMARK    4  A    between atoms: C_14  and  C_15
REMARK    5  A    between atoms: N_22  and  C_23
REMARK    6  A    between atoms: C_23  and  C_24
REMARK    7  A    between atoms: C_23  and  C_26
REMARK    8  A    between atoms: C_24  and  O_25
REMARK                            x       y       z     vdW  Elec       q    Type
REMARK                         _______ _______ _______ _____ _____    ______ ____
ROOT
ATOM      1  C   UNL     1       1.190   9.418  19.195  0.00  0.00    +0.000 A 
ATOM      2  C   UNL     1       0.941   8.748  20.428  0.00  0.00    +0.000 A 
ATOM      3  C   UNL     1       1.444   7.467  20.706  0.00  0.00    +0.000 A 
ATOM      4  C   UNL     1       2.186   6.847  19.723  0.00  0.00    +0.000 A 
ATOM      5  C   UNL     1       2.426   7.451  18.498  0.00  0.00    +0.000 A 
ATOM      6  C   UNL     1       1.964   8.733  18.238  0.00  0.00    +0.000 A 
ATOM      7  C   UNL     1       3.232   6.555  17.622  0.00  0.00    +0.000 C 
ATOM      8  N   UNL     1       3.522   5.433  18.497  0.00  0.00    +0.000 N 
ATOM      9  C   UNL     1       2.915   5.572  19.740  0.00  0.00    +0.000 C 
ATOM     10  O   UNL     1       2.987   4.818  20.696  0.00  0.00    +0.000 OA
ENDROOT
BRANCH   1  18
ATOM     11  C   UNL     1      -1.631  10.218  18.028  0.00  0.00    +0.000 C 
ATOM     12  C   UNL     1      -0.547  11.154  18.455  0.00  0.00    +0.000 A 
ATOM     13  C   UNL     1      -0.759  12.507  18.294  0.00  0.00    +0.000 A 
ATOM     14  N   UNL     1       0.136  13.451  18.599  0.00  0.00    +0.000 NA
ATOM     15  C   UNL     1       1.312  13.053  19.088  0.00  0.00    +0.000 A 
ATOM     16  N   UNL     1       2.341  13.979  19.320  0.00  0.00    +0.000 N 
ATOM     17  N   UNL     1       1.611  11.763  19.313  0.00  0.00    +0.000 NA
ATOM     18  C   UNL     1       0.698  10.810  18.978  0.00  0.00    +0.000 A 
ATOM     19  H   UNL     1       3.153  13.458  19.628  0.00  0.00    +0.000 HD
BRANCH  16  20
ATOM     20  C   UNL     1       2.423  15.211  18.752  0.00  0.00    +0.000 A 
ATOM     21  C   UNL     1       1.519  16.249  18.650  0.00  0.00    +0.000 A 
ATOM     22  C   UNL     1       2.155  17.231  17.875  0.00  0.00    +0.000 A 
ATOM     23  N   UNL     1       3.393  16.880  17.530  0.00  0.00    +0.000 NA
ATOM     24  N   UNL     1       3.541  15.653  18.078  0.00  0.00    +0.000 N 
ATOM     25  C   UNL     1       4.783  14.950  17.864  0.00  0.00    +0.000 C 
ENDBRANCH  16  20
ENDBRANCH   1  18
BRANCH   8  26
ATOM     26  C   UNL     1       4.452   4.345  18.179  0.00  0.00    +0.000 C 
BRANCH  26  27
ATOM     27  C   UNL     1       5.298   4.603  16.936  0.00  0.00    +0.000 A 
ATOM     28  C   UNL     1       6.490   5.338  17.055  0.00  0.00    +0.000 A 
ATOM     29  C   UNL     1       7.296   5.585  15.939  0.00  0.00    +0.000 A 
ATOM     30  C   UNL     1       6.936   5.083  14.691  0.00  0.00    +0.000 A 
ATOM     31  C   UNL     1       5.761   4.352  14.557  0.00  0.00    +0.000 A 
ATOM     32 CL   UNL     1       5.322   3.704  13.024  0.00  0.00    +0.000 Cl
ATOM     33  C   UNL     1       4.938   4.128  15.662  0.00  0.00    +0.000 A 
ENDBRANCH  26  27
BRANCH  26  34
ATOM     34  C   UNL     1       5.279   3.891  19.410  0.00  0.00    +0.000 C 
BRANCH  34  35
ATOM     35  O   UNL     1       5.014   2.547  19.815  0.00  0.00    +0.000 OA
ATOM     36  H   UNL     1       5.104   1.995  19.018  0.00  0.00    +0.000 HD
ENDBRANCH  34  35
ENDBRANCH  26  34
ENDBRANCH   8  26
TORSDOF 6
ENDMDL
MODEL 3
REMARK VINA RESULT:      -9.2      4.691     10.049
REMARK  Name = 
REMARK  8 active torsions:
REMARK  status: ('A' for Active; 'I' for Inactive)
REMARK    1  A    between atoms: C_1  and  C_2
REMARK    2  A    between atoms: N_6  and  C_7
REMARK    3  A    between atoms: N_11  and  C_12
REMARK    4  A    between atoms: C_14  and  C_15
REMARK    5  A    between atoms: N_22  and  C_23
REMARK    6  A    between atoms: C_23  and  C_24
REMARK    7  A    between atoms: C_23  and  C_26
REMARK    8  A    between atoms: C_24  and  O_25
REMARK                            x       y       z     vdW  Elec       q    Type
REMARK                         _______ _______ _______ _____ _____    ______ ____
ROOT
ATOM      1  C   UNL     1       1.772   7.911  19.940  0.00  0.00    +0.000 A 
ATOM      2  C   UNL     1       1.625   7.843  21.357  0.00  0.00    +0.000 A 
ATOM      3  C   UNL     1       1.055   8.884  22.107  0.00  0.00    +0.000 A 
ATOM      4  C   UNL     1       0.650  10.013  21.425  0.00  0.00    +0.000 A 
ATOM      5  C   UNL     1       0.803  10.131  20.052  0.00  0.00    +0.000 A 
ATOM      6  C   UNL     1       1.328   9.086  19.305  0.00  0.00    +0.000 A 
ATOM      7  C   UNL     1       0.304  11.454  19.582  0.00  0.00    +0.000 C 
ATOM      8  N   UNL     1      -0.248  12.033  20.795  0.00  0.00    +0.000 N 
ATOM      9  C   UNL     1      -0.054  11.211  21.899  0.00  0.00    +0.000 C 
ATOM     10  O   UNL     1      -0.421  11.402  23.046  0.00  0.00    +0.000 OA
ENDROOT
BRANCH   1  18
ATOM     11  C   UNL     1       1.240   4.870  20.596  0.00  0.00    +0.000 C 
ATOM     12  C   UNL     1       2.080   5.406  19.482  0.00  0.00    +0.000 A 
ATOM     13  C   UNL     1       2.732   4.502  18.670  0.00  0.00    +0.000 A 
ATOM     14  N   UNL     1       3.541   4.842  17.663  0.00  0.00    +0.000 NA
ATOM     15  C   UNL     1       3.729   6.143  17.433  0.00  0.00    +0.000 A 
ATOM     16  N   UNL     1       4.654   6.573  16.469  0.00  0.00    +0.000 N 
ATOM     17  N   UNL     1       3.119   7.106  18.143  0.00  0.00    +0.000 NA
ATOM     18  C   UNL     1       2.313   6.746  19.181  0.00  0.00    +0.000 A 
ATOM     19  H   UNL     1       4.679   7.585  16.505  0.00  0.00    +0.000 HD
BRANCH  16  20
ATOM     20  C   UNL     1       5.678   5.823  15.982  0.00  0.00    +0.000 A 
ATOM     21  C   UNL     1       5.822   5.089  14.822  0.00  0.00    +0.000 A 
ATOM     22  C   UNL     1       7.074   4.463  14.922  0.00  0.00    +0.000 A 
ATOM     23  N   UNL     1       7.715   4.792  16.043  0.00  0.00    +0.000 NA
ATOM     24  N   UNL     1       6.855   5.624  16.671  0.00  0.00    +0.000 N 
ATOM     25  C   UNL     1       7.227   6.152  17.961  0.00  0.00    +0.000 C 
ENDBRANCH  16  20
ENDBRANCH   1  18
BRANCH   8  26
ATOM     26  C   UNL     1      -1.039  13.267  20.845  0.00  0.00    +0.000 C 
BRANCH  26  27
ATOM     27  C   UNL     1      -2.537  13.031  21.004  0.00  0.00    +0.000 A 
ATOM     28  C   UNL     1      -3.295  12.637  19.887  0.00  0.00    +0.000 A 
ATOM     29  C   UNL     1      -4.669  12.403  19.999  0.00  0.00    +0.000 A 
ATOM     30  C   UNL     1      -5.304  12.535  21.230  0.00  0.00    +0.000 A 
ATOM     31  C   UNL     1      -4.569  12.920  22.345  0.00  0.00    +0.000 A 
ATOM     32 CL   UNL     1      -5.339  13.060  23.878  0.00  0.00    +0.000 Cl
ATOM     33  C   UNL     1      -3.203  13.186  22.233  0.00  0.00    +0.000 A 
ENDBRANCH  26  27
BRANCH  26  34
ATOM     34  C   UNL     1      -0.463  14.300  21.849  0.00  0.00    +0.000 C 
BRANCH  34  35
ATOM     35  O   UNL     1       0.907  14.069  22.185  0.00  0.00    +0.000 OA
ATOM     36  H   UNL     1       1.313  13.641  21.411  0.00  0.00    +0.000 HD
ENDBRANCH  34  35
ENDBRANCH  26  34
ENDBRANCH   8  26
TORSDOF 6
ENDMDL
MODEL 4
REMARK VINA RESULT:      -9.2      1.142      1.398
REMARK  Name = 
REMARK  8 active torsions:
REMARK  status: ('A' for Active; 'I' for Inactive)
REMARK    1  A    between atoms: C_1  and  C_2
REMARK    2  A    between atoms: N_6  and  C_7
REMARK    3  A    between atoms: N_11  and  C_12
REMARK    4  A    between atoms: C_14  and  C_15
REMARK    5  A    between atoms: N_22  and  C_23
REMARK    6  A    between atoms: C_23  and  C_24
REMARK    7  A    between atoms: C_23  and  C_26
REMARK    8  A    between atoms: C_24  and  O_25
REMARK                            x       y       z     vdW  Elec       q    Type
REMARK                         _______ _______ _______ _____ _____    ______ ____
ROOT
ATOM      1  C   UNL     1       0.952   9.630  19.425  0.00  0.00    +0.000 A 
ATOM      2  C   UNL     1       0.772   9.092  20.733  0.00  0.00    +0.000 A 
ATOM      3  C   UNL     1       1.186   7.795  21.079  0.00  0.00    +0.000 A 
ATOM      4  C   UNL     1       1.767   7.027  20.092  0.00  0.00    +0.000 A 
ATOM      5  C   UNL     1       1.933   7.502  18.800  0.00  0.00    +0.000 A 
ATOM      6  C   UNL     1       1.562   8.797  18.468  0.00  0.00    +0.000 A 
ATOM      7  C   UNL     1       2.563   6.463  17.937  0.00  0.00    +0.000 C 
ATOM      8  N   UNL     1       2.842   5.395  18.881  0.00  0.00    +0.000 N 
ATOM      9  C   UNL     1       2.379   5.694  20.157  0.00  0.00    +0.000 C 
ATOM     10  O   UNL     1       2.481   5.018  21.167  0.00  0.00    +0.000 OA
ENDROOT
BRANCH   1  18
ATOM     11  C   UNL     1      -1.817  10.574  18.242  0.00  0.00    +0.000 C 
ATOM     12  C   UNL     1      -0.658  11.448  18.599  0.00  0.00    +0.000 A 
ATOM     13  C   UNL     1      -0.768  12.801  18.358  0.00  0.00    +0.000 A 
ATOM     14  N   UNL     1       0.201  13.690  18.595  0.00  0.00    +0.000 NA
ATOM     15  C   UNL     1       1.351  13.232  19.095  0.00  0.00    +0.000 A 
ATOM     16  N   UNL     1       2.451  14.087  19.259  0.00  0.00    +0.000 N 
ATOM     17  N   UNL     1       1.553  11.938  19.395  0.00  0.00    +0.000 NA
ATOM     18  C   UNL     1       0.564  11.040  19.129  0.00  0.00    +0.000 A 
ATOM     19  H   UNL     1       3.225  13.524  19.590  0.00  0.00    +0.000 HD
BRANCH  16  20
ATOM     20  C   UNL     1       2.618  15.273  18.616  0.00  0.00    +0.000 A 
ATOM     21  C   UNL     1       3.223  15.604  17.420  0.00  0.00    +0.000 A 
ATOM     22  C   UNL     1       3.152  17.002  17.333  0.00  0.00    +0.000 A 
ATOM     23  N   UNL     1       2.515  17.542  18.371  0.00  0.00    +0.000 NA
ATOM     24  N   UNL     1       2.192  16.476  19.136  0.00  0.00    +0.000 N 
ATOM     25  C   UNL     1       1.508  16.708  20.385  0.00  0.00    +0.000 C 
ENDBRANCH  16  20
ENDBRANCH   1  18
BRANCH   8  26
ATOM     26  C   UNL     1       3.635   4.199  18.578  0.00  0.00    +0.000 C 
BRANCH  26  27
ATOM     27  C   UNL     1       4.991   4.504  17.949  0.00  0.00    +0.000 A 
ATOM     28  C   UNL     1       5.320   3.929  16.709  0.00  0.00    +0.000 A 
ATOM     29  C   UNL     1       6.550   4.195  16.099  0.00  0.00    +0.000 A 
ATOM     30  C   UNL     1       7.461   5.055  16.706  0.00  0.00    +0.000 A 
ATOM     31  C   UNL     1       7.149   5.634  17.930  0.00  0.00    +0.000 A 
ATOM     32 CL   UNL     1       8.257   6.721  18.675  0.00  0.00    +0.000 Cl
ATOM     33  C   UNL     1       5.936   5.348  18.559  0.00  0.00    +0.000 A 
ENDBRANCH  26  27
BRANCH  26  34
ATOM     34  C   UNL     1       3.713   3.219  19.778  0.00  0.00    +0.000 C 
BRANCH  34  35
ATOM     35  O   UNL     1       4.889   2.407  19.779  0.00  0.00    +0.000 OA
ATOM     36  H   UNL     1       5.229   2.414  20.690  0.00  0.00    +0.000 HD
ENDBRANCH  34  35
ENDBRANCH  26  34
ENDBRANCH   8  26
TORSDOF 6
ENDMDL
MODEL 5
REMARK VINA RESULT:      -9.2      4.389      9.850
REMARK  Name = 
REMARK  8 active torsions:
REMARK  status: ('A' for Active; 'I' for Inactive)
REMARK    1  A    between atoms: C_1  and  C_2
REMARK    2  A    between atoms: N_6  and  C_7
REMARK    3  A    between atoms: N_11  and  C_12
REMARK    4  A    between atoms: C_14  and  C_15
REMARK    5  A    between atoms: N_22  and  C_23
REMARK    6  A    between atoms: C_23  and  C_24
REMARK    7  A    between atoms: C_23  and  C_26
REMARK    8  A    between atoms: C_24  and  O_25
REMARK                            x       y       z     vdW  Elec       q    Type
REMARK                         _______ _______ _______ _____ _____    ______ ____
ROOT
ATOM      1  C   UNL     1       1.785   7.832  19.950  0.00  0.00    +0.000 A 
ATOM      2  C   UNL     1       1.663   7.749  21.368  0.00  0.00    +0.000 A 
ATOM      3  C   UNL     1       1.095   8.777  22.138  0.00  0.00    +0.000 A 
ATOM      4  C   UNL     1       0.667   9.908  21.475  0.00  0.00    +0.000 A 
ATOM      5  C   UNL     1       0.796  10.041  20.101  0.00  0.00    +0.000 A 
ATOM      6  C   UNL     1       1.318   9.010  19.334  0.00  0.00    +0.000 A 
ATOM      7  C   UNL     1       0.276  11.364  19.653  0.00  0.00    +0.000 C 
ATOM      8  N   UNL     1      -0.261  11.925  20.881  0.00  0.00    +0.000 N 
ATOM      9  C   UNL     1      -0.040  11.094  21.973  0.00  0.00    +0.000 C 
ATOM     10  O   UNL     1      -0.389  11.269  23.128  0.00  0.00    +0.000 OA
ENDROOT
BRANCH   1  18
ATOM     11  C   UNL     1       1.226   4.782  20.534  0.00  0.00    +0.000 C 
ATOM     12  C   UNL     1       2.079   5.336  19.439  0.00  0.00    +0.000 A 
ATOM     13  C   UNL     1       2.732   4.446  18.613  0.00  0.00    +0.000 A 
ATOM     14  N   UNL     1       3.552   4.802  17.620  0.00  0.00    +0.000 NA
ATOM     15  C   UNL     1       3.751   6.106  17.420  0.00  0.00    +0.000 A 
ATOM     16  N   UNL     1       4.687   6.551  16.474  0.00  0.00    +0.000 N 
ATOM     17  N   UNL     1       3.141   7.058  18.147  0.00  0.00    +0.000 NA
ATOM     18  C   UNL     1       2.324   6.681  19.169  0.00  0.00    +0.000 A 
ATOM     19  H   UNL     1       4.719   7.561  16.533  0.00  0.00    +0.000 HD
BRANCH  16  20
ATOM     20  C   UNL     1       5.709   5.804  15.980  0.00  0.00    +0.000 A 
ATOM     21  C   UNL     1       5.855   5.087  14.809  0.00  0.00    +0.000 A 
ATOM     22  C   UNL     1       7.104   4.456  14.904  0.00  0.00    +0.000 A 
ATOM     23  N   UNL     1       7.744   4.767  16.031  0.00  0.00    +0.000 NA
ATOM     24  N   UNL     1       6.884   5.593  16.668  0.00  0.00    +0.000 N 
ATOM     25  C   UNL     1       7.255   6.101  17.966  0.00  0.00    +0.000 C 
ENDBRANCH  16  20
ENDBRANCH   1  18
BRANCH   8  26
ATOM     26  C   UNL     1      -1.063  13.151  20.958  0.00  0.00    +0.000 C 
BRANCH  26  27
ATOM     27  C   UNL     1      -2.566  12.908  20.878  0.00  0.00    +0.000 A 
ATOM     28  C   UNL     1      -3.358  13.108  22.022  0.00  0.00    +0.000 A 
ATOM     29  C   UNL     1      -4.741  12.904  21.982  0.00  0.00    +0.000 A 
ATOM     30  C   UNL     1      -5.359  12.520  20.795  0.00  0.00    +0.000 A 
ATOM     31  C   UNL     1      -4.590  12.321  19.654  0.00  0.00    +0.000 A 
ATOM     32 CL   UNL     1      -5.347  11.873  18.174  0.00  0.00    +0.000 Cl
ATOM     33  C   UNL     1      -3.206  12.493  19.695  0.00  0.00    +0.000 A 
ENDBRANCH  26  27
BRANCH  26  34
ATOM     34  C   UNL     1      -0.643  14.061  22.141  0.00  0.00    +0.000 C 
BRANCH  34  35
ATOM     35  O   UNL     1       0.772  14.195  22.287  0.00  0.00    +0.000 OA
ATOM     36  H   UNL     1       0.972  14.026  23.224  0.00  0.00    +0.000 HD
ENDBRANCH  34  35
ENDBRANCH  26  34
ENDBRANCH   8  26
TORSDOF 6
ENDMDL
MODEL 6
REMARK VINA RESULT:      -9.2      3.288      4.649
REMARK  Name = 
REMARK  8 active torsions:
REMARK  status: ('A' for Active; 'I' for Inactive)
REMARK    1  A    between atoms: C_1  and  C_2
REMARK    2  A    between atoms: N_6  and  C_7
REMARK    3  A    between atoms: N_11  and  C_12
REMARK    4  A    between atoms: C_14  and  C_15
REMARK    5  A    between atoms: N_22  and  C_23
REMARK    6  A    between atoms: C_23  and  C_24
REMARK    7  A    between atoms: C_23  and  C_26
REMARK    8  A    between atoms: C_24  and  O_25
REMARK                            x       y       z     vdW  Elec       q    Type
REMARK                         _______ _______ _______ _____ _____    ______ ____
ROOT
ATOM      1  C   UNL     1       1.960   7.589  19.246  0.00  0.00    +0.000 A 
ATOM      2  C   UNL     1       1.949   6.521  20.190  0.00  0.00    +0.000 A 
ATOM      3  C   UNL     1       2.811   5.417  20.091  0.00  0.00    +0.000 A 
ATOM      4  C   UNL     1       3.677   5.379  19.018  0.00  0.00    +0.000 A 
ATOM      5  C   UNL     1       3.698   6.382  18.061  0.00  0.00    +0.000 A 
ATOM      6  C   UNL     1       2.876   7.493  18.180  0.00  0.00    +0.000 A 
ATOM      7  C   UNL     1       4.708   6.079  17.008  0.00  0.00    +0.000 C 
ATOM      8  N   UNL     1       5.335   4.868  17.510  0.00  0.00    +0.000 N 
ATOM      9  C   UNL     1       4.746   4.427  18.689  0.00  0.00    +0.000 C 
ATOM     10  O   UNL     1       5.059   3.462  19.366  0.00  0.00    +0.000 OA
ENDROOT
BRANCH   1  18
ATOM     11  C   UNL     1       1.617   9.219  21.926  0.00  0.00    +0.000 C 
ATOM     12  C   UNL     1       0.926   9.486  20.628  0.00  0.00    +0.000 A 
ATOM     13  C   UNL     1       0.011  10.516  20.581  0.00  0.00    +0.000 A 
ATOM     14  N   UNL     1      -0.703  10.841  19.500  0.00  0.00    +0.000 NA
ATOM     15  C   UNL     1      -0.516  10.116  18.395  0.00  0.00    +0.000 A 
ATOM     16  N   UNL     1      -1.313  10.324  17.259  0.00  0.00    +0.000 N 
ATOM     17  N   UNL     1       0.372   9.111  18.323  0.00  0.00    +0.000 NA
ATOM     18  C   UNL     1       1.078   8.776  19.438  0.00  0.00    +0.000 A 
ATOM     19  H   UNL     1      -1.044   9.632  16.570  0.00  0.00    +0.000 HD
BRANCH  16  20
ATOM     20  C   UNL     1      -2.527  10.935  17.261  0.00  0.00    +0.000 A 
ATOM     21  C   UNL     1      -3.233  11.597  18.246  0.00  0.00    +0.000 A 
ATOM     22  C   UNL     1      -4.466  11.935  17.666  0.00  0.00    +0.000 A 
ATOM     23  N   UNL     1      -4.545  11.560  16.391  0.00  0.00    +0.000 NA
ATOM     24  N   UNL     1      -3.356  10.961  16.160  0.00  0.00    +0.000 N 
ATOM     25  C   UNL     1      -3.114  10.394  14.855  0.00  0.00    +0.000 C 
ENDBRANCH  16  20
ENDBRANCH   1  18
BRANCH   8  26
ATOM     26  C   UNL     1       6.534   4.249  16.934  0.00  0.00    +0.000 C 
BRANCH  26  27
ATOM     27  C   UNL     1       6.637   4.400  15.420  0.00  0.00    +0.000 A 
ATOM     28  C   UNL     1       7.672   5.178  14.874  0.00  0.00    +0.000 A 
ATOM     29  C   UNL     1       7.803   5.330  13.490  0.00  0.00    +0.000 A 
ATOM     30  C   UNL     1       6.916   4.690  12.629  0.00  0.00    +0.000 A 
ATOM     31  C   UNL     1       5.889   3.914  13.153  0.00  0.00    +0.000 A 
ATOM     32 CL   UNL     1       4.804   3.096  12.096  0.00  0.00    +0.000 Cl
ATOM     33  C   UNL     1       5.735   3.784  14.534  0.00  0.00    +0.000 A 
ENDBRANCH  26  27
BRANCH  26  34
ATOM     34  C   UNL     1       7.829   4.650  17.688  0.00  0.00    +0.000 C 
BRANCH  34  35
ATOM     35  O   UNL     1       7.738   5.914  18.349  0.00  0.00    +0.000 OA
ATOM     36  H   UNL     1       7.080   6.436  17.859  0.00  0.00    +0.000 HD
ENDBRANCH  34  35
ENDBRANCH  26  34
ENDBRANCH   8  26
TORSDOF 6
ENDMDL
MODEL 7
REMARK VINA RESULT:      -9.2      3.320      4.592
REMARK  Name = 
REMARK  8 active torsions:
REMARK  status: ('A' for Active; 'I' for Inactive)
REMARK    1  A    between atoms: C_1  and  C_2
REMARK    2  A    between atoms: N_6  and  C_7
REMARK    3  A    between atoms: N_11  and  C_12
REMARK    4  A    between atoms: C_14  and  C_15
REMARK    5  A    between atoms: N_22  and  C_23
REMARK    6  A    between atoms: C_23  and  C_24
REMARK    7  A    between atoms: C_23  and  C_26
REMARK    8  A    between atoms: C_24  and  O_25
REMARK                            x       y       z     vdW  Elec       q    Type
REMARK                         _______ _______ _______ _____ _____    ______ ____
ROOT
ATOM      1  C   UNL     1       1.734   7.758  19.577  0.00  0.00    +0.000 A 
ATOM      2  C   UNL     1       1.653   6.636  20.454  0.00  0.00    +0.000 A 
ATOM      3  C   UNL     1       2.515   5.533  20.348  0.00  0.00    +0.000 A 
ATOM      4  C   UNL     1       3.451   5.550  19.335  0.00  0.00    +0.000 A 
ATOM      5  C   UNL     1       3.542   6.608  18.443  0.00  0.00    +0.000 A 
ATOM      6  C   UNL     1       2.719   7.717  18.572  0.00  0.00    +0.000 A 
ATOM      7  C   UNL     1       4.619   6.358  17.443  0.00  0.00    +0.000 C 
ATOM      8  N   UNL     1       5.206   5.115  17.914  0.00  0.00    +0.000 N 
ATOM      9  C   UNL     1       4.536   4.611  19.023  0.00  0.00    +0.000 C 
ATOM     10  O   UNL     1       4.798   3.605  19.661  0.00  0.00    +0.000 OA
ENDROOT
BRANCH   1  18
ATOM     11  C   UNL     1       1.354   9.340  22.281  0.00  0.00    +0.000 C 
ATOM     12  C   UNL     1       0.678   9.628  20.980  0.00  0.00    +0.000 A 
ATOM     13  C   UNL     1      -0.239  10.656  20.940  0.00  0.00    +0.000 A 
ATOM     14  N   UNL     1      -0.942  10.998  19.856  0.00  0.00    +0.000 NA
ATOM     15  C   UNL     1      -0.740  10.293  18.742  0.00  0.00    +0.000 A 
ATOM     16  N   UNL     1      -1.524  10.519  17.600  0.00  0.00    +0.000 N 
ATOM     17  N   UNL     1       0.153   9.292  18.662  0.00  0.00    +0.000 NA
ATOM     18  C   UNL     1       0.846   8.940  19.780  0.00  0.00    +0.000 A 
ATOM     19  H   UNL     1      -1.245   9.840  16.903  0.00  0.00    +0.000 HD
BRANCH  16  20
ATOM     20  C   UNL     1      -2.740  11.127  17.598  0.00  0.00    +0.000 A 
ATOM     21  C   UNL     1      -3.471  11.744  18.592  0.00  0.00    +0.000 A 
ATOM     22  C   UNL     1      -4.690  12.105  17.998  0.00  0.00    +0.000 A 
ATOM     23  N   UNL     1      -4.737  11.783  16.706  0.00  0.00    +0.000 NA
ATOM     24  N   UNL     1      -3.541  11.197  16.479  0.00  0.00    +0.000 N 
ATOM     25  C   UNL     1      -3.266  10.687  15.158  0.00  0.00    +0.000 C 
ENDBRANCH  16  20
ENDBRANCH   1  18
BRANCH   8  26
ATOM     26  C   UNL     1       6.437   4.520  17.385  0.00  0.00    +0.000 C 
BRANCH  26  27
ATOM     27  C   UNL     1       6.470   4.428  15.863  0.00  0.00    +0.000 A 
ATOM     28  C   UNL     1       5.487   3.675  15.197  0.00  0.00    +0.000 A 
ATOM     29  C   UNL     1       5.481   3.577  13.802  0.00  0.00    +0.000 A 
ATOM     30  C   UNL     1       6.442   4.245  13.049  0.00  0.00    +0.000 A 
ATOM     31  C   UNL     1       7.419   4.996  13.692  0.00  0.00    +0.000 A 
ATOM     32 CL   UNL     1       8.595   5.849  12.768  0.00  0.00    +0.000 Cl
ATOM     33  C   UNL     1       7.449   5.073  15.085  0.00  0.00    +0.000 A 
ENDBRANCH  26  27
BRANCH  26  34
ATOM     34  C   UNL     1       7.713   5.156  17.996  0.00  0.00    +0.000 C 
BRANCH  34  35
ATOM     35  O   UNL     1       7.738   5.130  19.424  0.00  0.00    +0.000 OA
ATOM     36  H   UNL     1       8.598   5.498  19.693  0.00  0.00    +0.000 HD
ENDBRANCH  34  35
ENDBRANCH  26  34
ENDBRANCH   8  26
TORSDOF 6
ENDMDL
MODEL 8
REMARK VINA RESULT:      -9.1      1.458      2.055
REMARK  Name = 
REMARK  8 active torsions:
REMARK  status: ('A' for Active; 'I' for Inactive)
REMARK    1  A    between atoms: C_1  and  C_2
REMARK    2  A    between atoms: N_6  and  C_7
REMARK    3  A    between atoms: N_11  and  C_12
REMARK    4  A    between atoms: C_14  and  C_15
REMARK    5  A    between atoms: N_22  and  C_23
REMARK    6  A    between atoms: C_23  and  C_24
REMARK    7  A    between atoms: C_23  and  C_26
REMARK    8  A    between atoms: C_24  and  O_25
REMARK                            x       y       z     vdW  Elec       q    Type
REMARK                         _______ _______ _______ _____ _____    ______ ____
ROOT
ATOM      1  C   UNL     1       1.457   9.406  18.814  0.00  0.00    +0.000 A 
ATOM      2  C   UNL     1       1.170   8.541  19.910  0.00  0.00    +0.000 A 
ATOM      3  C   UNL     1       1.854   7.332  20.116  0.00  0.00    +0.000 A 
ATOM      4  C   UNL     1       2.821   6.982  19.196  0.00  0.00    +0.000 A 
ATOM      5  C   UNL     1       3.109   7.781  18.100  0.00  0.00    +0.000 A 
ATOM      6  C   UNL     1       2.463   8.995  17.918  0.00  0.00    +0.000 A 
ATOM      7  C   UNL     1       4.173   7.157  17.264  0.00  0.00    +0.000 C 
ATOM      8  N   UNL     1       4.541   5.986  18.042  0.00  0.00    +0.000 N 
ATOM      9  C   UNL     1       3.759   5.852  19.183  0.00  0.00    +0.000 C 
ATOM     10  O   UNL     1       3.837   4.995  20.046  0.00  0.00    +0.000 OA
ENDROOT
BRANCH   1  18
ATOM     11  C   UNL     1      -1.440   9.840  17.639  0.00  0.00    +0.000 C 
ATOM     12  C   UNL     1      -0.522  10.900  18.155  0.00  0.00    +0.000 A 
ATOM     13  C   UNL     1      -0.941  12.211  18.083  0.00  0.00    +0.000 A 
ATOM     14  N   UNL     1      -0.209  13.259  18.473  0.00  0.00    +0.000 NA
ATOM     15  C   UNL     1       1.009  13.014  18.961  0.00  0.00    +0.000 A 
ATOM     16  N   UNL     1       1.877  14.069  19.281  0.00  0.00    +0.000 N 
ATOM     17  N   UNL     1       1.503  11.773  19.103  0.00  0.00    +0.000 NA
ATOM     18  C   UNL     1       0.755  10.716  18.682  0.00  0.00    +0.000 A 
ATOM     19  H   UNL     1       2.756  13.660  19.571  0.00  0.00    +0.000 HD
BRANCH  16  20
ATOM     20  C   UNL     1       1.771  15.337  18.801  0.00  0.00    +0.000 A 
ATOM     21  C   UNL     1       0.760  16.275  18.867  0.00  0.00    +0.000 A 
ATOM     22  C   UNL     1       1.207  17.368  18.108  0.00  0.00    +0.000 A 
ATOM     23  N   UNL     1       2.431  17.177  17.618  0.00  0.00    +0.000 NA
ATOM     24  N   UNL     1       2.760  15.941  18.055  0.00  0.00    +0.000 N 
ATOM     25  C   UNL     1       4.038  15.393  17.667  0.00  0.00    +0.000 C 
ENDBRANCH  16  20
ENDBRANCH   1  18
BRANCH   8  26
ATOM     26  C   UNL     1       5.686   5.117  17.750  0.00  0.00    +0.000 C 
BRANCH  26  27
ATOM     27  C   UNL     1       5.864   4.812  16.267  0.00  0.00    +0.000 A 
ATOM     28  C   UNL     1       4.901   4.033  15.603  0.00  0.00    +0.000 A 
ATOM     29  C   UNL     1       5.028   3.742  14.241  0.00  0.00    +0.000 A 
ATOM     30  C   UNL     1       6.104   4.243  13.515  0.00  0.00    +0.000 A 
ATOM     31  C   UNL     1       7.064   5.019  14.156  0.00  0.00    +0.000 A 
ATOM     32 CL   UNL     1       8.384   5.666  13.261  0.00  0.00    +0.000 Cl
ATOM     33  C   UNL     1       6.959   5.286  15.521  0.00  0.00    +0.000 A 
ENDBRANCH  26  27
BRANCH  26  34
ATOM     34  C   UNL     1       6.987   5.596  18.447  0.00  0.00    +0.000 C 
BRANCH  34  35
ATOM     35  O   UNL     1       6.975   5.420  19.864  0.00  0.00    +0.000 OA
ATOM     36  H   UNL     1       6.054   5.230  20.112  0.00  0.00    +0.000 HD
ENDBRANCH  34  35
ENDBRANCH  26  34
ENDBRANCH   8  26
TORSDOF 6
ENDMDL
MODEL 9
REMARK VINA RESULT:      -9.1      1.207      1.602
REMARK  Name = 
REMARK  8 active torsions:
REMARK  status: ('A' for Active; 'I' for Inactive)
REMARK    1  A    between atoms: C_1  and  C_2
REMARK    2  A    between atoms: N_6  and  C_7
REMARK    3  A    between atoms: N_11  and  C_12
REMARK    4  A    between atoms: C_14  and  C_15
REMARK    5  A    between atoms: N_22  and  C_23
REMARK    6  A    between atoms: C_23  and  C_24
REMARK    7  A    between atoms: C_23  and  C_26
REMARK    8  A    between atoms: C_24  and  O_25
REMARK                            x       y       z     vdW  Elec       q    Type
REMARK                         _______ _______ _______ _____ _____    ______ ____
ROOT
ATOM      1  C   UNL     1       0.867   9.667  19.384  0.00  0.00    +0.000 A 
ATOM      2  C   UNL     1       0.747   9.119  20.695  0.00  0.00    +0.000 A 
ATOM      3  C   UNL     1       1.221   7.838  21.023  0.00  0.00    +0.000 A 
ATOM      4  C   UNL     1       1.801   7.096  20.016  0.00  0.00    +0.000 A 
ATOM      5  C   UNL     1       1.910   7.581  18.721  0.00  0.00    +0.000 A 
ATOM      6  C   UNL     1       1.479   8.861  18.405  0.00  0.00    +0.000 A 
ATOM      7  C   UNL     1       2.553   6.569  17.836  0.00  0.00    +0.000 C 
ATOM      8  N   UNL     1       2.900   5.509  18.767  0.00  0.00    +0.000 N 
ATOM      9  C   UNL     1       2.465   5.787  20.058  0.00  0.00    +0.000 C 
ATOM     10  O   UNL     1       2.623   5.112  21.062  0.00  0.00    +0.000 OA
ENDROOT
BRANCH   1  18
ATOM     11  C   UNL     1      -1.896  10.495  18.105  0.00  0.00    +0.000 C 
ATOM     12  C   UNL     1      -0.802  11.419  18.532  0.00  0.00    +0.000 A 
ATOM     13  C   UNL     1      -0.974  12.770  18.319  0.00  0.00    +0.000 A 
ATOM     14  N   UNL     1      -0.065  13.702  18.619  0.00  0.00    +0.000 NA
ATOM     15  C   UNL     1       1.085  13.292  19.158  0.00  0.00    +0.000 A 
ATOM     16  N   UNL     1       2.130  14.200  19.390  0.00  0.00    +0.000 N 
ATOM     17  N   UNL     1       1.344  12.004  19.436  0.00  0.00    +0.000 NA
ATOM     18  C   UNL     1       0.417  11.062  19.105  0.00  0.00    +0.000 A 
ATOM     19  H   UNL     1       2.918  13.670  19.740  0.00  0.00    +0.000 HD
BRANCH  16  20
ATOM     20  C   UNL     1       2.260  15.409  18.783  0.00  0.00    +0.000 A 
ATOM     21  C   UNL     1       1.410  16.492  18.676  0.00  0.00    +0.000 A 
ATOM     22  C   UNL     1       2.074  17.415  17.854  0.00  0.00    +0.000 A 
ATOM     23  N   UNL     1       3.281  16.988  17.484  0.00  0.00    +0.000 NA
ATOM     24  N   UNL     1       3.379  15.771  18.064  0.00  0.00    +0.000 N 
ATOM     25  C   UNL     1       4.574  14.996  17.836  0.00  0.00    +0.000 C 
ENDBRANCH  16  20
ENDBRANCH   1  18
BRANCH   8  26
ATOM     26  C   UNL     1       3.729   4.345  18.436  0.00  0.00    +0.000 C 
BRANCH  26  27
ATOM     27  C   UNL     1       4.942   4.680  17.574  0.00  0.00    +0.000 A 
ATOM     28  C   UNL     1       5.202   3.916  16.424  0.00  0.00    +0.000 A 
ATOM     29  C   UNL     1       6.300   4.201  15.605  0.00  0.00    +0.000 A 
ATOM     30  C   UNL     1       7.141   5.267  15.909  0.00  0.00    +0.000 A 
ATOM     31  C   UNL     1       6.896   6.035  17.041  0.00  0.00    +0.000 A 
ATOM     32 CL   UNL     1       7.914   7.373  17.410  0.00  0.00    +0.000 Cl
ATOM     33  C   UNL     1       5.821   5.736  17.879  0.00  0.00    +0.000 A 
ENDBRANCH  26  27
BRANCH  26  34
ATOM     34  C   UNL     1       4.071   3.486  19.681  0.00  0.00    +0.000 C 
BRANCH  34  35
ATOM     35  O   UNL     1       5.165   2.590  19.476  0.00  0.00    +0.000 OA
ATOM     36  H   UNL     1       5.028   2.181  18.604  0.00  0.00    +0.000 HD
ENDBRANCH  34  35
ENDBRANCH  26  34
ENDBRANCH   8  26
TORSDOF 6
ENDMDL
