MODEL 1
REMARK VINA RESULT:      -8.5      0.000      0.000
REMARK  Name = 
REMARK  8 active torsions:
REMARK  status: ('A' for Active; 'I' for Inactive)
REMARK    1  A    between atoms: C_1  and  C_2
REMARK    2  A    between atoms: C_5  and  N_6
REMARK    3  A    between atoms: N_9  and  C_10
REMARK    4  A    between atoms: C_10  and  C_11
REMARK    5  A    between atoms: C_11  and  C_12
REMARK    6  A    between atoms: C_11  and  N_24
REMARK    7  A    between atoms: C_15  and  C_16
REMARK    8  A    between atoms: N_27  and  C_28
REMARK                            x       y       z     vdW  Elec       q    Type
REMARK                         _______ _______ _______ _____ _____    ______ ____
ROOT
ATOM      1  C   UNL     1       0.060  10.643  18.423  0.00  0.00    +0.000 C 
ENDROOT
BRANCH   1   2
ATOM      2  C   UNL     1       1.049   9.503  18.718  0.00  0.00    +0.000 A 
ATOM      3  C   UNL     1       1.868   8.986  17.703  0.00  0.00    +0.000 A 
ATOM      4  C   UNL     1       2.618   7.827  17.902  0.00  0.00    +0.000 A 
ATOM      5  C   UNL     1       2.618   7.146  19.130  0.00  0.00    +0.000 A 
ATOM      6  C   UNL     1       1.872   7.728  20.173  0.00  0.00    +0.000 A 
ATOM      7  C   UNL     1       1.094   8.881  19.975  0.00  0.00    +0.000 A 
BRANCH   5   8
ATOM      8  C   UNL     1       3.330   5.851  19.284  0.00  0.00    +0.000 A 
ATOM      9  C   UNL     1       4.585   5.623  18.685  0.00  0.00    +0.000 A 
ATOM     10  C   UNL     1       5.220   4.378  18.753  0.00  0.00    +0.000 A 
ATOM     11  C   UNL     1       4.625   3.328  19.443  0.00  0.00    +0.000 A 
ATOM     12  C   UNL     1       3.396   3.525  20.063  0.00  0.00    +0.000 A 
ATOM     13  C   UNL     1       2.757   4.770  19.980  0.00  0.00    +0.000 A 
ENDBRANCH   5   8
ENDBRANCH   1   2
BRANCH   1  14
ATOM     14  N   UNL     1      -1.242  10.482  19.142  0.00  0.00    +0.000 NA
ATOM     15  C   UNL     1      -1.708  11.654  19.922  0.00  0.00    +0.000 C 
ATOM     16  C   UNL     1      -2.672  12.670  19.228  0.00  0.00    +0.000 C 
ATOM     17  N   UNL     1      -3.751  12.120  18.360  0.00  0.00    +0.000 NA
ATOM     18  C   UNL     1      -3.109  11.077  17.527  0.00  0.00    +0.000 C 
ATOM     19  C   UNL     1      -2.367   9.984  18.330  0.00  0.00    +0.000 C 
BRANCH  17  20
ATOM     20  C   UNL     1      -4.940  11.663  19.136  0.00  0.00    +0.000 C 
ATOM     21  C   UNL     1      -5.505  12.772  20.067  0.00  0.00    +0.000 C 
ATOM     22  C   UNL     1      -6.256  13.887  19.338  0.00  0.00    +0.000 C 
ATOM     23  C   UNL     1      -7.395  13.352  18.480  0.00  0.00    +0.000 C 
ATOM     24  C   UNL     1      -6.955  12.210  17.571  0.00  0.00    +0.000 C 
ATOM     25  C   UNL     1      -6.147  11.138  18.306  0.00  0.00    +0.000 C 
ENDBRANCH  17  20
ENDBRANCH   1  14
BRANCH   1  26
ATOM     26  C   UNL     1       0.780  11.968  18.868  0.00  0.00    +0.000 C 
BRANCH  26  30
ATOM     27  N   UNL     1       3.493  14.091  17.683  0.00  0.00    +0.000 N 
ATOM     28  C   UNL     1       2.720  13.351  18.550  0.00  0.00    +0.000 C 
ATOM     29  O   UNL     1       2.871  13.294  19.766  0.00  0.00    +0.000 OA
ATOM     30  N   UNL     1       1.697  12.642  17.940  0.00  0.00    +0.000 N 
ATOM     31  H   UNL     1       3.381  13.908  16.698  0.00  0.00    +0.000 HD
ATOM     32  H   UNL     1       1.315  13.035  17.093  0.00  0.00    +0.000 HD
BRANCH  27  37
ATOM     33  C   UNL     1       7.860  17.540  19.205  0.00  0.00    +0.000 C 
ATOM     34  C   UNL     1       6.728  16.641  18.804  0.00  0.00    +0.000 A 
ATOM     35  C   UNL     1       5.411  17.028  19.049  0.00  0.00    +0.000 A 
ATOM     36  C   UNL     1       4.345  16.199  18.680  0.00  0.00    +0.000 A 
ATOM     37  C   UNL     1       4.557  14.959  18.069  0.00  0.00    +0.000 A 
ATOM     38  C   UNL     1       5.880  14.571  17.826  0.00  0.00    +0.000 A 
ATOM     39  C   UNL     1       6.952  15.408  18.190  0.00  0.00    +0.000 A 
ENDBRANCH  27  37
ENDBRANCH  26  30
ENDBRANCH   1  26
TORSDOF 7
ENDMDL
MODEL 2
REMARK VINA RESULT:      -8.0      3.041      9.903
REMARK  Name = 
REMARK  8 active torsions:
REMARK  status: ('A' for Active; 'I' for Inactive)
REMARK    1  A    between atoms: C_1  and  C_2
REMARK    2  A    between atoms: C_5  and  N_6
REMARK    3  A    between atoms: N_9  and  C_10
REMARK    4  A    between atoms: C_10  and  C_11
REMARK    5  A    between atoms: C_11  and  C_12
REMARK    6  A    between atoms: C_11  and  N_24
REMARK    7  A    between atoms: C_15  and  C_16
REMARK    8  A    between atoms: N_27  and  C_28
REMARK                            x       y       z     vdW  Elec       q    Type
REMARK                         _______ _______ _______ _____ _____    ______ ____
ROOT
ATOM      1  C   UNL     1      -0.293  11.545  21.339  0.00  0.00    +0.000 C 
ENDROOT
BRANCH   1   2
ATOM      2  C   UNL     1      -1.721  11.879  21.802  0.00  0.00    +0.000 A 
ATOM      3  C   UNL     1      -2.704  12.257  20.873  0.00  0.00    +0.000 A 
ATOM      4  C   UNL     1      -3.937  12.756  21.291  0.00  0.00    +0.000 A 
ATOM      5  C   UNL     1      -4.267  12.871  22.652  0.00  0.00    +0.000 A 
ATOM      6  C   UNL     1      -3.314  12.396  23.574  0.00  0.00    +0.000 A 
ATOM      7  C   UNL     1      -2.060  11.915  23.163  0.00  0.00    +0.000 A 
BRANCH   5   8
ATOM      8  C   UNL     1      -5.538  13.513  23.076  0.00  0.00    +0.000 A 
ATOM      9  C   UNL     1      -5.640  14.909  23.240  0.00  0.00    +0.000 A 
ATOM     10  C   UNL     1      -6.807  15.512  23.723  0.00  0.00    +0.000 A 
ATOM     11  C   UNL     1      -7.916  14.734  24.036  0.00  0.00    +0.000 A 
ATOM     12  C   UNL     1      -7.855  13.355  23.867  0.00  0.00    +0.000 A 
ATOM     13  C   UNL     1      -6.679  12.754  23.397  0.00  0.00    +0.000 A 
ENDBRANCH   5   8
ENDBRANCH   1   2
BRANCH   1  14
ATOM     14  N   UNL     1       0.631  12.719  21.413  0.00  0.00    +0.000 NA
ATOM     15  C   UNL     1       1.815  12.678  20.522  0.00  0.00    +0.000 C 
ATOM     16  C   UNL     1       1.709  13.355  19.117  0.00  0.00    +0.000 C 
ATOM     17  N   UNL     1       0.996  14.661  19.028  0.00  0.00    +0.000 NA
ATOM     18  C   UNL     1      -0.240  14.503  19.830  0.00  0.00    +0.000 C 
ATOM     19  C   UNL     1      -0.003  14.044  21.287  0.00  0.00    +0.000 C 
BRANCH  17  20
ATOM     20  C   UNL     1       1.856  15.816  19.418  0.00  0.00    +0.000 C 
ATOM     21  C   UNL     1       3.261  15.760  18.757  0.00  0.00    +0.000 C 
ATOM     22  C   UNL     1       3.272  16.097  17.266  0.00  0.00    +0.000 C 
ATOM     23  C   UNL     1       2.658  17.460  16.976  0.00  0.00    +0.000 C 
ATOM     24  C   UNL     1       1.296  17.639  17.638  0.00  0.00    +0.000 C 
ATOM     25  C   UNL     1       1.290  17.232  19.113  0.00  0.00    +0.000 C 
ENDBRANCH  17  20
ENDBRANCH   1  14
BRANCH   1  26
ATOM     26  C   UNL     1       0.206  10.386  22.277  0.00  0.00    +0.000 C 
BRANCH  26  30
ATOM     27  N   UNL     1       2.119   7.627  20.863  0.00  0.00    +0.000 N 
ATOM     28  C   UNL     1       1.050   8.455  21.120  0.00  0.00    +0.000 C 
ATOM     29  O   UNL     1      -0.103   8.266  20.745  0.00  0.00    +0.000 OA
ATOM     30  N   UNL     1       1.362   9.574  21.876  0.00  0.00    +0.000 N 
ATOM     31  H   UNL     1       3.038   7.987  21.068  0.00  0.00    +0.000 HD
ATOM     32  H   UNL     1       2.129   9.484  22.526  0.00  0.00    +0.000 HD
BRANCH  27  37
ATOM     33  C   UNL     1       1.779   2.550  18.147  0.00  0.00    +0.000 C 
ATOM     34  C   UNL     1       1.861   3.868  18.857  0.00  0.00    +0.000 A 
ATOM     35  C   UNL     1       2.350   4.990  18.188  0.00  0.00    +0.000 A 
ATOM     36  C   UNL     1       2.433   6.227  18.837  0.00  0.00    +0.000 A 
ATOM     37  C   UNL     1       2.045   6.382  20.172  0.00  0.00    +0.000 A 
ATOM     38  C   UNL     1       1.557   5.255  20.843  0.00  0.00    +0.000 A 
ATOM     39  C   UNL     1       1.467   4.012  20.188  0.00  0.00    +0.000 A 
ENDBRANCH  27  37
ENDBRANCH  26  30
ENDBRANCH   1  26
TORSDOF 7
ENDMDL
MODEL 3
REMARK VINA RESULT:      -7.9      2.179      2.839
REMARK  Name = 
REMARK  8 active torsions:
REMARK  status: ('A' for Active; 'I' for Inactive)
REMARK    1  A    between atoms: C_1  and  C_2
REMARK    2  A    between atoms: C_5  and  N_6
REMARK    3  A    between atoms: N_9  and  C_10
REMARK    4  A    between atoms: C_10  and  C_11
REMARK    5  A    between atoms: C_11  and  C_12
REMARK    6  A    between atoms: C_11  and  N_24
REMARK    7  A    between atoms: C_15  and  C_16
REMARK    8  A    between atoms: N_27  and  C_28
REMARK                            x       y       z     vdW  Elec       q    Type
REMARK                         _______ _______ _______ _____ _____    ______ ____
ROOT
ATOM      1  C   UNL     1       0.105  11.471  19.459  0.00  0.00    +0.000 C 
ENDROOT
BRANCH   1   2
ATOM      2  C   UNL     1       0.975  10.229  19.207  0.00  0.00    +0.000 A 
ATOM      3  C   UNL     1       1.612  10.041  17.970  0.00  0.00    +0.000 A 
ATOM      4  C   UNL     1       2.233   8.832  17.655  0.00  0.00    +0.000 A 
ATOM      5  C   UNL     1       2.283   7.766  18.568  0.00  0.00    +0.000 A 
ATOM      6  C   UNL     1       1.730   7.999  19.842  0.00  0.00    +0.000 A 
ATOM      7  C   UNL     1       1.080   9.203  20.158  0.00  0.00    +0.000 A 
BRANCH   5   8
ATOM      8  C   UNL     1       2.846   6.449  18.170  0.00  0.00    +0.000 A 
ATOM      9  C   UNL     1       4.179   6.318  17.733  0.00  0.00    +0.000 A 
ATOM     10  C   UNL     1       4.690   5.098  17.274  0.00  0.00    +0.000 A 
ATOM     11  C   UNL     1       3.884   3.965  17.262  0.00  0.00    +0.000 A 
ATOM     12  C   UNL     1       2.569   4.056  17.707  0.00  0.00    +0.000 A 
ATOM     13  C   UNL     1       2.058   5.283  18.152  0.00  0.00    +0.000 A 
ENDBRANCH   5   8
ENDBRANCH   1   2
BRANCH   1  14
ATOM     14  N   UNL     1      -0.830  11.300  20.614  0.00  0.00    +0.000 NA
ATOM     15  C   UNL     1      -0.380  11.862  21.910  0.00  0.00    +0.000 C 
ATOM     16  C   UNL     1      -0.822  13.314  22.281  0.00  0.00    +0.000 C 
ATOM     17  N   UNL     1      -2.221  13.717  21.961  0.00  0.00    +0.000 NA
ATOM     18  C   UNL     1      -2.476  13.232  20.585  0.00  0.00    +0.000 C 
ATOM     19  C   UNL     1      -2.223  11.721  20.381  0.00  0.00    +0.000 C 
BRANCH  17  20
ATOM     20  C   UNL     1      -3.203  13.255  22.984  0.00  0.00    +0.000 C 
ATOM     21  C   UNL     1      -3.067  14.023  24.328  0.00  0.00    +0.000 C 
ATOM     22  C   UNL     1      -3.594  15.458  24.292  0.00  0.00    +0.000 C 
ATOM     23  C   UNL     1      -5.046  15.530  23.842  0.00  0.00    +0.000 C 
ATOM     24  C   UNL     1      -5.299  14.750  22.557  0.00  0.00    +0.000 C 
ATOM     25  C   UNL     1      -4.705  13.339  22.587  0.00  0.00    +0.000 C 
ENDBRANCH  17  20
ENDBRANCH   1  14
BRANCH   1  26
ATOM     26  C   UNL     1       1.106  12.654  19.726  0.00  0.00    +0.000 C 
BRANCH  26  30
ATOM     27  N   UNL     1       3.804  14.382  17.991  0.00  0.00    +0.000 N 
ATOM     28  C   UNL     1       3.110  13.774  19.013  0.00  0.00    +0.000 C 
ATOM     29  O   UNL     1       3.461  13.739  20.189  0.00  0.00    +0.000 OA
ATOM     30  N   UNL     1       1.922  13.178  18.623  0.00  0.00    +0.000 N 
ATOM     31  H   UNL     1       3.503  14.181  17.050  0.00  0.00    +0.000 HD
ATOM     32  H   UNL     1       1.447  13.586  17.831  0.00  0.00    +0.000 HD
BRANCH  27  37
ATOM     33  C   UNL     1       8.641  17.453  18.663  0.00  0.00    +0.000 C 
ATOM     34  C   UNL     1       7.380  16.657  18.494  0.00  0.00    +0.000 A 
ATOM     35  C   UNL     1       7.432  15.380  17.935  0.00  0.00    +0.000 A 
ATOM     36  C   UNL     1       6.264  14.627  17.771  0.00  0.00    +0.000 A 
ATOM     37  C   UNL     1       5.012  15.123  18.146  0.00  0.00    +0.000 A 
ATOM     38  C   UNL     1       4.961  16.405  18.706  0.00  0.00    +0.000 A 
ATOM     39  C   UNL     1       6.136  17.161  18.877  0.00  0.00    +0.000 A 
ENDBRANCH  27  37
ENDBRANCH  26  30
ENDBRANCH   1  26
TORSDOF 7
ENDMDL
MODEL 4
REMARK VINA RESULT:      -7.8      1.909      2.608
REMARK  Name = 
REMARK  8 active torsions:
REMARK  status: ('A' for Active; 'I' for Inactive)
REMARK    1  A    between atoms: C_1  and  C_2
REMARK    2  A    between atoms: C_5  and  N_6
REMARK    3  A    between atoms: N_9  and  C_10
REMARK    4  A    between atoms: C_10  and  C_11
REMARK    5  A    between atoms: C_11  and  C_12
REMARK    6  A    between atoms: C_11  and  N_24
REMARK    7  A    between atoms: C_15  and  C_16
REMARK    8  A    between atoms: N_27  and  C_28
REMARK                            x       y       z     vdW  Elec       q    Type
REMARK                         _______ _______ _______ _____ _____    ______ ____
ROOT
ATOM      1  C   UNL     1       0.106  11.045  18.982  0.00  0.00    +0.000 C 
ENDROOT
BRANCH   1   2
ATOM      2  C   UNL     1       1.037   9.821  18.988  0.00  0.00    +0.000 A 
ATOM      3  C   UNL     1       1.737   9.450  17.829  0.00  0.00    +0.000 A 
ATOM      4  C   UNL     1       2.421   8.236  17.757  0.00  0.00    +0.000 A 
ATOM      5  C   UNL     1       2.473   7.350  18.845  0.00  0.00    +0.000 A 
ATOM      6  C   UNL     1       1.853   7.776  20.036  0.00  0.00    +0.000 A 
ATOM      7  C   UNL     1       1.141   8.985  20.109  0.00  0.00    +0.000 A 
BRANCH   5   8
ATOM      8  C   UNL     1       3.107   6.012  18.709  0.00  0.00    +0.000 A 
ATOM      9  C   UNL     1       3.115   5.089  19.773  0.00  0.00    +0.000 A 
ATOM     10  C   UNL     1       3.786   3.863  19.681  0.00  0.00    +0.000 A 
ATOM     11  C   UNL     1       4.450   3.518  18.510  0.00  0.00    +0.000 A 
ATOM     12  C   UNL     1       4.444   4.399  17.434  0.00  0.00    +0.000 A 
ATOM     13  C   UNL     1       3.783   5.631  17.535  0.00  0.00    +0.000 A 
ENDBRANCH   5   8
ENDBRANCH   1   2
BRANCH   1  14
ATOM     14  N   UNL     1      -1.012  10.927  19.970  0.00  0.00    +0.000 NA
ATOM     15  C   UNL     1      -0.675  11.236  21.380  0.00  0.00    +0.000 C 
ATOM     16  C   UNL     1      -0.905  12.694  21.894  0.00  0.00    +0.000 C 
ATOM     17  N   UNL     1      -2.144  13.398  21.455  0.00  0.00    +0.000 NA
ATOM     18  C   UNL     1      -2.265  13.135  20.002  0.00  0.00    +0.000 C 
ATOM     19  C   UNL     1      -2.255  11.637  19.619  0.00  0.00    +0.000 C 
BRANCH  17  20
ATOM     20  C   UNL     1      -3.339  13.022  22.265  0.00  0.00    +0.000 C 
ATOM     21  C   UNL     1      -3.065  13.081  23.793  0.00  0.00    +0.000 C 
ATOM     22  C   UNL     1      -2.971  14.497  24.363  0.00  0.00    +0.000 C 
ATOM     23  C   UNL     1      -4.213  15.324  24.065  0.00  0.00    +0.000 C 
ATOM     24  C   UNL     1      -4.606  15.279  22.593  0.00  0.00    +0.000 C 
ATOM     25  C   UNL     1      -4.628  13.859  22.023  0.00  0.00    +0.000 C 
ENDBRANCH  17  20
ENDBRANCH   1  14
BRANCH   1  26
ATOM     26  C   UNL     1       1.016  12.282  19.319  0.00  0.00    +0.000 C 
BRANCH  26  30
ATOM     27  N   UNL     1       3.775  14.145  17.840  0.00  0.00    +0.000 N 
ATOM     28  C   UNL     1       2.995  13.544  18.802  0.00  0.00    +0.000 C 
ATOM     29  O   UNL     1       3.171  13.627  20.014  0.00  0.00    +0.000 OA
ATOM     30  N   UNL     1       1.935  12.806  18.301  0.00  0.00    +0.000 N 
ATOM     31  H   UNL     1       3.635  13.850  16.886  0.00  0.00    +0.000 HD
ATOM     32  H   UNL     1       1.548  13.108  17.419  0.00  0.00    +0.000 HD
BRANCH  27  37
ATOM     33  C   UNL     1       8.291  17.590  18.849  0.00  0.00    +0.000 C 
ATOM     34  C   UNL     1       7.120  16.692  18.580  0.00  0.00    +0.000 A 
ATOM     35  C   UNL     1       5.829  17.117  18.895  0.00  0.00    +0.000 A 
ATOM     36  C   UNL     1       4.728  16.289  18.651  0.00  0.00    +0.000 A 
ATOM     37  C   UNL     1       4.876  15.013  18.099  0.00  0.00    +0.000 A 
ATOM     38  C   UNL     1       6.172  14.586  17.786  0.00  0.00    +0.000 A 
ATOM     39  C   UNL     1       7.280  15.422  18.025  0.00  0.00    +0.000 A 
ENDBRANCH  27  37
ENDBRANCH  26  30
ENDBRANCH   1  26
TORSDOF 7
ENDMDL
MODEL 5
REMARK VINA RESULT:      -7.7      1.451      1.542
REMARK  Name = 
REMARK  8 active torsions:
REMARK  status: ('A' for Active; 'I' for Inactive)
REMARK    1  A    between atoms: C_1  and  C_2
REMARK    2  A    between atoms: C_5  and  N_6
REMARK    3  A    between atoms: N_9  and  C_10
REMARK    4  A    between atoms: C_10  and  C_11
REMARK    5  A    between atoms: C_11  and  C_12
REMARK    6  A    between atoms: C_11  and  N_24
REMARK    7  A    between atoms: C_15  and  C_16
REMARK    8  A    between atoms: N_27  and  C_28
REMARK                            x       y       z     vdW  Elec       q    Type
REMARK                         _______ _______ _______ _____ _____    ______ ____
ROOT
ATOM      1  C   UNL     1       0.220  10.898  18.943  0.00  0.00    +0.000 C 
ENDROOT
BRANCH   1   2
ATOM      2  C   UNL     1       1.148   9.672  18.959  0.00  0.00    +0.000 A 
ATOM      3  C   UNL     1       1.864   9.301  17.810  0.00  0.00    +0.000 A 
ATOM      4  C   UNL     1       2.546   8.086  17.745  0.00  0.00    +0.000 A 
ATOM      5  C   UNL     1       2.579   7.197  18.831  0.00  0.00    +0.000 A 
ATOM      6  C   UNL     1       1.943   7.622  20.014  0.00  0.00    +0.000 A 
ATOM      7  C   UNL     1       1.233   8.832  20.080  0.00  0.00    +0.000 A 
BRANCH   5   8
ATOM      8  C   UNL     1       3.212   5.858  18.701  0.00  0.00    +0.000 A 
ATOM      9  C   UNL     1       3.775   5.424  17.485  0.00  0.00    +0.000 A 
ATOM     10  C   UNL     1       4.293   4.132  17.331  0.00  0.00    +0.000 A 
ATOM     11  C   UNL     1       4.282   3.245  18.401  0.00  0.00    +0.000 A 
ATOM     12  C   UNL     1       3.752   3.650  19.622  0.00  0.00    +0.000 A 
ATOM     13  C   UNL     1       3.221   4.938  19.767  0.00  0.00    +0.000 A 
ENDBRANCH   5   8
ENDBRANCH   1   2
BRANCH   1  14
ATOM     14  N   UNL     1      -1.159  10.588  19.434  0.00  0.00    +0.000 NA
ATOM     15  C   UNL     1      -1.791  11.613  20.299  0.00  0.00    +0.000 C 
ATOM     16  C   UNL     1      -2.702  12.691  19.627  0.00  0.00    +0.000 C 
ATOM     17  N   UNL     1      -3.619  12.243  18.540  0.00  0.00    +0.000 NA
ATOM     18  C   UNL     1      -2.811  11.358  17.668  0.00  0.00    +0.000 C 
ATOM     19  C   UNL     1      -2.131  10.182  18.404  0.00  0.00    +0.000 C 
BRANCH  17  20
ATOM     20  C   UNL     1      -4.878  11.636  19.060  0.00  0.00    +0.000 C 
ATOM     21  C   UNL     1      -5.600  12.552  20.087  0.00  0.00    +0.000 C 
ATOM     22  C   UNL     1      -6.295  13.766  19.471  0.00  0.00    +0.000 C 
ATOM     23  C   UNL     1      -7.294  13.374  18.391  0.00  0.00    +0.000 C 
ATOM     24  C   UNL     1      -6.697  12.419  17.363  0.00  0.00    +0.000 C 
ATOM     25  C   UNL     1      -5.947  11.247  17.999  0.00  0.00    +0.000 C 
ENDBRANCH  17  20
ENDBRANCH   1  14
BRANCH   1  26
ATOM     26  C   UNL     1       0.909  11.973  19.861  0.00  0.00    +0.000 C 
BRANCH  26  30
ATOM     27  N   UNL     1       3.577  14.449  19.728  0.00  0.00    +0.000 N 
ATOM     28  C   UNL     1       2.667  13.563  20.258  0.00  0.00    +0.000 C 
ATOM     29  O   UNL     1       2.436  13.411  21.454  0.00  0.00    +0.000 OA
ATOM     30  N   UNL     1       1.981  12.814  19.315  0.00  0.00    +0.000 N 
ATOM     31  H   UNL     1       3.803  14.345  18.751  0.00  0.00    +0.000 HD
ATOM     32  H   UNL     1       1.838  13.242  18.412  0.00  0.00    +0.000 HD
BRANCH  27  37
ATOM     33  C   UNL     1       6.790  18.150  22.771  0.00  0.00    +0.000 C 
ATOM     34  C   UNL     1       5.961  17.185  21.976  0.00  0.00    +0.000 A 
ATOM     35  C   UNL     1       4.659  17.525  21.606  0.00  0.00    +0.000 A 
ATOM     36  C   UNL     1       3.874  16.636  20.865  0.00  0.00    +0.000 A 
ATOM     37  C   UNL     1       4.353  15.379  20.481  0.00  0.00    +0.000 A 
ATOM     38  C   UNL     1       5.658  15.038  20.855  0.00  0.00    +0.000 A 
ATOM     39  C   UNL     1       6.451  15.936  21.594  0.00  0.00    +0.000 A 
ENDBRANCH  27  37
ENDBRANCH  26  30
ENDBRANCH   1  26
TORSDOF 7
ENDMDL
MODEL 6
REMARK VINA RESULT:      -7.6      3.241      7.115
REMARK  Name = 
REMARK  8 active torsions:
REMARK  status: ('A' for Active; 'I' for Inactive)
REMARK    1  A    between atoms: C_1  and  C_2
REMARK    2  A    between atoms: C_5  and  N_6
REMARK    3  A    between atoms: N_9  and  C_10
REMARK    4  A    between atoms: C_10  and  C_11
REMARK    5  A    between atoms: C_11  and  C_12
REMARK    6  A    between atoms: C_11  and  N_24
REMARK    7  A    between atoms: C_15  and  C_16
REMARK    8  A    between atoms: N_27  and  C_28
REMARK                            x       y       z     vdW  Elec       q    Type
REMARK                         _______ _______ _______ _____ _____    ______ ____
ROOT
ATOM      1  C   UNL     1       0.887  10.760  20.348  0.00  0.00    +0.000 C 
ENDROOT
BRANCH   1   2
ATOM      2  C   UNL     1       1.253   9.349  19.858  0.00  0.00    +0.000 A 
ATOM      3  C   UNL     1       1.323   8.276  20.760  0.00  0.00    +0.000 A 
ATOM      4  C   UNL     1       1.846   7.042  20.373  0.00  0.00    +0.000 A 
ATOM      5  C   UNL     1       2.292   6.805  19.062  0.00  0.00    +0.000 A 
ATOM      6  C   UNL     1       2.125   7.856  18.140  0.00  0.00    +0.000 A 
ATOM      7  C   UNL     1       1.622   9.109  18.526  0.00  0.00    +0.000 A 
BRANCH   5   8
ATOM      8  C   UNL     1       2.954   5.524  18.702  0.00  0.00    +0.000 A 
ATOM      9  C   UNL     1       4.209   5.167  19.234  0.00  0.00    +0.000 A 
ATOM     10  C   UNL     1       4.877   4.004  18.832  0.00  0.00    +0.000 A 
ATOM     11  C   UNL     1       4.295   3.152  17.900  0.00  0.00    +0.000 A 
ATOM     12  C   UNL     1       3.048   3.465  17.371  0.00  0.00    +0.000 A 
ATOM     13  C   UNL     1       2.389   4.638  17.765  0.00  0.00    +0.000 A 
ENDBRANCH   5   8
ENDBRANCH   1   2
BRANCH   1  14
ATOM     14  N   UNL     1       1.110  11.811  19.306  0.00  0.00    +0.000 NA
ATOM     15  C   UNL     1      -0.088  12.574  18.879  0.00  0.00    +0.000 C 
ATOM     16  C   UNL     1      -0.404  13.923  19.603  0.00  0.00    +0.000 C 
ATOM     17  N   UNL     1       0.741  14.823  19.923  0.00  0.00    +0.000 NA
ATOM     18  C   UNL     1       1.797  13.951  20.486  0.00  0.00    +0.000 C 
ATOM     19  C   UNL     1       2.199  12.765  19.580  0.00  0.00    +0.000 C 
BRANCH  17  20
ATOM     20  C   UNL     1       1.164  15.654  18.759  0.00  0.00    +0.000 C 
ATOM     21  C   UNL     1       0.046  16.620  18.279  0.00  0.00    +0.000 C 
ATOM     22  C   UNL     1      -0.194  17.816  19.201  0.00  0.00    +0.000 C 
ATOM     23  C   UNL     1       1.072  18.627  19.439  0.00  0.00    +0.000 C 
ATOM     24  C   UNL     1       2.253  17.756  19.854  0.00  0.00    +0.000 C 
ATOM     25  C   UNL     1       2.435  16.528  18.960  0.00  0.00    +0.000 C 
ENDBRANCH  17  20
ENDBRANCH   1  14
BRANCH   1  26
ATOM     26  C   UNL     1      -0.631  10.697  20.756  0.00  0.00    +0.000 C 
BRANCH  26  30
ATOM     27  N   UNL     1      -2.499  12.687  23.168  0.00  0.00    +0.000 N 
ATOM     28  C   UNL     1      -2.183  12.061  21.984  0.00  0.00    +0.000 C 
ATOM     29  O   UNL     1      -2.803  12.176  20.931  0.00  0.00    +0.000 OA
ATOM     30  N   UNL     1      -1.059  11.254  22.046  0.00  0.00    +0.000 N 
ATOM     31  H   UNL     1      -2.024  12.367  23.997  0.00  0.00    +0.000 HD
ATOM     32  H   UNL     1      -0.347  11.517  22.711  0.00  0.00    +0.000 HD
BRANCH  27  37
ATOM     33  C   UNL     1      -6.736  16.540  23.864  0.00  0.00    +0.000 C 
ATOM     34  C   UNL     1      -5.631  15.543  23.678  0.00  0.00    +0.000 A 
ATOM     35  C   UNL     1      -5.909  14.177  23.732  0.00  0.00    +0.000 A 
ATOM     36  C   UNL     1      -4.889  13.235  23.561  0.00  0.00    +0.000 A 
ATOM     37  C   UNL     1      -3.562  13.621  23.344  0.00  0.00    +0.000 A 
ATOM     38  C   UNL     1      -3.284  14.992  23.293  0.00  0.00    +0.000 A 
ATOM     39  C   UNL     1      -4.312  15.940  23.458  0.00  0.00    +0.000 A 
ENDBRANCH  27  37
ENDBRANCH  26  30
ENDBRANCH   1  26
TORSDOF 7
ENDMDL
MODEL 7
REMARK VINA RESULT:      -7.6      1.860      7.506
REMARK  Name = 
REMARK  8 active torsions:
REMARK  status: ('A' for Active; 'I' for Inactive)
REMARK    1  A    between atoms: C_1  and  C_2
REMARK    2  A    between atoms: C_5  and  N_6
REMARK    3  A    between atoms: N_9  and  C_10
REMARK    4  A    between atoms: C_10  and  C_11
REMARK    5  A    between atoms: C_11  and  C_12
REMARK    6  A    between atoms: C_11  and  N_24
REMARK    7  A    between atoms: C_15  and  C_16
REMARK    8  A    between atoms: N_27  and  C_28
REMARK                            x       y       z     vdW  Elec       q    Type
REMARK                         _______ _______ _______ _____ _____    ______ ____
ROOT
ATOM      1  C   UNL     1       0.354  12.319  19.480  0.00  0.00    +0.000 C 
ENDROOT
BRANCH   1   2
ATOM      2  C   UNL     1       1.578  13.235  19.315  0.00  0.00    +0.000 A 
ATOM      3  C   UNL     1       2.235  13.334  18.078  0.00  0.00    +0.000 A 
ATOM      4  C   UNL     1       3.457  13.996  17.962  0.00  0.00    +0.000 A 
ATOM      5  C   UNL     1       4.068  14.622  19.062  0.00  0.00    +0.000 A 
ATOM      6  C   UNL     1       3.353  14.604  20.275  0.00  0.00    +0.000 A 
ATOM      7  C   UNL     1       2.134  13.918  20.407  0.00  0.00    +0.000 A 
BRANCH   5   8
ATOM      8  C   UNL     1       5.424  15.220  18.943  0.00  0.00    +0.000 A 
ATOM      9  C   UNL     1       5.811  16.330  19.718  0.00  0.00    +0.000 A 
ATOM     10  C   UNL     1       7.054  16.951  19.549  0.00  0.00    +0.000 A 
ATOM     11  C   UNL     1       7.955  16.463  18.610  0.00  0.00    +0.000 A 
ATOM     12  C   UNL     1       7.612  15.355  17.842  0.00  0.00    +0.000 A 
ATOM     13  C   UNL     1       6.361  14.745  18.005  0.00  0.00    +0.000 A 
ENDBRANCH   5   8
ENDBRANCH   1   2
BRANCH   1  14
ATOM     14  N   UNL     1      -0.924  12.980  19.068  0.00  0.00    +0.000 NA
ATOM     15  C   UNL     1      -1.729  12.268  18.046  0.00  0.00    +0.000 C 
ATOM     16  C   UNL     1      -2.852  11.296  18.533  0.00  0.00    +0.000 C 
ATOM     17  N   UNL     1      -3.685  11.724  19.693  0.00  0.00    +0.000 NA
ATOM     18  C   UNL     1      -2.737  12.264  20.695  0.00  0.00    +0.000 C 
ATOM     19  C   UNL     1      -1.818  13.389  20.166  0.00  0.00    +0.000 C 
BRANCH  17  20
ATOM     20  C   UNL     1      -4.785  12.652  19.302  0.00  0.00    +0.000 C 
ATOM     21  C   UNL     1      -5.731  12.038  18.233  0.00  0.00    +0.000 C 
ATOM     22  C   UNL     1      -6.669  10.955  18.767  0.00  0.00    +0.000 C 
ATOM     23  C   UNL     1      -7.516  11.446  19.933  0.00  0.00    +0.000 C 
ATOM     24  C   UNL     1      -6.683  12.127  21.014  0.00  0.00    +0.000 C 
ATOM     25  C   UNL     1      -5.703  13.159  20.453  0.00  0.00    +0.000 C 
ENDBRANCH  17  20
ENDBRANCH   1  14
BRANCH   1  26
ATOM     26  C   UNL     1       0.636  11.054  18.591  0.00  0.00    +0.000 C 
BRANCH  26  30
ATOM     27  N   UNL     1       2.261   7.811  18.928  0.00  0.00    +0.000 N 
ATOM     28  C   UNL     1       1.901   9.021  18.379  0.00  0.00    +0.000 C 
ATOM     29  O   UNL     1       2.189   9.403  17.249  0.00  0.00    +0.000 OA
ATOM     30  N   UNL     1       1.146   9.827  19.216  0.00  0.00    +0.000 N 
ATOM     31  H   UNL     1       2.120   7.697  19.920  0.00  0.00    +0.000 HD
ATOM     32  H   UNL     1       0.561   9.358  19.892  0.00  0.00    +0.000 HD
BRANCH  27  37
ATOM     33  C   UNL     1       5.216   3.702  16.159  0.00  0.00    +0.000 C 
ATOM     34  C   UNL     1       4.453   4.774  16.881  0.00  0.00    +0.000 A 
ATOM     35  C   UNL     1       3.224   4.477  17.470  0.00  0.00    +0.000 A 
ATOM     36  C   UNL     1       2.502   5.466  18.147  0.00  0.00    +0.000 A 
ATOM     37  C   UNL     1       2.973   6.780  18.247  0.00  0.00    +0.000 A 
ATOM     38  C   UNL     1       4.205   7.076  17.654  0.00  0.00    +0.000 A 
ATOM     39  C   UNL     1       4.936   6.080  16.979  0.00  0.00    +0.000 A 
ENDBRANCH  27  37
ENDBRANCH  26  30
ENDBRANCH   1  26
TORSDOF 7
ENDMDL
MODEL 8
REMARK VINA RESULT:      -7.6      2.811      3.699
REMARK  Name = 
REMARK  8 active torsions:
REMARK  status: ('A' for Active; 'I' for Inactive)
REMARK    1  A    between atoms: C_1  and  C_2
REMARK    2  A    between atoms: C_5  and  N_6
REMARK    3  A    between atoms: N_9  and  C_10
REMARK    4  A    between atoms: C_10  and  C_11
REMARK    5  A    between atoms: C_11  and  C_12
REMARK    6  A    between atoms: C_11  and  N_24
REMARK    7  A    between atoms: C_15  and  C_16
REMARK    8  A    between atoms: N_27  and  C_28
REMARK                            x       y       z     vdW  Elec       q    Type
REMARK                         _______ _______ _______ _____ _____    ______ ____
ROOT
ATOM      1  C   UNL     1      -0.499  12.519  20.272  0.00  0.00    +0.000 C 
ENDROOT
BRANCH   1   2
ATOM      2  C   UNL     1       0.079  11.150  19.878  0.00  0.00    +0.000 A 
ATOM      3  C   UNL     1       0.451  10.221  20.863  0.00  0.00    +0.000 A 
ATOM      4  C   UNL     1       1.159   9.065  20.533  0.00  0.00    +0.000 A 
ATOM      5  C   UNL     1       1.500   8.759  19.205  0.00  0.00    +0.000 A 
ATOM      6  C   UNL     1       1.035   9.646  18.214  0.00  0.00    +0.000 A 
ATOM      7  C   UNL     1       0.344  10.824  18.540  0.00  0.00    +0.000 A 
BRANCH   5   8
ATOM      8  C   UNL     1       2.355   7.585  18.889  0.00  0.00    +0.000 A 
ATOM      9  C   UNL     1       2.413   6.464  19.740  0.00  0.00    +0.000 A 
ATOM     10  C   UNL     1       3.281   5.393  19.494  0.00  0.00    +0.000 A 
ATOM     11  C   UNL     1       4.101   5.406  18.372  0.00  0.00    +0.000 A 
ATOM     12  C   UNL     1       4.054   6.488  17.500  0.00  0.00    +0.000 A 
ATOM     13  C   UNL     1       3.194   7.564  17.758  0.00  0.00    +0.000 A 
ENDBRANCH   5   8
ENDBRANCH   1   2
BRANCH   1  14
ATOM     14  N   UNL     1      -1.347  12.458  21.503  0.00  0.00    +0.000 NA
ATOM     15  C   UNL     1      -0.868  13.242  22.667  0.00  0.00    +0.000 C 
ATOM     16  C   UNL     1      -1.406  14.699  22.851  0.00  0.00    +0.000 C 
ATOM     17  N   UNL     1      -2.849  14.946  22.574  0.00  0.00    +0.000 NA
ATOM     18  C   UNL     1      -3.145  14.239  21.306  0.00  0.00    +0.000 C 
ATOM     19  C   UNL     1      -2.781  12.737  21.309  0.00  0.00    +0.000 C 
BRANCH  17  20
ATOM     20  C   UNL     1      -3.728  14.575  23.721  0.00  0.00    +0.000 C 
ATOM     21  C   UNL     1      -3.290  15.251  25.049  0.00  0.00    +0.000 C 
ATOM     22  C   UNL     1      -3.605  16.746  25.131  0.00  0.00    +0.000 C 
ATOM     23  C   UNL     1      -5.082  17.039  24.907  0.00  0.00    +0.000 C 
ATOM     24  C   UNL     1      -5.628  16.362  23.654  0.00  0.00    +0.000 C 
ATOM     25  C   UNL     1      -5.245  14.884  23.557  0.00  0.00    +0.000 C 
ENDBRANCH  17  20
ENDBRANCH   1  14
BRANCH   1  26
ATOM     26  C   UNL     1       0.739  13.463  20.497  0.00  0.00    +0.000 C 
BRANCH  26  30
ATOM     27  N   UNL     1       3.329  15.018  18.461  0.00  0.00    +0.000 N 
ATOM     28  C   UNL     1       2.751  14.306  19.488  0.00  0.00    +0.000 C 
ATOM     29  O   UNL     1       3.340  13.878  20.476  0.00  0.00    +0.000 OA
ATOM     30  N   UNL     1       1.390  14.094  19.342  0.00  0.00    +0.000 N 
ATOM     31  H   UNL     1       2.778  15.150  17.628  0.00  0.00    +0.000 HD
ATOM     32  H   UNL     1       0.874  14.792  18.826  0.00  0.00    +0.000 HD
BRANCH  27  37
ATOM     33  C   UNL     1       8.873  16.594  18.215  0.00  0.00    +0.000 C 
ATOM     34  C   UNL     1       7.432  16.181  18.273  0.00  0.00    +0.000 A 
ATOM     35  C   UNL     1       6.489  17.023  18.862  0.00  0.00    +0.000 A 
ATOM     36  C   UNL     1       5.142  16.651  18.923  0.00  0.00    +0.000 A 
ATOM     37  C   UNL     1       4.694  15.428  18.413  0.00  0.00    +0.000 A 
ATOM     38  C   UNL     1       5.642  14.582  17.824  0.00  0.00    +0.000 A 
ATOM     39  C   UNL     1       6.996  14.960  17.756  0.00  0.00    +0.000 A 
ENDBRANCH  27  37
ENDBRANCH  26  30
ENDBRANCH   1  26
TORSDOF 7
ENDMDL
MODEL 9
REMARK VINA RESULT:      -7.5      2.243      2.974
REMARK  Name = 
REMARK  8 active torsions:
REMARK  status: ('A' for Active; 'I' for Inactive)
REMARK    1  A    between atoms: C_1  and  C_2
REMARK    2  A    between atoms: C_5  and  N_6
REMARK    3  A    between atoms: N_9  and  C_10
REMARK    4  A    between atoms: C_10  and  C_11
REMARK    5  A    between atoms: C_11  and  C_12
REMARK    6  A    between atoms: C_11  and  N_24
REMARK    7  A    between atoms: C_15  and  C_16
REMARK    8  A    between atoms: N_27  and  C_28
REMARK                            x       y       z     vdW  Elec       q    Type
REMARK                         _______ _______ _______ _____ _____    ______ ____
ROOT
ATOM      1  C   UNL     1       0.420  11.299  19.632  0.00  0.00    +0.000 C 
ENDROOT
BRANCH   1   2
ATOM      2  C   UNL     1       1.213  10.024  19.300  0.00  0.00    +0.000 A 
ATOM      3  C   UNL     1       1.828   9.870  18.048  0.00  0.00    +0.000 A 
ATOM      4  C   UNL     1       2.375   8.648  17.658  0.00  0.00    +0.000 A 
ATOM      5  C   UNL     1       2.369   7.529  18.507  0.00  0.00    +0.000 A 
ATOM      6  C   UNL     1       1.841   7.721  19.799  0.00  0.00    +0.000 A 
ATOM      7  C   UNL     1       1.266   8.941  20.191  0.00  0.00    +0.000 A 
BRANCH   5   8
ATOM      8  C   UNL     1       2.850   6.207  18.029  0.00  0.00    +0.000 A 
ATOM      9  C   UNL     1       2.130   5.023  18.285  0.00  0.00    +0.000 A 
ATOM     10  C   UNL     1       2.620   3.765  17.914  0.00  0.00    +0.000 A 
ATOM     11  C   UNL     1       3.840   3.659  17.256  0.00  0.00    +0.000 A 
ATOM     12  C   UNL     1       4.567   4.810  16.971  0.00  0.00    +0.000 A 
ATOM     13  C   UNL     1       4.079   6.066  17.357  0.00  0.00    +0.000 A 
ENDBRANCH   5   8
ENDBRANCH   1   2
BRANCH   1  14
ATOM     14  N   UNL     1      -0.770  11.032  20.498  0.00  0.00    +0.000 NA
ATOM     15  C   UNL     1      -0.622  11.365  21.935  0.00  0.00    +0.000 C 
ATOM     16  C   UNL     1      -1.085  12.777  22.420  0.00  0.00    +0.000 C 
ATOM     17  N   UNL     1      -2.350  13.325  21.853  0.00  0.00    +0.000 NA
ATOM     18  C   UNL     1      -2.287  13.065  20.396  0.00  0.00    +0.000 C 
ATOM     19  C   UNL     1      -2.050  11.585  20.020  0.00  0.00    +0.000 C 
BRANCH  17  20
ATOM     20  C   UNL     1      -3.565  12.795  22.536  0.00  0.00    +0.000 C 
ATOM     21  C   UNL     1      -3.668  13.259  24.015  0.00  0.00    +0.000 C 
ATOM     22  C   UNL     1      -4.060  14.727  24.189  0.00  0.00    +0.000 C 
ATOM     23  C   UNL     1      -5.369  15.064  23.488  0.00  0.00    +0.000 C 
ATOM     24  C   UNL     1      -5.393  14.589  22.039  0.00  0.00    +0.000 C 
ATOM     25  C   UNL     1      -4.933  13.138  21.877  0.00  0.00    +0.000 C 
ENDBRANCH  17  20
ENDBRANCH   1  14
BRANCH   1  26
ATOM     26  C   UNL     1       1.430  12.261  20.358  0.00  0.00    +0.000 C 
BRANCH  26  30
ATOM     27  N   UNL     1       3.900  14.818  19.565  0.00  0.00    +0.000 N 
ATOM     28  C   UNL     1       3.199  13.887  20.298  0.00  0.00    +0.000 C 
ATOM     29  O   UNL     1       3.325  13.688  21.502  0.00  0.00    +0.000 OA
ATOM     30  N   UNL     1       2.283  13.152  19.562  0.00  0.00    +0.000 N 
ATOM     31  H   UNL     1       3.836  14.755  18.561  0.00  0.00    +0.000 HD
ATOM     32  H   UNL     1       1.878  13.606  18.757  0.00  0.00    +0.000 HD
BRANCH  27  37
ATOM     33  C   UNL     1       7.640  18.630  21.748  0.00  0.00    +0.000 C 
ATOM     34  C   UNL     1       6.662  17.641  21.185  0.00  0.00    +0.000 A 
ATOM     35  C   UNL     1       7.093  16.365  20.821  0.00  0.00    +0.000 A 
ATOM     36  C   UNL     1       6.192  15.433  20.294  0.00  0.00    +0.000 A 
ATOM     37  C   UNL     1       4.842  15.744  20.101  0.00  0.00    +0.000 A 
ATOM     38  C   UNL     1       4.412  17.026  20.464  0.00  0.00    +0.000 A 
ATOM     39  C   UNL     1       5.316  17.961  21.001  0.00  0.00    +0.000 A 
ENDBRANCH  27  37
ENDBRANCH  26  30
ENDBRANCH   1  26
TORSDOF 7
ENDMDL
