MODEL 1
REMARK VINA RESULT:      -7.4      0.000      0.000
REMARK  Name = 
REMARK  1 active torsions:
REMARK  status: ('A' for Active; 'I' for Inactive)
REMARK    1  A    between atoms: C_13  and  C_14
REMARK                            x       y       z     vdW  Elec       q    Type
REMARK                         _______ _______ _______ _____ _____    ______ ____
ROOT
ATOM      1  O   UNL     1       3.401   6.825  18.281  0.00  0.00    +0.000 OA
ATOM      2  C   UNL     1       3.500   5.606  18.242  0.00  0.00    +0.000 C 
ATOM      3  C   UNL     1       2.821   4.707  19.246  0.00  0.00    +0.000 A 
ATOM      4  N   UNL     1       2.079   5.342  20.196  0.00  0.00    +0.000 NA
ATOM      5  C   UNL     1       1.473   4.577  21.129  0.00  0.00    +0.000 A 
ATOM      6  C   UNL     1       1.572   3.197  21.172  0.00  0.00    +0.000 A 
ATOM      7  C   UNL     1       2.326   2.553  20.193  0.00  0.00    +0.000 A 
ATOM      8  C   UNL     1       2.956   3.314  19.204  0.00  0.00    +0.000 A 
ATOM      9  C   UNL     1       3.743   2.642  18.135  0.00  0.00    +0.000 C 
ATOM     10  O   UNL     1       3.841   1.423  18.088  0.00  0.00    +0.000 OA
ATOM     11  C   UNL     1       4.355   3.526  17.197  0.00  0.00    +0.000 A 
ATOM     12  N   UNL     1       5.118   3.232  16.101  0.00  0.00    +0.000 N 
ATOM     13  C   UNL     1       5.503   4.424  15.540  0.00  0.00    +0.000 A 
ATOM     14  N   UNL     1       5.011   5.449  16.211  0.00  0.00    +0.000 NA
ATOM     15  C   UNL     1       4.273   4.897  17.233  0.00  0.00    +0.000 A 
ATOM     16  H   UNL     1       5.375   2.315  15.756  0.00  0.00    +0.000 HD
ENDROOT
BRANCH  13  17
ATOM     17  C   UNL     1       6.355   4.517  14.325  0.00  0.00    +0.000 A 
ATOM     18  C   UNL     1       6.127   3.759  13.196  0.00  0.00    +0.000 A 
ATOM     19  S   UNL     1       7.317   4.115  12.014  0.00  0.00    +0.000 S 
ATOM     20  C   UNL     1       8.029   5.237  13.102  0.00  0.00    +0.000 A 
ATOM     21  N   UNL     1       7.436   5.381  14.268  0.00  0.00    +0.000 NA
ENDBRANCH  13  17
TORSDOF 1
ENDMDL
MODEL 2
REMARK VINA RESULT:      -7.1      0.688      2.391
REMARK  Name = 
REMARK  1 active torsions:
REMARK  status: ('A' for Active; 'I' for Inactive)
REMARK    1  A    between atoms: C_13  and  C_14
REMARK                            x       y       z     vdW  Elec       q    Type
REMARK                         _______ _______ _______ _____ _____    ______ ____
ROOT
ATOM      1  O   UNL     1       3.788   1.596  17.974  0.00  0.00    +0.000 OA
ATOM      2  C   UNL     1       3.719   2.817  18.017  0.00  0.00    +0.000 C 
ATOM      3  C   UNL     1       2.946   3.547  19.088  0.00  0.00    +0.000 A 
ATOM      4  N   UNL     1       2.335   2.755  20.013  0.00  0.00    +0.000 NA
ATOM      5  C   UNL     1       1.613   3.365  20.976  0.00  0.00    +0.000 A 
ATOM      6  C   UNL     1       1.457   4.738  21.065  0.00  0.00    +0.000 A 
ATOM      7  C   UNL     1       2.091   5.542  20.120  0.00  0.00    +0.000 A 
ATOM      8  C   UNL     1       2.858   4.944  19.117  0.00  0.00    +0.000 A 
ATOM      9  C   UNL     1       3.564   5.787  18.115  0.00  0.00    +0.000 C 
ATOM     10  O   UNL     1       3.503   7.009  18.156  0.00  0.00    +0.000 OA
ATOM     11  C   UNL     1       4.296   5.060  17.130  0.00  0.00    +0.000 A 
ATOM     12  N   UNL     1       5.058   5.529  16.096  0.00  0.00    +0.000 N 
ATOM     13  C   UNL     1       5.530   4.439  15.409  0.00  0.00    +0.000 A 
ATOM     14  N   UNL     1       5.122   3.312  15.962  0.00  0.00    +0.000 NA
ATOM     15  C   UNL     1       4.372   3.690  17.052  0.00  0.00    +0.000 A 
ATOM     16  H   UNL     1       5.243   6.495  15.855  0.00  0.00    +0.000 HD
ENDROOT
BRANCH  13  17
ATOM     17  C   UNL     1       6.396   4.544  14.205  0.00  0.00    +0.000 A 
ATOM     18  C   UNL     1       6.188   3.789  13.069  0.00  0.00    +0.000 A 
ATOM     19  S   UNL     1       7.388   4.159  11.904  0.00  0.00    +0.000 S 
ATOM     20  C   UNL     1       8.078   5.282  13.005  0.00  0.00    +0.000 A 
ATOM     21  N   UNL     1       7.470   5.417  14.164  0.00  0.00    +0.000 NA
ENDBRANCH  13  17
TORSDOF 1
ENDMDL
MODEL 3
REMARK VINA RESULT:      -6.8      1.135      1.135
REMARK  Name = 
REMARK  1 active torsions:
REMARK  status: ('A' for Active; 'I' for Inactive)
REMARK    1  A    between atoms: C_13  and  C_14
REMARK                            x       y       z     vdW  Elec       q    Type
REMARK                         _______ _______ _______ _____ _____    ______ ____
ROOT
ATOM      1  O   UNL     1       5.298   5.504  19.737  0.00  0.00    +0.000 OA
ATOM      2  C   UNL     1       4.577   4.732  19.119  0.00  0.00    +0.000 C 
ATOM      3  C   UNL     1       3.384   4.058  19.752  0.00  0.00    +0.000 A 
ATOM      4  N   UNL     1       3.156   4.373  21.058  0.00  0.00    +0.000 NA
ATOM      5  C   UNL     1       2.113   3.775  21.671  0.00  0.00    +0.000 A 
ATOM      6  C   UNL     1       1.278   2.861  21.049  0.00  0.00    +0.000 A 
ATOM      7  C   UNL     1       1.513   2.549  19.711  0.00  0.00    +0.000 A 
ATOM      8  C   UNL     1       2.577   3.161  19.042  0.00  0.00    +0.000 A 
ATOM      9  C   UNL     1       2.826   2.861  17.606  0.00  0.00    +0.000 C 
ATOM     10  O   UNL     1       2.105   2.094  16.983  0.00  0.00    +0.000 OA
ATOM     11  C   UNL     1       3.952   3.530  17.042  0.00  0.00    +0.000 A 
ATOM     12  N   UNL     1       4.433   3.486  15.763  0.00  0.00    +0.000 N 
ATOM     13  C   UNL     1       5.556   4.275  15.721  0.00  0.00    +0.000 A 
ATOM     14  N   UNL     1       5.796   4.826  16.897  0.00  0.00    +0.000 NA
ATOM     15  C   UNL     1       4.786   4.386  17.720  0.00  0.00    +0.000 A 
ATOM     16  H   UNL     1       4.057   2.966  14.979  0.00  0.00    +0.000 HD
ENDROOT
BRANCH  13  17
ATOM     17  C   UNL     1       6.370   4.474  14.493  0.00  0.00    +0.000 A 
ATOM     18  C   UNL     1       6.146   3.768  13.329  0.00  0.00    +0.000 A 
ATOM     19  S   UNL     1       7.285   4.242  12.140  0.00  0.00    +0.000 S 
ATOM     20  C   UNL     1       7.976   5.335  13.270  0.00  0.00    +0.000 A 
ATOM     21  N   UNL     1       7.408   5.389  14.457  0.00  0.00    +0.000 NA
ENDBRANCH  13  17
TORSDOF 1
ENDMDL
MODEL 4
REMARK VINA RESULT:      -6.8      1.544      1.577
REMARK  Name = 
REMARK  1 active torsions:
REMARK  status: ('A' for Active; 'I' for Inactive)
REMARK    1  A    between atoms: C_13  and  C_14
REMARK                            x       y       z     vdW  Elec       q    Type
REMARK                         _______ _______ _______ _____ _____    ______ ____
ROOT
ATOM      1  O   UNL     1       1.213   4.236  17.080  0.00  0.00    +0.000 OA
ATOM      2  C   UNL     1       2.195   3.909  17.732  0.00  0.00    +0.000 C 
ATOM      3  C   UNL     1       2.097   3.453  19.167  0.00  0.00    +0.000 A 
ATOM      4  N   UNL     1       0.839   3.418  19.688  0.00  0.00    +0.000 NA
ATOM      5  C   UNL     1       0.707   3.038  20.976  0.00  0.00    +0.000 A 
ATOM      6  C   UNL     1       1.775   2.694  21.788  0.00  0.00    +0.000 A 
ATOM      7  C   UNL     1       3.059   2.724  21.246  0.00  0.00    +0.000 A 
ATOM      8  C   UNL     1       3.230   3.100  19.911  0.00  0.00    +0.000 A 
ATOM      9  C   UNL     1       4.590   3.112  19.308  0.00  0.00    +0.000 C 
ATOM     10  O   UNL     1       5.575   2.781  19.954  0.00  0.00    +0.000 OA
ATOM     11  C   UNL     1       4.637   3.533  17.946  0.00  0.00    +0.000 A 
ATOM     12  N   UNL     1       5.713   3.636  17.109  0.00  0.00    +0.000 N 
ATOM     13  C   UNL     1       5.252   4.119  15.909  0.00  0.00    +0.000 A 
ATOM     14  N   UNL     1       3.945   4.309  15.941  0.00  0.00    +0.000 NA
ATOM     15  C   UNL     1       3.550   3.922  17.200  0.00  0.00    +0.000 A 
ATOM     16  H   UNL     1       6.679   3.416  17.316  0.00  0.00    +0.000 HD
ENDROOT
BRANCH  13  17
ATOM     17  C   UNL     1       6.133   4.376  14.739  0.00  0.00    +0.000 A 
ATOM     18  C   UNL     1       5.946   3.762  13.518  0.00  0.00    +0.000 A 
ATOM     19  S   UNL     1       7.158   4.279  12.422  0.00  0.00    +0.000 S 
ATOM     20  C   UNL     1       7.824   5.265  13.660  0.00  0.00    +0.000 A 
ATOM     21  N   UNL     1       7.199   5.255  14.819  0.00  0.00    +0.000 NA
ENDBRANCH  13  17
TORSDOF 1
ENDMDL
MODEL 5
REMARK VINA RESULT:      -6.8      4.654      7.756
REMARK  Name = 
REMARK  1 active torsions:
REMARK  status: ('A' for Active; 'I' for Inactive)
REMARK    1  A    between atoms: C_13  and  C_14
REMARK                            x       y       z     vdW  Elec       q    Type
REMARK                         _______ _______ _______ _____ _____    ______ ____
ROOT
ATOM      1  O   UNL     1       1.732   4.261  21.149  0.00  0.00    +0.000 OA
ATOM      2  C   UNL     1       2.117   5.053  20.298  0.00  0.00    +0.000 C 
ATOM      3  C   UNL     1       2.966   4.629  19.125  0.00  0.00    +0.000 A 
ATOM      4  N   UNL     1       3.268   3.301  19.068  0.00  0.00    +0.000 NA
ATOM      5  C   UNL     1       4.045   2.882  18.047  0.00  0.00    +0.000 A 
ATOM      6  C   UNL     1       4.551   3.724  17.071  0.00  0.00    +0.000 A 
ATOM      7  C   UNL     1       4.231   5.079  17.131  0.00  0.00    +0.000 A 
ATOM      8  C   UNL     1       3.417   5.545  18.167  0.00  0.00    +0.000 A 
ATOM      9  C   UNL     1       3.043   6.984  18.233  0.00  0.00    +0.000 C 
ATOM     10  O   UNL     1       3.422   7.778  17.382  0.00  0.00    +0.000 OA
ATOM     11  C   UNL     1       2.228   7.340  19.347  0.00  0.00    +0.000 A 
ATOM     12  N   UNL     1       1.704   8.558  19.682  0.00  0.00    +0.000 N 
ATOM     13  C   UNL     1       1.019   8.397  20.861  0.00  0.00    +0.000 A 
ATOM     14  N   UNL     1       1.068   7.145  21.275  0.00  0.00    +0.000 NA
ATOM     15  C   UNL     1       1.800   6.473  20.324  0.00  0.00    +0.000 A 
ATOM     16  H   UNL     1       1.801   9.431  19.179  0.00  0.00    +0.000 HD
ENDROOT
BRANCH  13  17
ATOM     17  C   UNL     1       0.312   9.508  21.553  0.00  0.00    +0.000 A 
ATOM     18  C   UNL     1       0.275  10.793  21.052  0.00  0.00    +0.000 A 
ATOM     19  S   UNL     1      -0.603  11.802  22.123  0.00  0.00    +0.000 S 
ATOM     20  C   UNL     1      -0.853  10.452  23.154  0.00  0.00    +0.000 A 
ATOM     21  N   UNL     1      -0.351   9.305  22.751  0.00  0.00    +0.000 NA
ENDBRANCH  13  17
TORSDOF 1
ENDMDL
MODEL 6
REMARK VINA RESULT:      -6.7      4.714      7.415
REMARK  Name = 
REMARK  1 active torsions:
REMARK  status: ('A' for Active; 'I' for Inactive)
REMARK    1  A    between atoms: C_13  and  C_14
REMARK                            x       y       z     vdW  Elec       q    Type
REMARK                         _______ _______ _______ _____ _____    ______ ____
ROOT
ATOM      1  O   UNL     1       3.343   7.610  17.179  0.00  0.00    +0.000 OA
ATOM      2  C   UNL     1       3.047   6.874  18.111  0.00  0.00    +0.000 C 
ATOM      3  C   UNL     1       3.460   5.423  18.157  0.00  0.00    +0.000 A 
ATOM      4  N   UNL     1       4.194   4.987  17.094  0.00  0.00    +0.000 NA
ATOM      5  C   UNL     1       4.564   3.689  17.083  0.00  0.00    +0.000 A 
ATOM      6  C   UNL     1       4.233   2.787  18.081  0.00  0.00    +0.000 A 
ATOM      7  C   UNL     1       3.489   3.242  19.167  0.00  0.00    +0.000 A 
ATOM      8  C   UNL     1       3.100   4.584  19.218  0.00  0.00    +0.000 A 
ATOM      9  C   UNL     1       2.328   5.093  20.384  0.00  0.00    +0.000 C 
ATOM     10  O   UNL     1       2.034   4.362  21.320  0.00  0.00    +0.000 OA
ATOM     11  C   UNL     1       1.972   6.472  20.309  0.00  0.00    +0.000 A 
ATOM     12  N   UNL     1       1.289   7.240  21.211  0.00  0.00    +0.000 N 
ATOM     13  C   UNL     1       1.168   8.495  20.670  0.00  0.00    +0.000 A 
ATOM     14  N   UNL     1       1.751   8.564  19.487  0.00  0.00    +0.000 NA
ATOM     15  C   UNL     1       2.277   7.312  19.265  0.00  0.00    +0.000 A 
ATOM     16  H   UNL     1       0.921   6.954  22.110  0.00  0.00    +0.000 HD
ENDROOT
BRANCH  13  17
ATOM     17  C   UNL     1       0.473   9.617  21.356  0.00  0.00    +0.000 A 
ATOM     18  C   UNL     1      -0.312   9.433  22.475  0.00  0.00    +0.000 A 
ATOM     19  S   UNL     1      -0.965  10.937  22.972  0.00  0.00    +0.000 S 
ATOM     20  C   UNL     1      -0.154  11.697  21.663  0.00  0.00    +0.000 A 
ATOM     21  N   UNL     1       0.582  10.919  20.898  0.00  0.00    +0.000 NA
ENDBRANCH  13  17
TORSDOF 1
ENDMDL
MODEL 7
REMARK VINA RESULT:      -6.7      1.621      1.990
REMARK  Name = 
REMARK  1 active torsions:
REMARK  status: ('A' for Active; 'I' for Inactive)
REMARK    1  A    between atoms: C_13  and  C_14
REMARK                            x       y       z     vdW  Elec       q    Type
REMARK                         _______ _______ _______ _____ _____    ______ ____
ROOT
ATOM      1  O   UNL     1       5.658   3.023  19.918  0.00  0.00    +0.000 OA
ATOM      2  C   UNL     1       4.656   3.260  19.255  0.00  0.00    +0.000 C 
ATOM      3  C   UNL     1       3.267   3.200  19.841  0.00  0.00    +0.000 A 
ATOM      4  N   UNL     1       3.200   2.874  21.163  0.00  0.00    +0.000 NA
ATOM      5  C   UNL     1       1.975   2.786  21.722  0.00  0.00    +0.000 A 
ATOM      6  C   UNL     1       0.797   3.000  21.027  0.00  0.00    +0.000 A 
ATOM      7  C   UNL     1       0.873   3.340  19.678  0.00  0.00    +0.000 A 
ATOM      8  C   UNL     1       2.126   3.454  19.070  0.00  0.00    +0.000 A 
ATOM      9  C   UNL     1       2.228   3.842  17.637  0.00  0.00    +0.000 C 
ATOM     10  O   UNL     1       1.230   4.085  16.973  0.00  0.00    +0.000 OA
ATOM     11  C   UNL     1       3.558   3.903  17.127  0.00  0.00    +0.000 A 
ATOM     12  N   UNL     1       3.990   4.242  15.875  0.00  0.00    +0.000 N 
ATOM     13  C   UNL     1       5.357   4.116  15.866  0.00  0.00    +0.000 A 
ATOM     14  N   UNL     1       5.809   3.735  17.047  0.00  0.00    +0.000 NA
ATOM     15  C   UNL     1       4.695   3.624  17.847  0.00  0.00    +0.000 A 
ATOM     16  H   UNL     1       3.425   4.523  15.082  0.00  0.00    +0.000 HD
ENDROOT
BRANCH  13  17
ATOM     17  C   UNL     1       6.195   4.392  14.670  0.00  0.00    +0.000 A 
ATOM     18  C   UNL     1       5.978   3.780  13.452  0.00  0.00    +0.000 A 
ATOM     19  S   UNL     1       7.146   4.322  12.321  0.00  0.00    +0.000 S 
ATOM     20  C   UNL     1       7.836   5.313  13.541  0.00  0.00    +0.000 A 
ATOM     21  N   UNL     1       7.250   5.288  14.719  0.00  0.00    +0.000 NA
ENDBRANCH  13  17
TORSDOF 1
ENDMDL
MODEL 8
REMARK VINA RESULT:      -6.6      5.053      7.048
REMARK  Name = 
REMARK  1 active torsions:
REMARK  status: ('A' for Active; 'I' for Inactive)
REMARK    1  A    between atoms: C_13  and  C_14
REMARK                            x       y       z     vdW  Elec       q    Type
REMARK                         _______ _______ _______ _____ _____    ______ ____
ROOT
ATOM      1  O   UNL     1       1.859   9.828  17.412  0.00  0.00    +0.000 OA
ATOM      2  C   UNL     1       1.550   9.615  18.577  0.00  0.00    +0.000 C 
ATOM      3  C   UNL     1       0.794  10.620  19.409  0.00  0.00    +0.000 A 
ATOM      4  N   UNL     1       0.467  11.781  18.775  0.00  0.00    +0.000 NA
ATOM      5  C   UNL     1      -0.189  12.719  19.490  0.00  0.00    +0.000 A 
ATOM      6  C   UNL     1      -0.536  12.566  20.822  0.00  0.00    +0.000 A 
ATOM      7  C   UNL     1      -0.206  11.373  21.462  0.00  0.00    +0.000 A 
ATOM      8  C   UNL     1       0.462  10.375  20.747  0.00  0.00    +0.000 A 
ATOM      9  C   UNL     1       0.800   9.084  21.407  0.00  0.00    +0.000 C 
ATOM     10  O   UNL     1       0.489   8.865  22.570  0.00  0.00    +0.000 OA
ATOM     11  C   UNL     1       1.500   8.156  20.581  0.00  0.00    +0.000 A 
ATOM     12  N   UNL     1       1.932   6.892  20.874  0.00  0.00    +0.000 N 
ATOM     13  C   UNL     1       2.583   6.415  19.763  0.00  0.00    +0.000 A 
ATOM     14  N   UNL     1       2.568   7.301  18.784  0.00  0.00    +0.000 NA
ATOM     15  C   UNL     1       1.873   8.380  19.278  0.00  0.00    +0.000 A 
ATOM     16  H   UNL     1       1.818   6.387  21.744  0.00  0.00    +0.000 HD
ENDROOT
BRANCH  13  17
ATOM     17  C   UNL     1       3.205   5.066  19.697  0.00  0.00    +0.000 A 
ATOM     18  C   UNL     1       2.674   3.970  20.344  0.00  0.00    +0.000 A 
ATOM     19  S   UNL     1       3.666   2.601  20.063  0.00  0.00    +0.000 S 
ATOM     20  C   UNL     1       4.711   3.580  19.114  0.00  0.00    +0.000 A 
ATOM     21  N   UNL     1       4.364   4.842  18.974  0.00  0.00    +0.000 NA
ENDBRANCH  13  17
TORSDOF 1
ENDMDL
MODEL 9
REMARK VINA RESULT:      -6.6      4.885      7.242
REMARK  Name = 
REMARK  1 active torsions:
REMARK  status: ('A' for Active; 'I' for Inactive)
REMARK    1  A    between atoms: C_13  and  C_14
REMARK                            x       y       z     vdW  Elec       q    Type
REMARK                         _______ _______ _______ _____ _____    ______ ____
ROOT
ATOM      1  O   UNL     1       1.971   9.399  17.355  0.00  0.00    +0.000 OA
ATOM      2  C   UNL     1       1.664   9.333  18.538  0.00  0.00    +0.000 C 
ATOM      3  C   UNL     1       1.029  10.488  19.274  0.00  0.00    +0.000 A 
ATOM      4  N   UNL     1       0.811  11.609  18.531  0.00  0.00    +0.000 NA
ATOM      5  C   UNL     1       0.267  12.675  19.155  0.00  0.00    +0.000 A 
ATOM      6  C   UNL     1      -0.069  12.688  20.498  0.00  0.00    +0.000 A 
ATOM      7  C   UNL     1       0.150  11.536  21.250  0.00  0.00    +0.000 A 
ATOM      8  C   UNL     1       0.699  10.409  20.632  0.00  0.00    +0.000 A 
ATOM      9  C   UNL     1       0.915   9.161  21.413  0.00  0.00    +0.000 C 
ATOM     10  O   UNL     1       0.605   9.089  22.594  0.00  0.00    +0.000 OA
ATOM     11  C   UNL     1       1.501   8.089  20.677  0.00  0.00    +0.000 A 
ATOM     12  N   UNL     1       1.808   6.822  21.089  0.00  0.00    +0.000 N 
ATOM     13  C   UNL     1       2.386   6.175  20.026  0.00  0.00    +0.000 A 
ATOM     14  N   UNL     1       2.444   6.958  18.964  0.00  0.00    +0.000 NA
ATOM     15  C   UNL     1       1.871   8.146  19.355  0.00  0.00    +0.000 A 
ATOM     16  H   UNL     1       1.658   6.418  22.006  0.00  0.00    +0.000 HD
ENDROOT
BRANCH  13  17
ATOM     17  C   UNL     1       2.866   4.769  20.088  0.00  0.00    +0.000 A 
ATOM     18  C   UNL     1       3.824   4.271  19.229  0.00  0.00    +0.000 A 
ATOM     19  S   UNL     1       4.106   2.617  19.579  0.00  0.00    +0.000 S 
ATOM     20  C   UNL     1       2.935   2.706  20.833  0.00  0.00    +0.000 A 
ATOM     21  N   UNL     1       2.367   3.877  21.023  0.00  0.00    +0.000 NA
ENDBRANCH  13  17
TORSDOF 1
ENDMDL
