MODEL 1
REMARK VINA RESULT:      -8.4      0.000      0.000
REMARK  Name = 
REMARK  6 active torsions:
REMARK  status: ('A' for Active; 'I' for Inactive)
REMARK    1  A    between atoms: C_1  and  C_2
REMARK    2  A    between atoms: C_5  and  N_6
REMARK    3  A    between atoms: N_9  and  C_10
REMARK    4  A    between atoms: N_13  and  C_14
REMARK    5  A    between atoms: C_17  and  N_18
REMARK    6  A    between atoms: C_23  and  C_24
REMARK                            x       y       z     vdW  Elec       q    Type
REMARK                         _______ _______ _______ _____ _____    ______ ____
ROOT
ATOM      1  C   UNL     1       1.239   9.402  18.820  0.00  0.00    +0.000 A 
ATOM      2  C   UNL     1       2.059   9.283  17.680  0.00  0.00    +0.000 A 
ATOM      3  N   UNL     1       2.821   8.194  17.716  0.00  0.00    +0.000 NA
ATOM      4  N   UNL     1       2.387   7.507  18.801  0.00  0.00    +0.000 N 
ATOM      5  C   UNL     1       1.532   8.278  19.570  0.00  0.00    +0.000 A 
ENDROOT
BRANCH   1   9
ATOM      6  N   UNL     1      -1.609  11.612  19.096  0.00  0.00    +0.000 N 
ATOM      7  C   UNL     1      -0.888  10.546  18.590  0.00  0.00    +0.000 C 
ATOM      8  O   UNL     1      -1.300   9.779  17.727  0.00  0.00    +0.000 OA
ATOM      9  N   UNL     1       0.359  10.418  19.177  0.00  0.00    +0.000 N 
ATOM     10  H   UNL     1      -1.077  12.389  19.458  0.00  0.00    +0.000 HD
ATOM     11  H   UNL     1       0.564  10.965  20.005  0.00  0.00    +0.000 HD
BRANCH   6  16
ATOM     12  C   UNL     1      -7.166  12.620  18.074  0.00  0.00    +0.000 C 
ATOM     13  C   UNL     1      -5.716  12.342  18.329  0.00  0.00    +0.000 A 
ATOM     14  C   UNL     1      -4.916  11.782  17.339  0.00  0.00    +0.000 A 
ATOM     15  C   UNL     1      -3.561  11.529  17.586  0.00  0.00    +0.000 A 
ATOM     16  C   UNL     1      -2.979  11.843  18.822  0.00  0.00    +0.000 A 
ATOM     17  C   UNL     1      -3.787  12.381  19.824  0.00  0.00    +0.000 A 
ATOM     18  C   UNL     1      -5.138  12.632  19.566  0.00  0.00    +0.000 A 
ATOM     19  F   UNL     1      -5.889  13.171  20.539  0.00  0.00    +0.000 F 
ENDBRANCH   6  16
ENDBRANCH   1   9
BRANCH   4  20
ATOM     20  C   UNL     1       2.846   6.168  18.965  0.00  0.00    +0.000 A 
ATOM     21  C   UNL     1       1.954   5.108  18.717  0.00  0.00    +0.000 A 
ATOM     22  C   UNL     1       2.376   3.779  18.840  0.00  0.00    +0.000 A 
ATOM     23  C   UNL     1       3.687   3.510  19.246  0.00  0.00    +0.000 A 
ATOM     24  C   UNL     1       4.561   4.557  19.558  0.00  0.00    +0.000 A 
ATOM     25  C   UNL     1       4.134   5.882  19.427  0.00  0.00    +0.000 A 
BRANCH  23  26
ATOM     26  N   UNL     1       4.152   2.122  19.356  0.00  0.00    +0.000 N 
ATOM     27  O   UNL     1       4.956   1.853  20.259  0.00  0.00    +0.000 OA
ATOM     28  O   UNL     1       3.706   1.301  18.542  0.00  0.00    +0.000 OA
ENDBRANCH  23  26
ENDBRANCH   4  20
BRANCH   5  29
ATOM     29  C   UNL     1       1.153   7.939  20.943  0.00  0.00    +0.000 C 
ATOM     30  F   UNL     1       1.765   8.767  21.837  0.00  0.00    +0.000 F 
ATOM     31  F   UNL     1      -0.173   8.074  21.180  0.00  0.00    +0.000 F 
ATOM     32  F   UNL     1       1.507   6.678  21.285  0.00  0.00    +0.000 F 
ENDBRANCH   5  29
TORSDOF 5
ENDMDL
MODEL 2
REMARK VINA RESULT:      -8.4      0.847      1.754
REMARK  Name = 
REMARK  6 active torsions:
REMARK  status: ('A' for Active; 'I' for Inactive)
REMARK    1  A    between atoms: C_1  and  C_2
REMARK    2  A    between atoms: C_5  and  N_6
REMARK    3  A    between atoms: N_9  and  C_10
REMARK    4  A    between atoms: N_13  and  C_14
REMARK    5  A    between atoms: C_17  and  N_18
REMARK    6  A    between atoms: C_23  and  C_24
REMARK                            x       y       z     vdW  Elec       q    Type
REMARK                         _______ _______ _______ _____ _____    ______ ____
ROOT
ATOM      1  C   UNL     1       1.198   9.621  18.960  0.00  0.00    +0.000 A 
ATOM      2  C   UNL     1       1.930   9.515  17.761  0.00  0.00    +0.000 A 
ATOM      3  N   UNL     1       2.651   8.399  17.705  0.00  0.00    +0.000 NA
ATOM      4  N   UNL     1       2.268   7.689  18.795  0.00  0.00    +0.000 N 
ATOM      5  C   UNL     1       1.499   8.461  19.648  0.00  0.00    +0.000 A 
ENDROOT
BRANCH   1   9
ATOM      6  N   UNL     1      -1.575  11.848  19.610  0.00  0.00    +0.000 N 
ATOM      7  C   UNL     1      -0.943  10.758  19.039  0.00  0.00    +0.000 C 
ATOM      8  O   UNL     1      -1.490   9.954  18.292  0.00  0.00    +0.000 OA
ATOM      9  N   UNL     1       0.385  10.654  19.413  0.00  0.00    +0.000 N 
ATOM     10  H   UNL     1      -0.995  12.638  19.843  0.00  0.00    +0.000 HD
ATOM     11  H   UNL     1       0.722  11.237  20.171  0.00  0.00    +0.000 HD
BRANCH   6  16
ATOM     12  C   UNL     1      -7.249  12.664  19.318  0.00  0.00    +0.000 C 
ATOM     13  C   UNL     1      -5.766  12.467  19.404  0.00  0.00    +0.000 A 
ATOM     14  C   UNL     1      -5.060  12.876  20.531  0.00  0.00    +0.000 A 
ATOM     15  C   UNL     1      -3.676  12.684  20.604  0.00  0.00    +0.000 A 
ATOM     16  C   UNL     1      -2.973  12.069  19.559  0.00  0.00    +0.000 A 
ATOM     17  C   UNL     1      -3.677  11.682  18.418  0.00  0.00    +0.000 A 
ATOM     18  C   UNL     1      -5.059  11.875  18.355  0.00  0.00    +0.000 A 
ATOM     19  F   UNL     1      -5.717  11.475  17.256  0.00  0.00    +0.000 F 
ENDBRANCH   6  16
ENDBRANCH   1   9
BRANCH   4  20
ATOM     20  C   UNL     1       2.687   6.329  18.880  0.00  0.00    +0.000 A 
ATOM     21  C   UNL     1       3.999   6.046  19.306  0.00  0.00    +0.000 A 
ATOM     22  C   UNL     1       4.438   4.723  19.428  0.00  0.00    +0.000 A 
ATOM     23  C   UNL     1       3.570   3.678  19.092  0.00  0.00    +0.000 A 
ATOM     24  C   UNL     1       2.287   3.951  18.607  0.00  0.00    +0.000 A 
ATOM     25  C   UNL     1       1.853   5.275  18.491  0.00  0.00    +0.000 A 
BRANCH  23  26
ATOM     26  N   UNL     1       4.007   2.285  19.240  0.00  0.00    +0.000 N 
ATOM     27  O   UNL     1       3.576   1.456  18.427  0.00  0.00    +0.000 OA
ATOM     28  O   UNL     1       4.787   2.023  20.166  0.00  0.00    +0.000 OA
ENDBRANCH  23  26
ENDBRANCH   4  20
BRANCH   5  29
ATOM     29  C   UNL     1       1.206   8.085  21.033  0.00  0.00    +0.000 C 
ATOM     30  F   UNL     1      -0.122   8.230  21.307  0.00  0.00    +0.000 F 
ATOM     31  F   UNL     1       1.489   6.791  21.307  0.00  0.00    +0.000 F 
ATOM     32  F   UNL     1       1.868   8.851  21.932  0.00  0.00    +0.000 F 
ENDBRANCH   5  29
TORSDOF 5
ENDMDL
MODEL 3
REMARK VINA RESULT:      -8.3      0.496      1.025
REMARK  Name = 
REMARK  6 active torsions:
REMARK  status: ('A' for Active; 'I' for Inactive)
REMARK    1  A    between atoms: C_1  and  C_2
REMARK    2  A    between atoms: C_5  and  N_6
REMARK    3  A    between atoms: N_9  and  C_10
REMARK    4  A    between atoms: N_13  and  C_14
REMARK    5  A    between atoms: C_17  and  N_18
REMARK    6  A    between atoms: C_23  and  C_24
REMARK                            x       y       z     vdW  Elec       q    Type
REMARK                         _______ _______ _______ _____ _____    ______ ____
ROOT
ATOM      1  C   UNL     1       1.270   9.574  18.920  0.00  0.00    +0.000 A 
ATOM      2  C   UNL     1       2.047   9.476  17.748  0.00  0.00    +0.000 A 
ATOM      3  N   UNL     1       2.759   8.355  17.705  0.00  0.00    +0.000 NA
ATOM      4  N   UNL     1       2.329   7.635  18.771  0.00  0.00    +0.000 N 
ATOM      5  C   UNL     1       1.536   8.404  19.605  0.00  0.00    +0.000 A 
ENDROOT
BRANCH   1   9
ATOM      6  N   UNL     1      -1.511  11.809  19.507  0.00  0.00    +0.000 N 
ATOM      7  C   UNL     1      -0.869  10.718  18.950  0.00  0.00    +0.000 C 
ATOM      8  O   UNL     1      -1.400   9.917  18.190  0.00  0.00    +0.000 OA
ATOM      9  N   UNL     1       0.450  10.610  19.355  0.00  0.00    +0.000 N 
ATOM     10  H   UNL     1      -0.933  12.598  19.754  0.00  0.00    +0.000 HD
ATOM     11  H   UNL     1       0.771  11.191  20.121  0.00  0.00    +0.000 HD
BRANCH   6  16
ATOM     12  C   UNL     1      -7.158  12.801  19.254  0.00  0.00    +0.000 C 
ATOM     13  C   UNL     1      -5.686  12.526  19.310  0.00  0.00    +0.000 A 
ATOM     14  C   UNL     1      -5.037  11.913  18.243  0.00  0.00    +0.000 A 
ATOM     15  C   UNL     1      -3.661  11.664  18.303  0.00  0.00    +0.000 A 
ATOM     16  C   UNL     1      -2.906  12.034  19.424  0.00  0.00    +0.000 A 
ATOM     17  C   UNL     1      -3.561  12.626  20.505  0.00  0.00    +0.000 A 
ATOM     18  C   UNL     1      -4.934  12.873  20.434  0.00  0.00    +0.000 A 
ATOM     19  F   UNL     1      -5.537  13.463  21.478  0.00  0.00    +0.000 F 
ENDBRANCH   6  16
ENDBRANCH   1   9
BRANCH   4  20
ATOM     20  C   UNL     1       2.732   6.270  18.855  0.00  0.00    +0.000 A 
ATOM     21  C   UNL     1       4.008   5.968  19.367  0.00  0.00    +0.000 A 
ATOM     22  C   UNL     1       4.429   4.639  19.491  0.00  0.00    +0.000 A 
ATOM     23  C   UNL     1       3.582   3.608  19.070  0.00  0.00    +0.000 A 
ATOM     24  C   UNL     1       2.339   3.902  18.500  0.00  0.00    +0.000 A 
ATOM     25  C   UNL     1       1.922   5.232  18.384  0.00  0.00    +0.000 A 
BRANCH  23  26
ATOM     26  N   UNL     1       3.998   2.208  19.217  0.00  0.00    +0.000 N 
ATOM     27  O   UNL     1       4.814   1.940  20.109  0.00  0.00    +0.000 OA
ATOM     28  O   UNL     1       3.501   1.378  18.443  0.00  0.00    +0.000 OA
ENDBRANCH  23  26
ENDBRANCH   4  20
BRANCH   5  29
ATOM     29  C   UNL     1       1.187   8.014  20.973  0.00  0.00    +0.000 C 
ATOM     30  F   UNL     1       1.869   8.766  21.883  0.00  0.00    +0.000 F 
ATOM     31  F   UNL     1      -0.122   8.200  21.264  0.00  0.00    +0.000 F 
ATOM     32  F   UNL     1       1.489   6.722  21.240  0.00  0.00    +0.000 F 
ENDBRANCH   5  29
TORSDOF 5
ENDMDL
MODEL 4
REMARK VINA RESULT:      -8.3      0.828      1.331
REMARK  Name = 
REMARK  6 active torsions:
REMARK  status: ('A' for Active; 'I' for Inactive)
REMARK    1  A    between atoms: C_1  and  C_2
REMARK    2  A    between atoms: C_5  and  N_6
REMARK    3  A    between atoms: N_9  and  C_10
REMARK    4  A    between atoms: N_13  and  C_14
REMARK    5  A    between atoms: C_17  and  N_18
REMARK    6  A    between atoms: C_23  and  C_24
REMARK                            x       y       z     vdW  Elec       q    Type
REMARK                         _______ _______ _______ _____ _____    ______ ____
ROOT
ATOM      1  C   UNL     1       1.263   9.534  18.924  0.00  0.00    +0.000 A 
ATOM      2  C   UNL     1       2.040   9.425  17.753  0.00  0.00    +0.000 A 
ATOM      3  N   UNL     1       2.770   8.314  17.732  0.00  0.00    +0.000 NA
ATOM      4  N   UNL     1       2.353   7.609  18.812  0.00  0.00    +0.000 N 
ATOM      5  C   UNL     1       1.548   8.381  19.631  0.00  0.00    +0.000 A 
ENDROOT
BRANCH   1   9
ATOM      6  N   UNL     1      -1.539  11.761  19.434  0.00  0.00    +0.000 N 
ATOM      7  C   UNL     1      -0.877  10.676  18.889  0.00  0.00    +0.000 C 
ATOM      8  O   UNL     1      -1.380   9.881  18.103  0.00  0.00    +0.000 OA
ATOM      9  N   UNL     1       0.427  10.565  19.340  0.00  0.00    +0.000 N 
ATOM     10  H   UNL     1      -0.972  12.547  19.709  0.00  0.00    +0.000 HD
ATOM     11  H   UNL     1       0.720  11.138  20.122  0.00  0.00    +0.000 HD
BRANCH   6  16
ATOM     12  C   UNL     1      -7.184  12.594  18.817  0.00  0.00    +0.000 C 
ATOM     13  C   UNL     1      -5.710  12.392  18.989  0.00  0.00    +0.000 A 
ATOM     14  C   UNL     1      -5.072  12.780  20.163  0.00  0.00    +0.000 A 
ATOM     15  C   UNL     1      -3.694  12.584  20.315  0.00  0.00    +0.000 A 
ATOM     16  C   UNL     1      -2.931  11.985  19.303  0.00  0.00    +0.000 A 
ATOM     17  C   UNL     1      -3.566  11.619  18.116  0.00  0.00    +0.000 A 
ATOM     18  C   UNL     1      -4.942  11.817  17.974  0.00  0.00    +0.000 A 
ATOM     19  F   UNL     1      -5.533  11.436  16.831  0.00  0.00    +0.000 F 
ENDBRANCH   6  16
ENDBRANCH   1   9
BRANCH   4  20
ATOM     20  C   UNL     1       2.778   6.253  18.922  0.00  0.00    +0.000 A 
ATOM     21  C   UNL     1       1.877   5.227  18.576  0.00  0.00    +0.000 A 
ATOM     22  C   UNL     1       2.266   3.885  18.645  0.00  0.00    +0.000 A 
ATOM     23  C   UNL     1       3.552   3.565  19.093  0.00  0.00    +0.000 A 
ATOM     24  C   UNL     1       4.432   4.574  19.501  0.00  0.00    +0.000 A 
ATOM     25  C   UNL     1       4.038   5.914  19.424  0.00  0.00    +0.000 A 
BRANCH  23  26
ATOM     26  N   UNL     1       3.985   2.163  19.147  0.00  0.00    +0.000 N 
ATOM     27  O   UNL     1       3.537   1.389  18.291  0.00  0.00    +0.000 OA
ATOM     28  O   UNL     1       4.780   1.842  20.041  0.00  0.00    +0.000 OA
ENDBRANCH  23  26
ENDBRANCH   4  20
BRANCH   5  29
ATOM     29  C   UNL     1       1.207   8.014  21.007  0.00  0.00    +0.000 C 
ATOM     30  F   UNL     1       1.860   8.809  21.901  0.00  0.00    +0.000 F 
ATOM     31  F   UNL     1      -0.108   8.163  21.290  0.00  0.00    +0.000 F 
ATOM     32  F   UNL     1       1.551   6.739  21.306  0.00  0.00    +0.000 F 
ENDBRANCH   5  29
TORSDOF 5
ENDMDL
MODEL 5
REMARK VINA RESULT:      -8.1      1.019      1.500
REMARK  Name = 
REMARK  6 active torsions:
REMARK  status: ('A' for Active; 'I' for Inactive)
REMARK    1  A    between atoms: C_1  and  C_2
REMARK    2  A    between atoms: C_5  and  N_6
REMARK    3  A    between atoms: N_9  and  C_10
REMARK    4  A    between atoms: N_13  and  C_14
REMARK    5  A    between atoms: C_17  and  N_18
REMARK    6  A    between atoms: C_23  and  C_24
REMARK                            x       y       z     vdW  Elec       q    Type
REMARK                         _______ _______ _______ _____ _____    ______ ____
ROOT
ATOM      1  C   UNL     1       1.254   9.853  18.984  0.00  0.00    +0.000 A 
ATOM      2  C   UNL     1       1.972   9.762  17.775  0.00  0.00    +0.000 A 
ATOM      3  N   UNL     1       2.635   8.615  17.665  0.00  0.00    +0.000 NA
ATOM      4  N   UNL     1       2.224   7.879  18.727  0.00  0.00    +0.000 N 
ATOM      5  C   UNL     1       1.502   8.652  19.620  0.00  0.00    +0.000 A 
ENDROOT
BRANCH   1   9
ATOM      6  N   UNL     1      -1.439  12.069  19.938  0.00  0.00    +0.000 N 
ATOM      7  C   UNL     1      -0.880  10.946  19.356  0.00  0.00    +0.000 C 
ATOM      8  O   UNL     1      -1.521  10.065  18.794  0.00  0.00    +0.000 OA
ATOM      9  N   UNL     1       0.497  10.906  19.488  0.00  0.00    +0.000 N 
ATOM     10  H   UNL     1      -0.857  12.890  19.991  0.00  0.00    +0.000 HD
ATOM     11  H   UNL     1       0.944  11.563  20.118  0.00  0.00    +0.000 HD
BRANCH   6  16
ATOM     12  C   UNL     1      -7.057  12.874  20.797  0.00  0.00    +0.000 C 
ATOM     13  C   UNL     1      -5.594  12.651  20.559  0.00  0.00    +0.000 A 
ATOM     14  C   UNL     1      -5.122  12.333  19.290  0.00  0.00    +0.000 A 
ATOM     15  C   UNL     1      -3.753  12.130  19.077  0.00  0.00    +0.000 A 
ATOM     16  C   UNL     1      -2.831  12.254  20.125  0.00  0.00    +0.000 A 
ATOM     17  C   UNL     1      -3.307  12.548  21.403  0.00  0.00    +0.000 A 
ATOM     18  C   UNL     1      -4.675  12.751  21.605  0.00  0.00    +0.000 A 
ATOM     19  F   UNL     1      -5.105  13.054  22.839  0.00  0.00    +0.000 F 
ENDBRANCH   6  16
ENDBRANCH   1   9
BRANCH   4  20
ATOM     20  C   UNL     1       2.574   6.497  18.751  0.00  0.00    +0.000 A 
ATOM     21  C   UNL     1       1.705   5.565  18.154  0.00  0.00    +0.000 A 
ATOM     22  C   UNL     1       2.027   4.203  18.133  0.00  0.00    +0.000 A 
ATOM     23  C   UNL     1       3.209   3.768  18.741  0.00  0.00    +0.000 A 
ATOM     24  C   UNL     1       4.047   4.679  19.393  0.00  0.00    +0.000 A 
ATOM     25  C   UNL     1       3.722   6.039  19.406  0.00  0.00    +0.000 A 
BRANCH  23  26
ATOM     26  N   UNL     1       3.574   2.347  18.705  0.00  0.00    +0.000 N 
ATOM     27  O   UNL     1       3.166   1.670  17.752  0.00  0.00    +0.000 OA
ATOM     28  O   UNL     1       4.277   1.911  19.628  0.00  0.00    +0.000 OA
ENDBRANCH  23  26
ENDBRANCH   4  20
BRANCH   5  29
ATOM     29  C   UNL     1       1.200   8.233  20.990  0.00  0.00    +0.000 C 
ATOM     30  F   UNL     1      -0.130   8.369  21.260  0.00  0.00    +0.000 F 
ATOM     31  F   UNL     1       1.481   6.930  21.225  0.00  0.00    +0.000 F 
ATOM     32  F   UNL     1       1.856   8.970  21.917  0.00  0.00    +0.000 F 
ENDBRANCH   5  29
TORSDOF 5
ENDMDL
MODEL 6
REMARK VINA RESULT:      -8.1      1.253      1.829
REMARK  Name = 
REMARK  6 active torsions:
REMARK  status: ('A' for Active; 'I' for Inactive)
REMARK    1  A    between atoms: C_1  and  C_2
REMARK    2  A    between atoms: C_5  and  N_6
REMARK    3  A    between atoms: N_9  and  C_10
REMARK    4  A    between atoms: N_13  and  C_14
REMARK    5  A    between atoms: C_17  and  N_18
REMARK    6  A    between atoms: C_23  and  C_24
REMARK                            x       y       z     vdW  Elec       q    Type
REMARK                         _______ _______ _______ _____ _____    ______ ____
ROOT
ATOM      1  C   UNL     1       1.008   9.832  18.889  0.00  0.00    +0.000 A 
ATOM      2  C   UNL     1       1.820   9.463  17.799  0.00  0.00    +0.000 A 
ATOM      3  N   UNL     1       2.516   8.356  18.038  0.00  0.00    +0.000 NA
ATOM      4  N   UNL     1       2.042   7.902  19.224  0.00  0.00    +0.000 N 
ATOM      5  C   UNL     1       1.234   8.847  19.833  0.00  0.00    +0.000 A 
ENDROOT
BRANCH   1   9
ATOM      6  N   UNL     1      -1.813  12.078  19.156  0.00  0.00    +0.000 N 
ATOM      7  C   UNL     1      -1.188  10.861  18.952  0.00  0.00    +0.000 C 
ATOM      8  O   UNL     1      -1.776   9.810  18.725  0.00  0.00    +0.000 OA
ATOM      9  N   UNL     1       0.190  10.946  19.048  0.00  0.00    +0.000 N 
ATOM     10  H   UNL     1      -1.284  12.904  18.923  0.00  0.00    +0.000 HD
ATOM     11  H   UNL     1       0.599  11.796  19.418  0.00  0.00    +0.000 HD
BRANCH   6  16
ATOM     12  C   UNL     1      -7.499  12.629  19.714  0.00  0.00    +0.000 C 
ATOM     13  C   UNL     1      -6.012  12.501  19.579  0.00  0.00    +0.000 A 
ATOM     14  C   UNL     1      -5.169  12.887  20.616  0.00  0.00    +0.000 A 
ATOM     15  C   UNL     1      -3.781  12.760  20.481  0.00  0.00    +0.000 A 
ATOM     16  C   UNL     1      -3.211  12.232  19.315  0.00  0.00    +0.000 A 
ATOM     17  C   UNL     1      -4.055  11.868  18.265  0.00  0.00    +0.000 A 
ATOM     18  C   UNL     1      -5.439  11.996  18.409  0.00  0.00    +0.000 A 
ATOM     19  F   UNL     1      -6.230  11.619  17.393  0.00  0.00    +0.000 F 
ENDBRANCH   6  16
ENDBRANCH   1   9
BRANCH   4  20
ATOM     20  C   UNL     1       2.422   6.590  19.632  0.00  0.00    +0.000 A 
ATOM     21  C   UNL     1       3.674   6.089  19.229  0.00  0.00    +0.000 A 
ATOM     22  C   UNL     1       4.094   4.816  19.632  0.00  0.00    +0.000 A 
ATOM     23  C   UNL     1       3.243   4.028  20.414  0.00  0.00    +0.000 A 
ATOM     24  C   UNL     1       1.971   4.492  20.764  0.00  0.00    +0.000 A 
ATOM     25  C   UNL     1       1.560   5.767  20.362  0.00  0.00    +0.000 A 
BRANCH  23  26
ATOM     26  N   UNL     1       3.679   2.701  20.866  0.00  0.00    +0.000 N 
ATOM     27  O   UNL     1       4.604   2.156  20.248  0.00  0.00    +0.000 OA
ATOM     28  O   UNL     1       3.100   2.209  21.845  0.00  0.00    +0.000 OA
ENDBRANCH  23  26
ENDBRANCH   4  20
BRANCH   5  29
ATOM     29  C   UNL     1       0.837   8.784  21.241  0.00  0.00    +0.000 C 
ATOM     30  F   UNL     1       1.844   8.282  22.010  0.00  0.00    +0.000 F 
ATOM     31  F   UNL     1       0.552   9.996  21.770  0.00  0.00    +0.000 F 
ATOM     32  F   UNL     1      -0.236   7.983  21.443  0.00  0.00    +0.000 F 
ENDBRANCH   5  29
TORSDOF 5
ENDMDL
MODEL 7
REMARK VINA RESULT:      -8.0      3.114      3.895
REMARK  Name = 
REMARK  6 active torsions:
REMARK  status: ('A' for Active; 'I' for Inactive)
REMARK    1  A    between atoms: C_1  and  C_2
REMARK    2  A    between atoms: C_5  and  N_6
REMARK    3  A    between atoms: N_9  and  C_10
REMARK    4  A    between atoms: N_13  and  C_14
REMARK    5  A    between atoms: C_17  and  N_18
REMARK    6  A    between atoms: C_23  and  C_24
REMARK                            x       y       z     vdW  Elec       q    Type
REMARK                         _______ _______ _______ _____ _____    ______ ____
ROOT
ATOM      1  C   UNL     1       1.224   9.513  18.958  0.00  0.00    +0.000 A 
ATOM      2  C   UNL     1       1.952   9.409  17.756  0.00  0.00    +0.000 A 
ATOM      3  N   UNL     1       2.672   8.293  17.695  0.00  0.00    +0.000 NA
ATOM      4  N   UNL     1       2.293   7.581  18.786  0.00  0.00    +0.000 N 
ATOM      5  C   UNL     1       1.529   8.352  19.644  0.00  0.00    +0.000 A 
ENDROOT
BRANCH   1   9
ATOM      6  N   UNL     1      -0.099  12.725  19.962  0.00  0.00    +0.000 N 
ATOM      7  C   UNL     1       0.867  11.852  19.495  0.00  0.00    +0.000 C 
ATOM      8  O   UNL     1       1.999  12.184  19.165  0.00  0.00    +0.000 OA
ATOM      9  N   UNL     1       0.414  10.546  19.417  0.00  0.00    +0.000 N 
ATOM     10  H   UNL     1      -0.803  12.338  20.572  0.00  0.00    +0.000 HD
ATOM     11  H   UNL     1      -0.578  10.370  19.525  0.00  0.00    +0.000 HD
BRANCH   6  16
ATOM     12  C   UNL     1       0.360  18.443  19.800  0.00  0.00    +0.000 C 
ATOM     13  C   UNL     1       0.256  16.950  19.854  0.00  0.00    +0.000 A 
ATOM     14  C   UNL     1       0.650  16.250  20.990  0.00  0.00    +0.000 A 
ATOM     15  C   UNL     1       0.545  14.855  21.031  0.00  0.00    +0.000 A 
ATOM     16  C   UNL     1       0.033  14.134  19.944  0.00  0.00    +0.000 A 
ATOM     17  C   UNL     1      -0.339  14.833  18.795  0.00  0.00    +0.000 A 
ATOM     18  C   UNL     1      -0.233  16.226  18.764  0.00  0.00    +0.000 A 
ATOM     19  F   UNL     1      -0.618  16.876  17.656  0.00  0.00    +0.000 F 
ENDBRANCH   6  16
ENDBRANCH   1   9
BRANCH   4  20
ATOM     20  C   UNL     1       2.712   6.221  18.867  0.00  0.00    +0.000 A 
ATOM     21  C   UNL     1       4.012   5.935  19.325  0.00  0.00    +0.000 A 
ATOM     22  C   UNL     1       4.450   4.612  19.445  0.00  0.00    +0.000 A 
ATOM     23  C   UNL     1       3.594   3.569  19.074  0.00  0.00    +0.000 A 
ATOM     24  C   UNL     1       2.324   3.845  18.557  0.00  0.00    +0.000 A 
ATOM     25  C   UNL     1       1.891   5.171  18.445  0.00  0.00    +0.000 A 
BRANCH  23  26
ATOM     26  N   UNL     1       4.028   2.174  19.218  0.00  0.00    +0.000 N 
ATOM     27  O   UNL     1       3.578   1.344  18.417  0.00  0.00    +0.000 OA
ATOM     28  O   UNL     1       4.827   1.913  20.128  0.00  0.00    +0.000 OA
ENDBRANCH  23  26
ENDBRANCH   4  20
BRANCH   5  29
ATOM     29  C   UNL     1       1.241   7.975  21.029  0.00  0.00    +0.000 C 
ATOM     30  F   UNL     1      -0.092   8.077  21.296  0.00  0.00    +0.000 F 
ATOM     31  F   UNL     1       1.566   6.692  21.312  0.00  0.00    +0.000 F 
ATOM     32  F   UNL     1       1.873   8.767  21.927  0.00  0.00    +0.000 F 
ENDBRANCH   5  29
TORSDOF 5
ENDMDL
MODEL 8
REMARK VINA RESULT:      -7.9      4.087      9.989
REMARK  Name = 
REMARK  6 active torsions:
REMARK  status: ('A' for Active; 'I' for Inactive)
REMARK    1  A    between atoms: C_1  and  C_2
REMARK    2  A    between atoms: C_5  and  N_6
REMARK    3  A    between atoms: N_9  and  C_10
REMARK    4  A    between atoms: N_13  and  C_14
REMARK    5  A    between atoms: C_17  and  N_18
REMARK    6  A    between atoms: C_23  and  C_24
REMARK                            x       y       z     vdW  Elec       q    Type
REMARK                         _______ _______ _______ _____ _____    ______ ____
ROOT
ATOM      1  C   UNL     1       0.811   9.748  21.158  0.00  0.00    +0.000 A 
ATOM      2  C   UNL     1       0.733   9.386  22.517  0.00  0.00    +0.000 A 
ATOM      3  N   UNL     1       0.122  10.309  23.253  0.00  0.00    +0.000 NA
ATOM      4  N   UNL     1      -0.349  11.208  22.354  0.00  0.00    +0.000 N 
ATOM      5  C   UNL     1       0.174  10.973  21.094  0.00  0.00    +0.000 A 
ENDROOT
BRANCH   1   9
ATOM      6  N   UNL     1       2.343   7.280  19.006  0.00  0.00    +0.000 N 
ATOM      7  C   UNL     1       1.761   7.747  20.171  0.00  0.00    +0.000 C 
ATOM      8  O   UNL     1       1.550   7.059  21.163  0.00  0.00    +0.000 OA
ATOM      9  N   UNL     1       1.420   9.086  20.097  0.00  0.00    +0.000 N 
ATOM     10  H   UNL     1       2.837   7.954  18.443  0.00  0.00    +0.000 HD
ATOM     11  H   UNL     1       1.450   9.545  19.194  0.00  0.00    +0.000 HD
BRANCH   6  16
ATOM     12  C   UNL     1       3.439   1.732  18.025  0.00  0.00    +0.000 C 
ATOM     13  C   UNL     1       3.145   3.182  18.264  0.00  0.00    +0.000 A 
ATOM     14  C   UNL     1       2.038   3.787  17.679  0.00  0.00    +0.000 A 
ATOM     15  C   UNL     1       1.770   5.142  17.911  0.00  0.00    +0.000 A 
ATOM     16  C   UNL     1       2.596   5.912  18.741  0.00  0.00    +0.000 A 
ATOM     17  C   UNL     1       3.721   5.311  19.307  0.00  0.00    +0.000 A 
ATOM     18  C   UNL     1       3.978   3.958  19.072  0.00  0.00    +0.000 A 
ATOM     19  F   UNL     1       5.055   3.398  19.645  0.00  0.00    +0.000 F 
ENDBRANCH   6  16
ENDBRANCH   1   9
BRANCH   4  20
ATOM     20  C   UNL     1      -1.267  12.193  22.821  0.00  0.00    +0.000 A 
ATOM     21  C   UNL     1      -2.596  11.812  23.089  0.00  0.00    +0.000 A 
ATOM     22  C   UNL     1      -3.519  12.745  23.575  0.00  0.00    +0.000 A 
ATOM     23  C   UNL     1      -3.120  14.073  23.762  0.00  0.00    +0.000 A 
ATOM     24  C   UNL     1      -1.820  14.474  23.437  0.00  0.00    +0.000 A 
ATOM     25  C   UNL     1      -0.901  13.536  22.957  0.00  0.00    +0.000 A 
BRANCH  23  26
ATOM     26  N   UNL     1      -4.069  15.058  24.295  0.00  0.00    +0.000 N 
ATOM     27  O   UNL     1      -3.684  15.788  25.218  0.00  0.00    +0.000 OA
ATOM     28  O   UNL     1      -5.197  15.103  23.784  0.00  0.00    +0.000 OA
ENDBRANCH  23  26
ENDBRANCH   4  20
BRANCH   5  29
ATOM     29  C   UNL     1       0.107  11.943  19.998  0.00  0.00    +0.000 C 
ATOM     30  F   UNL     1      -1.179  12.336  19.772  0.00  0.00    +0.000 F 
ATOM     31  F   UNL     1       0.790  13.083  20.252  0.00  0.00    +0.000 F 
ATOM     32  F   UNL     1       0.565  11.439  18.828  0.00  0.00    +0.000 F 
ENDBRANCH   5  29
TORSDOF 5
ENDMDL
MODEL 9
REMARK VINA RESULT:      -7.8      3.323      9.487
REMARK  Name = 
REMARK  6 active torsions:
REMARK  status: ('A' for Active; 'I' for Inactive)
REMARK    1  A    between atoms: C_1  and  C_2
REMARK    2  A    between atoms: C_5  and  N_6
REMARK    3  A    between atoms: N_9  and  C_10
REMARK    4  A    between atoms: N_13  and  C_14
REMARK    5  A    between atoms: C_17  and  N_18
REMARK    6  A    between atoms: C_23  and  C_24
REMARK                            x       y       z     vdW  Elec       q    Type
REMARK                         _______ _______ _______ _____ _____    ______ ____
ROOT
ATOM      1  C   UNL     1       1.086  10.931  19.070  0.00  0.00    +0.000 A 
ATOM      2  C   UNL     1       1.556  11.913  19.964  0.00  0.00    +0.000 A 
ATOM      3  N   UNL     1       0.567  12.594  20.534  0.00  0.00    +0.000 NA
ATOM      4  N   UNL     1      -0.561  11.954  20.140  0.00  0.00    +0.000 N 
ATOM      5  C   UNL     1      -0.290  11.035  19.141  0.00  0.00    +0.000 A 
ENDROOT
BRANCH   1   9
ATOM      6  N   UNL     1       2.799   8.076  17.660  0.00  0.00    +0.000 N 
ATOM      7  C   UNL     1       2.094   8.770  18.627  0.00  0.00    +0.000 C 
ATOM      8  O   UNL     1       1.746   8.296  19.703  0.00  0.00    +0.000 OA
ATOM      9  N   UNL     1       1.800  10.067  18.246  0.00  0.00    +0.000 N 
ATOM     10  H   UNL     1       3.376   8.623  17.040  0.00  0.00    +0.000 HD
ATOM     11  H   UNL     1       1.951  10.335  17.281  0.00  0.00    +0.000 HD
BRANCH   6  16
ATOM     12  C   UNL     1       3.685   2.408  17.820  0.00  0.00    +0.000 C 
ATOM     13  C   UNL     1       3.470   3.890  17.788  0.00  0.00    +0.000 A 
ATOM     14  C   UNL     1       4.549   4.762  17.682  0.00  0.00    +0.000 A 
ATOM     15  C   UNL     1       4.338   6.145  17.648  0.00  0.00    +0.000 A 
ATOM     16  C   UNL     1       3.045   6.682  17.707  0.00  0.00    +0.000 A 
ATOM     17  C   UNL     1       1.964   5.809  17.838  0.00  0.00    +0.000 A 
ATOM     18  C   UNL     1       2.185   4.430  17.868  0.00  0.00    +0.000 A 
ATOM     19  F   UNL     1       1.128   3.611  17.974  0.00  0.00    +0.000 F 
ENDBRANCH   6  16
ENDBRANCH   1   9
BRANCH   4  20
ATOM     20  C   UNL     1      -1.782  12.303  20.789  0.00  0.00    +0.000 A 
ATOM     21  C   UNL     1      -1.952  11.964  22.145  0.00  0.00    +0.000 A 
ATOM     22  C   UNL     1      -3.125  12.313  22.824  0.00  0.00    +0.000 A 
ATOM     23  C   UNL     1      -4.146  12.976  22.134  0.00  0.00    +0.000 A 
ATOM     24  C   UNL     1      -4.012  13.259  20.771  0.00  0.00    +0.000 A 
ATOM     25  C   UNL     1      -2.835  12.912  20.100  0.00  0.00    +0.000 A 
BRANCH  23  26
ATOM     26  N   UNL     1      -5.371  13.372  22.838  0.00  0.00    +0.000 N 
ATOM     27  O   UNL     1      -5.830  12.591  23.683  0.00  0.00    +0.000 OA
ATOM     28  O   UNL     1      -5.869  14.470  22.550  0.00  0.00    +0.000 OA
ENDBRANCH  23  26
ENDBRANCH   4  20
BRANCH   5  29
ATOM     29  C   UNL     1      -1.325  10.425  18.302  0.00  0.00    +0.000 C 
ATOM     30  F   UNL     1      -0.773   9.590  17.378  0.00  0.00    +0.000 F 
ATOM     31  F   UNL     1      -2.196   9.661  19.001  0.00  0.00    +0.000 F 
ATOM     32  F   UNL     1      -2.042  11.342  17.611  0.00  0.00    +0.000 F 
ENDBRANCH   5  29
TORSDOF 5
ENDMDL
