MODEL 1
REMARK VINA RESULT:      -6.4      0.000      0.000
REMARK  Name = 
REMARK  8 active torsions:
REMARK  status: ('A' for Active; 'I' for Inactive)
REMARK    1  A    between atoms: C_2  and  C_3
REMARK    2  A    between atoms: C_2  and  C_15
REMARK    3  A    between atoms: C_3  and  C_4
REMARK    4  A    between atoms: C_4  and  C_5
REMARK    5  A    between atoms: C_5  and  C_6
REMARK    6  A    between atoms: C_6  and  C_7
REMARK    7  A    between atoms: C_7  and  C_8
REMARK    8  A    between atoms: C_8  and  C_9
REMARK                            x       y       z     vdW  Elec       q    Type
REMARK                         _______ _______ _______ _____ _____    ______ ____
ROOT
ATOM      1  C   UNL     1       3.662   5.612  17.852  0.00  0.00    +0.000 C 
ENDROOT
BRANCH   1   2
ATOM      2  C   UNL     1       5.168   5.856  17.808  0.00  0.00    +0.000 C 
BRANCH   2   3
ATOM      3  C   UNL     1       5.677   6.162  16.399  0.00  0.00    +0.000 C 
BRANCH   3   5
ATOM      4  O   UNL     1       7.643   4.883  16.924  0.00  0.00    +0.000 OA
ATOM      5  C   UNL     1       6.876   5.288  16.045  0.00  0.00    +0.000 C 
BRANCH   5   6
ATOM      6  C   UNL     1       7.030   4.967  14.632  0.00  0.00    +0.000 A 
ATOM      7  N   UNL     1       7.925   5.533  13.845  0.00  0.00    +0.000 NA
ATOM      8  C   UNL     1       7.773   5.049  12.558  0.00  0.00    +0.000 A 
ATOM      9  C   UNL     1       6.767   4.124  12.384  0.00  0.00    +0.000 A 
ATOM     10  S   UNL     1       5.998   3.817  13.883  0.00  0.00    +0.000 S 
ENDBRANCH   5   6
ENDBRANCH   3   5
ENDBRANCH   2   3
ENDBRANCH   1   2
BRANCH   1  11
ATOM     11  C   UNL     1       3.300   4.382  17.017  0.00  0.00    +0.000 C 
BRANCH  11  12
ATOM     12  C   UNL     1       4.197   3.192  17.347  0.00  0.00    +0.000 C 
BRANCH  12  13
ATOM     13  C   UNL     1       3.377   2.011  17.873  0.00  0.00    +0.000 C 
BRANCH  13  14
ATOM     14  C   UNL     1       2.645   2.371  19.140  0.00  0.00    +0.000 A 
ATOM     15  C   UNL     1       1.279   2.686  19.107  0.00  0.00    +0.000 A 
ATOM     16  C   UNL     1       0.611   3.057  20.275  0.00  0.00    +0.000 A 
ATOM     17  C   UNL     1       1.302   3.117  21.484  0.00  0.00    +0.000 A 
ATOM     18  C   UNL     1       2.660   2.806  21.528  0.00  0.00    +0.000 A 
ATOM     19  C   UNL     1       3.329   2.436  20.361  0.00  0.00    +0.000 A 
ENDBRANCH  13  14
ENDBRANCH  12  13
ENDBRANCH  11  12
ENDBRANCH   1  11
TORSDOF 8
ENDMDL
MODEL 2
REMARK VINA RESULT:      -6.4      1.557      2.690
REMARK  Name = 
REMARK  8 active torsions:
REMARK  status: ('A' for Active; 'I' for Inactive)
REMARK    1  A    between atoms: C_2  and  C_3
REMARK    2  A    between atoms: C_2  and  C_15
REMARK    3  A    between atoms: C_3  and  C_4
REMARK    4  A    between atoms: C_4  and  C_5
REMARK    5  A    between atoms: C_5  and  C_6
REMARK    6  A    between atoms: C_6  and  C_7
REMARK    7  A    between atoms: C_7  and  C_8
REMARK    8  A    between atoms: C_8  and  C_9
REMARK                            x       y       z     vdW  Elec       q    Type
REMARK                         _______ _______ _______ _____ _____    ______ ____
ROOT
ATOM      1  C   UNL     1       3.821   7.377  17.734  0.00  0.00    +0.000 C 
ENDROOT
BRANCH   1   2
ATOM      2  C   UNL     1       4.741   6.305  17.156  0.00  0.00    +0.000 C 
BRANCH   2   3
ATOM      3  C   UNL     1       6.139   6.329  17.775  0.00  0.00    +0.000 C 
BRANCH   3   5
ATOM      4  O   UNL     1       7.618   4.471  18.143  0.00  0.00    +0.000 OA
ATOM      5  C   UNL     1       6.960   5.124  17.328  0.00  0.00    +0.000 C 
BRANCH   5   6
ATOM      6  C   UNL     1       6.895   4.806  15.907  0.00  0.00    +0.000 A 
ATOM      7  N   UNL     1       7.656   5.375  14.992  0.00  0.00    +0.000 NA
ATOM      8  C   UNL     1       7.309   4.892  13.744  0.00  0.00    +0.000 A 
ATOM      9  C   UNL     1       6.290   3.966  13.725  0.00  0.00    +0.000 A 
ATOM     10  S   UNL     1       5.762   3.655  15.324  0.00  0.00    +0.000 S 
ENDBRANCH   5   6
ENDBRANCH   3   5
ENDBRANCH   2   3
ENDBRANCH   1   2
BRANCH   1  11
ATOM     11  C   UNL     1       2.497   6.753  18.184  0.00  0.00    +0.000 C 
BRANCH  11  12
ATOM     12  C   UNL     1       2.292   6.891  19.690  0.00  0.00    +0.000 C 
BRANCH  12  13
ATOM     13  C   UNL     1       1.921   5.547  20.322  0.00  0.00    +0.000 C 
BRANCH  13  14
ATOM     14  C   UNL     1       2.443   4.393  19.505  0.00  0.00    +0.000 A 
ATOM     15  C   UNL     1       3.723   3.874  19.745  0.00  0.00    +0.000 A 
ATOM     16  C   UNL     1       4.220   2.831  18.963  0.00  0.00    +0.000 A 
ATOM     17  C   UNL     1       3.444   2.299  17.934  0.00  0.00    +0.000 A 
ATOM     18  C   UNL     1       2.169   2.808  17.688  0.00  0.00    +0.000 A 
ATOM     19  C   UNL     1       1.672   3.851  18.468  0.00  0.00    +0.000 A 
ENDBRANCH  13  14
ENDBRANCH  12  13
ENDBRANCH  11  12
ENDBRANCH   1  11
TORSDOF 8
ENDMDL
MODEL 3
REMARK VINA RESULT:      -6.2      6.447      9.260
REMARK  Name = 
REMARK  8 active torsions:
REMARK  status: ('A' for Active; 'I' for Inactive)
REMARK    1  A    between atoms: C_2  and  C_3
REMARK    2  A    between atoms: C_2  and  C_15
REMARK    3  A    between atoms: C_3  and  C_4
REMARK    4  A    between atoms: C_4  and  C_5
REMARK    5  A    between atoms: C_5  and  C_6
REMARK    6  A    between atoms: C_6  and  C_7
REMARK    7  A    between atoms: C_7  and  C_8
REMARK    8  A    between atoms: C_8  and  C_9
REMARK                            x       y       z     vdW  Elec       q    Type
REMARK                         _______ _______ _______ _____ _____    ______ ____
ROOT
ATOM      1  C   UNL     1       8.085   8.818  17.831  0.00  0.00    +0.000 C 
ENDROOT
BRANCH   1   2
ATOM      2  C   UNL     1       7.972   7.319  18.098  0.00  0.00    +0.000 C 
BRANCH   2   3
ATOM      3  C   UNL     1       6.988   6.623  17.159  0.00  0.00    +0.000 C 
BRANCH   3   5
ATOM      4  O   UNL     1       8.044   4.469  17.013  0.00  0.00    +0.000 OA
ATOM      5  C   UNL     1       7.037   5.109  17.333  0.00  0.00    +0.000 C 
BRANCH   5   6
ATOM      6  C   UNL     1       5.844   4.498  17.905  0.00  0.00    +0.000 A 
ATOM      7  N   UNL     1       5.688   4.258  19.192  0.00  0.00    +0.000 NA
ATOM      8  C   UNL     1       4.474   3.626  19.396  0.00  0.00    +0.000 A 
ATOM      9  C   UNL     1       3.726   3.393  18.263  0.00  0.00    +0.000 A 
ATOM     10  S   UNL     1       4.545   4.012  16.892  0.00  0.00    +0.000 S 
ENDBRANCH   5   6
ENDBRANCH   3   5
ENDBRANCH   2   3
ENDBRANCH   1   2
BRANCH   1  11
ATOM     11  C   UNL     1       8.918   9.490  18.925  0.00  0.00    +0.000 C 
BRANCH  11  12
ATOM     12  C   UNL     1       9.398  10.875  18.498  0.00  0.00    +0.000 C 
BRANCH  12  13
ATOM     13  C   UNL     1      10.659  11.283  19.264  0.00  0.00    +0.000 C 
BRANCH  13  14
ATOM     14  C   UNL     1      10.407  12.487  20.134  0.00  0.00    +0.000 A 
ATOM     15  C   UNL     1      11.027  13.712  19.850  0.00  0.00    +0.000 A 
ATOM     16  C   UNL     1      10.823  14.816  20.679  0.00  0.00    +0.000 A 
ATOM     17  C   UNL     1      10.001  14.706  21.799  0.00  0.00    +0.000 A 
ATOM     18  C   UNL     1       9.379  13.492  22.090  0.00  0.00    +0.000 A 
ATOM     19  C   UNL     1       9.583  12.388  21.263  0.00  0.00    +0.000 A 
ENDBRANCH  13  14
ENDBRANCH  12  13
ENDBRANCH  11  12
ENDBRANCH   1  11
TORSDOF 8
ENDMDL
MODEL 4
REMARK VINA RESULT:      -6.2      1.787      2.684
REMARK  Name = 
REMARK  8 active torsions:
REMARK  status: ('A' for Active; 'I' for Inactive)
REMARK    1  A    between atoms: C_2  and  C_3
REMARK    2  A    between atoms: C_2  and  C_15
REMARK    3  A    between atoms: C_3  and  C_4
REMARK    4  A    between atoms: C_4  and  C_5
REMARK    5  A    between atoms: C_5  and  C_6
REMARK    6  A    between atoms: C_6  and  C_7
REMARK    7  A    between atoms: C_7  and  C_8
REMARK    8  A    between atoms: C_8  and  C_9
REMARK                            x       y       z     vdW  Elec       q    Type
REMARK                         _______ _______ _______ _____ _____    ______ ____
ROOT
ATOM      1  C   UNL     1       5.530   4.838  19.048  0.00  0.00    +0.000 C 
ENDROOT
BRANCH   1   2
ATOM      2  C   UNL     1       6.770   5.593  19.519  0.00  0.00    +0.000 C 
BRANCH   2   3
ATOM      3  C   UNL     1       7.822   5.747  18.420  0.00  0.00    +0.000 C 
BRANCH   3   5
ATOM      4  O   UNL     1       7.222   7.692  17.143  0.00  0.00    +0.000 OA
ATOM      5  C   UNL     1       7.245   6.459  17.201  0.00  0.00    +0.000 C 
BRANCH   5   6
ATOM      6  C   UNL     1       6.751   5.594  16.138  0.00  0.00    +0.000 A 
ATOM      7  N   UNL     1       7.397   4.532  15.696  0.00  0.00    +0.000 NA
ATOM      8  C   UNL     1       6.688   3.966  14.653  0.00  0.00    +0.000 A 
ATOM      9  C   UNL     1       5.515   4.603  14.314  0.00  0.00    +0.000 A 
ATOM     10  S   UNL     1       5.263   5.941  15.353  0.00  0.00    +0.000 S 
ENDBRANCH   5   6
ENDBRANCH   3   5
ENDBRANCH   2   3
ENDBRANCH   1   2
BRANCH   1  11
ATOM     11  C   UNL     1       4.262   5.555  19.521  0.00  0.00    +0.000 C 
BRANCH  11  12
ATOM     12  C   UNL     1       3.646   6.403  18.411  0.00  0.00    +0.000 C 
BRANCH  12  13
ATOM     13  C   UNL     1       2.185   6.019  18.169  0.00  0.00    +0.000 C 
BRANCH  13  14
ATOM     14  C   UNL     1       1.952   4.552  18.429  0.00  0.00    +0.000 A 
ATOM     15  C   UNL     1       1.270   4.133  19.579  0.00  0.00    +0.000 A 
ATOM     16  C   UNL     1       1.089   2.774  19.838  0.00  0.00    +0.000 A 
ATOM     17  C   UNL     1       1.588   1.822  18.950  0.00  0.00    +0.000 A 
ATOM     18  C   UNL     1       2.268   2.229  17.802  0.00  0.00    +0.000 A 
ATOM     19  C   UNL     1       2.451   3.587  17.544  0.00  0.00    +0.000 A 
ENDBRANCH  13  14
ENDBRANCH  12  13
ENDBRANCH  11  12
ENDBRANCH   1  11
TORSDOF 8
ENDMDL
MODEL 5
REMARK VINA RESULT:      -6.1      5.264      8.436
REMARK  Name = 
REMARK  8 active torsions:
REMARK  status: ('A' for Active; 'I' for Inactive)
REMARK    1  A    between atoms: C_2  and  C_3
REMARK    2  A    between atoms: C_2  and  C_15
REMARK    3  A    between atoms: C_3  and  C_4
REMARK    4  A    between atoms: C_4  and  C_5
REMARK    5  A    between atoms: C_5  and  C_6
REMARK    6  A    between atoms: C_6  and  C_7
REMARK    7  A    between atoms: C_7  and  C_8
REMARK    8  A    between atoms: C_8  and  C_9
REMARK                            x       y       z     vdW  Elec       q    Type
REMARK                         _______ _______ _______ _____ _____    ______ ____
ROOT
ATOM      1  C   UNL     1       7.989   6.749  18.418  0.00  0.00    +0.000 C 
ENDROOT
BRANCH   1   2
ATOM      2  C   UNL     1       7.458   5.359  18.077  0.00  0.00    +0.000 C 
BRANCH   2   3
ATOM      3  C   UNL     1       6.009   5.382  17.590  0.00  0.00    +0.000 C 
BRANCH   3   5
ATOM      4  O   UNL     1       5.292   5.414  19.882  0.00  0.00    +0.000 OA
ATOM      5  C   UNL     1       5.041   5.067  18.725  0.00  0.00    +0.000 C 
BRANCH   5   6
ATOM      6  C   UNL     1       3.828   4.356  18.342  0.00  0.00    +0.000 A 
ATOM      7  N   UNL     1       2.689   4.954  18.051  0.00  0.00    +0.000 NA
ATOM      8  C   UNL     1       1.725   3.998  17.783  0.00  0.00    +0.000 A 
ATOM      9  C   UNL     1       2.143   2.689  17.875  0.00  0.00    +0.000 A 
ATOM     10  S   UNL     1       3.807   2.640  18.278  0.00  0.00    +0.000 S 
ENDBRANCH   5   6
ENDBRANCH   3   5
ENDBRANCH   2   3
ENDBRANCH   1   2
BRANCH   1  11
ATOM     11  C   UNL     1       7.421   7.787  17.447  0.00  0.00    +0.000 C 
BRANCH  11  12
ATOM     12  C   UNL     1       7.989   9.178  17.713  0.00  0.00    +0.000 C 
BRANCH  12  13
ATOM     13  C   UNL     1       8.907   9.175  18.938  0.00  0.00    +0.000 C 
BRANCH  13  14
ATOM     14  C   UNL     1       9.559  10.518  19.140  0.00  0.00    +0.000 A 
ATOM     15  C   UNL     1       9.700  11.055  20.427  0.00  0.00    +0.000 A 
ATOM     16  C   UNL     1      10.270  12.316  20.609  0.00  0.00    +0.000 A 
ATOM     17  C   UNL     1      10.703  13.051  19.507  0.00  0.00    +0.000 A 
ATOM     18  C   UNL     1      10.567  12.526  18.222  0.00  0.00    +0.000 A 
ATOM     19  C   UNL     1       9.997  11.267  18.039  0.00  0.00    +0.000 A 
ENDBRANCH  13  14
ENDBRANCH  12  13
ENDBRANCH  11  12
ENDBRANCH   1  11
TORSDOF 8
ENDMDL
MODEL 6
REMARK VINA RESULT:      -6.1      5.320      8.609
REMARK  Name = 
REMARK  8 active torsions:
REMARK  status: ('A' for Active; 'I' for Inactive)
REMARK    1  A    between atoms: C_2  and  C_3
REMARK    2  A    between atoms: C_2  and  C_15
REMARK    3  A    between atoms: C_3  and  C_4
REMARK    4  A    between atoms: C_4  and  C_5
REMARK    5  A    between atoms: C_5  and  C_6
REMARK    6  A    between atoms: C_6  and  C_7
REMARK    7  A    between atoms: C_7  and  C_8
REMARK    8  A    between atoms: C_8  and  C_9
REMARK                            x       y       z     vdW  Elec       q    Type
REMARK                         _______ _______ _______ _____ _____    ______ ____
ROOT
ATOM      1  C   UNL     1       7.159   6.514  18.135  0.00  0.00    +0.000 C 
ENDROOT
BRANCH   1   2
ATOM      2  C   UNL     1       7.096   5.436  17.057  0.00  0.00    +0.000 C 
BRANCH   2   3
ATOM      3  C   UNL     1       5.712   4.797  16.940  0.00  0.00    +0.000 C 
BRANCH   3   5
ATOM      4  O   UNL     1       6.018   3.934  19.161  0.00  0.00    +0.000 OA
ATOM      5  C   UNL     1       5.219   4.299  18.294  0.00  0.00    +0.000 C 
BRANCH   5   6
ATOM      6  C   UNL     1       3.774   4.304  18.482  0.00  0.00    +0.000 A 
ATOM      7  N   UNL     1       3.168   4.883  19.501  0.00  0.00    +0.000 NA
ATOM      8  C   UNL     1       1.806   4.660  19.411  0.00  0.00    +0.000 A 
ATOM      9  C   UNL     1       1.394   3.914  18.329  0.00  0.00    +0.000 A 
ATOM     10  S   UNL     1       2.747   3.500  17.364  0.00  0.00    +0.000 S 
ENDBRANCH   5   6
ENDBRANCH   3   5
ENDBRANCH   2   3
ENDBRANCH   1   2
BRANCH   1  11
ATOM     11  C   UNL     1       7.472   7.875  17.507  0.00  0.00    +0.000 C 
BRANCH  11  12
ATOM     12  C   UNL     1       8.454   8.677  18.357  0.00  0.00    +0.000 C 
BRANCH  12  13
ATOM     13  C   UNL     1       8.405  10.165  18.000  0.00  0.00    +0.000 C 
BRANCH  13  14
ATOM     14  C   UNL     1       9.562  10.913  18.610  0.00  0.00    +0.000 A 
ATOM     15  C   UNL     1      10.611  11.381  17.805  0.00  0.00    +0.000 A 
ATOM     16  C   UNL     1      11.700  12.041  18.376  0.00  0.00    +0.000 A 
ATOM     17  C   UNL     1      11.751  12.238  19.755  0.00  0.00    +0.000 A 
ATOM     18  C   UNL     1      10.713  11.777  20.564  0.00  0.00    +0.000 A 
ATOM     19  C   UNL     1       9.625  11.117  19.995  0.00  0.00    +0.000 A 
ENDBRANCH  13  14
ENDBRANCH  12  13
ENDBRANCH  11  12
ENDBRANCH   1  11
TORSDOF 8
ENDMDL
MODEL 7
REMARK VINA RESULT:      -6.0      3.462      6.199
REMARK  Name = 
REMARK  8 active torsions:
REMARK  status: ('A' for Active; 'I' for Inactive)
REMARK    1  A    between atoms: C_2  and  C_3
REMARK    2  A    between atoms: C_2  and  C_15
REMARK    3  A    between atoms: C_3  and  C_4
REMARK    4  A    between atoms: C_4  and  C_5
REMARK    5  A    between atoms: C_5  and  C_6
REMARK    6  A    between atoms: C_6  and  C_7
REMARK    7  A    between atoms: C_7  and  C_8
REMARK    8  A    between atoms: C_8  and  C_9
REMARK                            x       y       z     vdW  Elec       q    Type
REMARK                         _______ _______ _______ _____ _____    ______ ____
ROOT
ATOM      1  C   UNL     1       1.880   7.144  20.328  0.00  0.00    +0.000 C 
ENDROOT
BRANCH   1   2
ATOM      2  C   UNL     1       1.410   5.708  20.546  0.00  0.00    +0.000 C 
BRANCH   2   3
ATOM      3  C   UNL     1       2.412   4.872  21.341  0.00  0.00    +0.000 C 
BRANCH   3   5
ATOM      4  O   UNL     1       1.628   2.723  22.079  0.00  0.00    +0.000 OA
ATOM      5  C   UNL     1       2.143   3.380  21.169  0.00  0.00    +0.000 C 
BRANCH   5   6
ATOM      6  C   UNL     1       2.516   2.814  19.880  0.00  0.00    +0.000 A 
ATOM      7  N   UNL     1       1.669   2.631  18.886  0.00  0.00    +0.000 NA
ATOM      8  C   UNL     1       2.327   2.029  17.828  0.00  0.00    +0.000 A 
ATOM      9  C   UNL     1       3.663   1.762  18.032  0.00  0.00    +0.000 A 
ATOM     10  S   UNL     1       4.131   2.310  19.585  0.00  0.00    +0.000 S 
ENDBRANCH   5   6
ENDBRANCH   3   5
ENDBRANCH   2   3
ENDBRANCH   1   2
BRANCH   1  11
ATOM     11  C   UNL     1       1.980   7.448  18.830  0.00  0.00    +0.000 C 
BRANCH  11  12
ATOM     12  C   UNL     1       3.377   7.157  18.288  0.00  0.00    +0.000 C 
BRANCH  12  13
ATOM     13  C   UNL     1       3.462   5.742  17.712  0.00  0.00    +0.000 C 
BRANCH  13  14
ATOM     14  C   UNL     1       4.891   5.337  17.457  0.00  0.00    +0.000 A 
ATOM     15  C   UNL     1       5.240   4.656  16.283  0.00  0.00    +0.000 A 
ATOM     16  C   UNL     1       6.557   4.249  16.066  0.00  0.00    +0.000 A 
ATOM     17  C   UNL     1       7.536   4.516  17.021  0.00  0.00    +0.000 A 
ATOM     18  C   UNL     1       7.200   5.194  18.193  0.00  0.00    +0.000 A 
ATOM     19  C   UNL     1       5.884   5.600  18.411  0.00  0.00    +0.000 A 
ENDBRANCH  13  14
ENDBRANCH  12  13
ENDBRANCH  11  12
ENDBRANCH   1  11
TORSDOF 8
ENDMDL
MODEL 8
REMARK VINA RESULT:      -6.0      5.540      8.639
REMARK  Name = 
REMARK  8 active torsions:
REMARK  status: ('A' for Active; 'I' for Inactive)
REMARK    1  A    between atoms: C_2  and  C_3
REMARK    2  A    between atoms: C_2  and  C_15
REMARK    3  A    between atoms: C_3  and  C_4
REMARK    4  A    between atoms: C_4  and  C_5
REMARK    5  A    between atoms: C_5  and  C_6
REMARK    6  A    between atoms: C_6  and  C_7
REMARK    7  A    between atoms: C_7  and  C_8
REMARK    8  A    between atoms: C_8  and  C_9
REMARK                            x       y       z     vdW  Elec       q    Type
REMARK                         _______ _______ _______ _____ _____    ______ ____
ROOT
ATOM      1  C   UNL     1       7.883   7.228  17.915  0.00  0.00    +0.000 C 
ENDROOT
BRANCH   1   2
ATOM      2  C   UNL     1       7.291   6.199  16.955  0.00  0.00    +0.000 C 
BRANCH   2   3
ATOM      3  C   UNL     1       7.057   4.840  17.615  0.00  0.00    +0.000 C 
BRANCH   3   5
ATOM      4  O   UNL     1       6.832   5.065  19.996  0.00  0.00    +0.000 OA
ATOM      5  C   UNL     1       6.259   4.984  18.906  0.00  0.00    +0.000 C 
BRANCH   5   6
ATOM      6  C   UNL     1       4.811   5.033  18.753  0.00  0.00    +0.000 A 
ATOM      7  N   UNL     1       3.997   5.569  19.641  0.00  0.00    +0.000 NA
ATOM      8  C   UNL     1       2.689   5.405  19.222  0.00  0.00    +0.000 A 
ATOM      9  C   UNL     1       2.526   4.747  18.023  0.00  0.00    +0.000 A 
ATOM     10  S   UNL     1       4.058   4.344  17.372  0.00  0.00    +0.000 S 
ENDBRANCH   5   6
ENDBRANCH   3   5
ENDBRANCH   2   3
ENDBRANCH   1   2
BRANCH   1  11
ATOM     11  C   UNL     1       7.337   8.623  17.599  0.00  0.00    +0.000 C 
BRANCH  11  12
ATOM     12  C   UNL     1       8.405   9.699  17.777  0.00  0.00    +0.000 C 
BRANCH  12  13
ATOM     13  C   UNL     1       9.103   9.565  19.132  0.00  0.00    +0.000 C 
BRANCH  13  14
ATOM     14  C   UNL     1       9.820  10.836  19.509  0.00  0.00    +0.000 A 
ATOM     15  C   UNL     1       9.618  11.421  20.767  0.00  0.00    +0.000 A 
ATOM     16  C   UNL     1      10.253  12.619  21.100  0.00  0.00    +0.000 A 
ATOM     17  C   UNL     1      11.093  13.242  20.179  0.00  0.00    +0.000 A 
ATOM     18  C   UNL     1      11.301  12.668  18.925  0.00  0.00    +0.000 A 
ATOM     19  C   UNL     1      10.666  11.473  18.591  0.00  0.00    +0.000 A 
ENDBRANCH  13  14
ENDBRANCH  12  13
ENDBRANCH  11  12
ENDBRANCH   1  11
TORSDOF 8
ENDMDL
MODEL 9
REMARK VINA RESULT:      -6.0      5.433      8.823
REMARK  Name = 
REMARK  8 active torsions:
REMARK  status: ('A' for Active; 'I' for Inactive)
REMARK    1  A    between atoms: C_2  and  C_3
REMARK    2  A    between atoms: C_2  and  C_15
REMARK    3  A    between atoms: C_3  and  C_4
REMARK    4  A    between atoms: C_4  and  C_5
REMARK    5  A    between atoms: C_5  and  C_6
REMARK    6  A    between atoms: C_6  and  C_7
REMARK    7  A    between atoms: C_7  and  C_8
REMARK    8  A    between atoms: C_8  and  C_9
REMARK                            x       y       z     vdW  Elec       q    Type
REMARK                         _______ _______ _______ _____ _____    ______ ____
ROOT
ATOM      1  C   UNL     1       7.444   6.606  17.451  0.00  0.00    +0.000 C 
ENDROOT
BRANCH   1   2
ATOM      2  C   UNL     1       6.299   6.027  18.279  0.00  0.00    +0.000 C 
BRANCH   2   3
ATOM      3  C   UNL     1       5.030   5.800  17.457  0.00  0.00    +0.000 C 
BRANCH   3   5
ATOM      4  O   UNL     1       4.815   3.547  16.652  0.00  0.00    +0.000 OA
ATOM      5  C   UNL     1       4.564   4.352  17.553  0.00  0.00    +0.000 C 
BRANCH   5   6
ATOM      6  C   UNL     1       3.834   4.001  18.764  0.00  0.00    +0.000 A 
ATOM      7  N   UNL     1       2.981   4.808  19.367  0.00  0.00    +0.000 NA
ATOM      8  C   UNL     1       2.503   4.197  20.512  0.00  0.00    +0.000 A 
ATOM      9  C   UNL     1       2.998   2.936  20.766  0.00  0.00    +0.000 A 
ATOM     10  S   UNL     1       4.075   2.476  19.516  0.00  0.00    +0.000 S 
ENDBRANCH   5   6
ENDBRANCH   3   5
ENDBRANCH   2   3
ENDBRANCH   1   2
BRANCH   1  11
ATOM     11  C   UNL     1       7.377   8.136  17.450  0.00  0.00    +0.000 C 
BRANCH  11  12
ATOM     12  C   UNL     1       8.489   8.749  18.296  0.00  0.00    +0.000 C 
BRANCH  12  13
ATOM     13  C   UNL     1       8.375  10.275  18.336  0.00  0.00    +0.000 C 
BRANCH  13  14
ATOM     14  C   UNL     1       9.659  10.910  18.803  0.00  0.00    +0.000 A 
ATOM     15  C   UNL     1       9.834  11.253  20.151  0.00  0.00    +0.000 A 
ATOM     16  C   UNL     1      11.008  11.876  20.576  0.00  0.00    +0.000 A 
ATOM     17  C   UNL     1      12.017  12.163  19.658  0.00  0.00    +0.000 A 
ATOM     18  C   UNL     1      11.853  11.826  18.315  0.00  0.00    +0.000 A 
ATOM     19  C   UNL     1      10.679  11.205  17.889  0.00  0.00    +0.000 A 
ENDBRANCH  13  14
ENDBRANCH  12  13
ENDBRANCH  11  12
ENDBRANCH   1  11
TORSDOF 8
ENDMDL
