MODEL 1
REMARK VINA RESULT:      -8.8      0.000      0.000
REMARK  Name = 
REMARK  4 active torsions:
REMARK  status: ('A' for Active; 'I' for Inactive)
REMARK    1  A    between atoms: C_1  and  N_2
REMARK    2  A    between atoms: C_11  and  C_12
REMARK    3  A    between atoms: C_13  and  C_14
REMARK    4  A    between atoms: C_18  and  C_19
REMARK                            x       y       z     vdW  Elec       q    Type
REMARK                         _______ _______ _______ _____ _____    ______ ____
ROOT
ATOM      1  C   UNL     1       1.904   2.926  21.162  0.00  0.00    +0.000 C 
ATOM      2  N   UNL     1       2.374   3.630  19.972  0.00  0.00    +0.000 NA
ATOM      3  C   UNL     1       3.385   2.818  19.255  0.00  0.00    +0.000 C 
ATOM      4  C   UNL     1       3.969   3.547  18.022  0.00  0.00    +0.000 C 
ATOM      5  N   UNL     1       4.512   4.837  18.454  0.00  0.00    +0.000 N 
ATOM      6  C   UNL     1       5.499   5.433  17.704  0.00  0.00    +0.000 A 
ATOM      7  N   UNL     1       6.011   4.765  16.675  0.00  0.00    +0.000 NA
ATOM      8  C   UNL     1       6.974   5.367  16.001  0.00  0.00    +0.000 A 
ATOM      9  N   UNL     1       7.439   4.726  14.871  0.00  0.00    +0.000 N 
ATOM     10  N   UNL     1       7.517   6.525  16.320  0.00  0.00    +0.000 NA
ATOM     11  C   UNL     1       6.960   7.109  17.377  0.00  0.00    +0.000 A 
ATOM     12  N   UNL     1       5.948   6.624  18.084  0.00  0.00    +0.000 NA
ATOM     13  C   UNL     1       3.540   5.697  19.132  0.00  0.00    +0.000 C 
ATOM     14  C   UNL     1       2.965   4.937  20.346  0.00  0.00    +0.000 C 
ATOM     15  H   UNL     1       7.245   3.735  14.907  0.00  0.00    +0.000 HD
ATOM     16  H   UNL     1       8.368   5.025  14.617  0.00  0.00    +0.000 HD
ENDROOT
BRANCH  11  17
ATOM     17  C   UNL     1       7.526   8.408  17.759  0.00  0.00    +0.000 C 
ATOM     18  C   UNL     1       8.605   8.596  18.542  0.00  0.00    +0.000 C 
BRANCH  18  19
ATOM     19  C   UNL     1       9.127   9.921  18.915  0.00  0.00    +0.000 A 
ATOM     20  C   UNL     1       9.102  10.389  20.237  0.00  0.00    +0.000 A 
ATOM     21  C   UNL     1       9.640  11.635  20.568  0.00  0.00    +0.000 A 
ATOM     22  C   UNL     1      10.224  12.427  19.581  0.00  0.00    +0.000 A 
ATOM     23  C   UNL     1      10.265  11.974  18.258  0.00  0.00    +0.000 A 
ATOM     24  C   UNL     1       9.729  10.722  17.930  0.00  0.00    +0.000 A 
BRANCH  23  25
ATOM     25  C   UNL     1      10.867  12.782  17.243  0.00  0.00    +0.000 C 
ATOM     26  N   UNL     1      11.350  13.436  16.412  0.00  0.00    +0.000 NA
ENDBRANCH  23  25
ENDBRANCH  18  19
ENDBRANCH  11  17
TORSDOF 3
ENDMDL
MODEL 2
REMARK VINA RESULT:      -8.1      1.467      2.003
REMARK  Name = 
REMARK  4 active torsions:
REMARK  status: ('A' for Active; 'I' for Inactive)
REMARK    1  A    between atoms: C_1  and  N_2
REMARK    2  A    between atoms: C_11  and  C_12
REMARK    3  A    between atoms: C_13  and  C_14
REMARK    4  A    between atoms: C_18  and  C_19
REMARK                            x       y       z     vdW  Elec       q    Type
REMARK                         _______ _______ _______ _____ _____    ______ ____
ROOT
ATOM      1  C   UNL     1       2.490   2.693  21.448  0.00  0.00    +0.000 C 
ATOM      2  N   UNL     1       2.842   3.391  20.215  0.00  0.00    +0.000 NA
ATOM      3  C   UNL     1       3.823   2.601  19.434  0.00  0.00    +0.000 C 
ATOM      4  C   UNL     1       4.286   3.327  18.149  0.00  0.00    +0.000 C 
ATOM      5  N   UNL     1       4.815   4.641  18.519  0.00  0.00    +0.000 N 
ATOM      6  C   UNL     1       5.721   5.256  17.686  0.00  0.00    +0.000 A 
ATOM      7  N   UNL     1       6.176   4.588  16.630  0.00  0.00    +0.000 NA
ATOM      8  C   UNL     1       7.063   5.208  15.874  0.00  0.00    +0.000 A 
ATOM      9  N   UNL     1       7.461   4.564  14.722  0.00  0.00    +0.000 N 
ATOM     10  N   UNL     1       7.589   6.389  16.134  0.00  0.00    +0.000 NA
ATOM     11  C   UNL     1       7.095   6.973  17.222  0.00  0.00    +0.000 A 
ATOM     12  N   UNL     1       6.158   6.468  18.012  0.00  0.00    +0.000 NA
ATOM     13  C   UNL     1       3.870   5.481  19.256  0.00  0.00    +0.000 C 
ATOM     14  C   UNL     1       3.416   4.723  20.523  0.00  0.00    +0.000 C 
ATOM     15  H   UNL     1       7.304   3.568  14.787  0.00  0.00    +0.000 HD
ATOM     16  H   UNL     1       8.357   4.889  14.392  0.00  0.00    +0.000 HD
ENDROOT
BRANCH  11  17
ATOM     17  C   UNL     1       7.644   8.297  17.539  0.00  0.00    +0.000 C 
ATOM     18  C   UNL     1       8.533   8.566  18.514  0.00  0.00    +0.000 C 
BRANCH  18  19
ATOM     19  C   UNL     1       9.042   9.915  18.809  0.00  0.00    +0.000 A 
ATOM     20  C   UNL     1       9.576  10.747  17.814  0.00  0.00    +0.000 A 
ATOM     21  C   UNL     1      10.015  12.038  18.116  0.00  0.00    +0.000 A 
ATOM     22  C   UNL     1       9.914  12.522  19.419  0.00  0.00    +0.000 A 
ATOM     23  C   UNL     1       9.376  11.711  20.424  0.00  0.00    +0.000 A 
ATOM     24  C   UNL     1       8.932  10.417  20.116  0.00  0.00    +0.000 A 
BRANCH  23  25
ATOM     25  C   UNL     1       9.267  12.205  21.761  0.00  0.00    +0.000 C 
ATOM     26  N   UNL     1       9.169  12.605  22.848  0.00  0.00    +0.000 NA
ENDBRANCH  23  25
ENDBRANCH  18  19
ENDBRANCH  11  17
TORSDOF 3
ENDMDL
MODEL 3
REMARK VINA RESULT:      -7.8      1.252      1.300
REMARK  Name = 
REMARK  4 active torsions:
REMARK  status: ('A' for Active; 'I' for Inactive)
REMARK    1  A    between atoms: C_1  and  N_2
REMARK    2  A    between atoms: C_11  and  C_12
REMARK    3  A    between atoms: C_13  and  C_14
REMARK    4  A    between atoms: C_18  and  C_19
REMARK                            x       y       z     vdW  Elec       q    Type
REMARK                         _______ _______ _______ _____ _____    ______ ____
ROOT
ATOM      1  C   UNL     1       1.784   2.563  20.726  0.00  0.00    +0.000 C 
ATOM      2  N   UNL     1       2.282   3.328  19.586  0.00  0.00    +0.000 NA
ATOM      3  C   UNL     1       3.382   2.599  18.912  0.00  0.00    +0.000 C 
ATOM      4  C   UNL     1       3.995   3.397  17.738  0.00  0.00    +0.000 C 
ATOM      5  N   UNL     1       4.431   4.703  18.237  0.00  0.00    +0.000 N 
ATOM      6  C   UNL     1       5.424   5.378  17.565  0.00  0.00    +0.000 A 
ATOM      7  N   UNL     1       6.037   4.773  16.552  0.00  0.00    +0.000 NA
ATOM      8  C   UNL     1       7.001   5.449  15.956  0.00  0.00    +0.000 A 
ATOM      9  N   UNL     1       7.571   4.871  14.840  0.00  0.00    +0.000 N 
ATOM     10  N   UNL     1       7.453   6.627  16.339  0.00  0.00    +0.000 NA
ATOM     11  C   UNL     1       6.799   7.146  17.374  0.00  0.00    +0.000 A 
ATOM     12  N   UNL     1       5.778   6.582  18.004  0.00  0.00    +0.000 NA
ATOM     13  C   UNL     1       3.371   5.485  18.875  0.00  0.00    +0.000 C 
ATOM     14  C   UNL     1       2.770   4.656  20.031  0.00  0.00    +0.000 C 
ATOM     15  H   UNL     1       7.435   3.870  14.838  0.00  0.00    +0.000 HD
ATOM     16  H   UNL     1       8.494   5.231  14.653  0.00  0.00    +0.000 HD
ENDROOT
BRANCH  11  17
ATOM     17  C   UNL     1       7.262   8.464  17.824  0.00  0.00    +0.000 C 
ATOM     18  C   UNL     1       8.542   8.881  17.848  0.00  0.00    +0.000 C 
BRANCH  18  19
ATOM     19  C   UNL     1       8.962  10.208  18.328  0.00  0.00    +0.000 A 
ATOM     20  C   UNL     1      10.067  10.383  19.174  0.00  0.00    +0.000 A 
ATOM     21  C   UNL     1      10.466  11.658  19.581  0.00  0.00    +0.000 A 
ATOM     22  C   UNL     1       9.772  12.781  19.136  0.00  0.00    +0.000 A 
ATOM     23  C   UNL     1       8.672  12.628  18.285  0.00  0.00    +0.000 A 
ATOM     24  C   UNL     1       8.277  11.348  17.875  0.00  0.00    +0.000 A 
BRANCH  23  25
ATOM     25  C   UNL     1       7.959  13.779  17.823  0.00  0.00    +0.000 C 
ATOM     26  N   UNL     1       7.372  14.710  17.449  0.00  0.00    +0.000 NA
ENDBRANCH  23  25
ENDBRANCH  18  19
ENDBRANCH  11  17
TORSDOF 3
ENDMDL
MODEL 4
REMARK VINA RESULT:      -7.7      5.933      9.459
REMARK  Name = 
REMARK  4 active torsions:
REMARK  status: ('A' for Active; 'I' for Inactive)
REMARK    1  A    between atoms: C_1  and  N_2
REMARK    2  A    between atoms: C_11  and  C_12
REMARK    3  A    between atoms: C_13  and  C_14
REMARK    4  A    between atoms: C_18  and  C_19
REMARK                            x       y       z     vdW  Elec       q    Type
REMARK                         _______ _______ _______ _____ _____    ______ ____
ROOT
ATOM      1  C   UNL     1      -2.917  12.284  23.898  0.00  0.00    +0.000 C 
ATOM      2  N   UNL     1      -1.607  12.154  23.266  0.00  0.00    +0.000 NA
ATOM      3  C   UNL     1      -1.492  13.078  22.113  0.00  0.00    +0.000 C 
ATOM      4  C   UNL     1      -0.148  12.931  21.362  0.00  0.00    +0.000 C 
ATOM      5  N   UNL     1       0.011  11.532  20.958  0.00  0.00    +0.000 N 
ATOM      6  C   UNL     1       0.820  11.234  19.885  0.00  0.00    +0.000 A 
ATOM      7  N   UNL     1       1.339  12.233  19.178  0.00  0.00    +0.000 NA
ATOM      8  C   UNL     1       2.086  11.898  18.142  0.00  0.00    +0.000 A 
ATOM      9  N   UNL     1       2.712  12.925  17.466  0.00  0.00    +0.000 N 
ATOM     10  N   UNL     1       2.282  10.667  17.713  0.00  0.00    +0.000 NA
ATOM     11  C   UNL     1       1.706   9.734  18.465  0.00  0.00    +0.000 A 
ATOM     12  N   UNL     1       0.991   9.957  19.559  0.00  0.00    +0.000 NA
ATOM     13  C   UNL     1      -0.051  10.578  22.066  0.00  0.00    +0.000 C 
ATOM     14  C   UNL     1      -1.395  10.761  22.804  0.00  0.00    +0.000 C 
ATOM     15  H   UNL     1       2.239  13.804  17.620  0.00  0.00    +0.000 HD
ATOM     16  H   UNL     1       2.955  12.668  16.521  0.00  0.00    +0.000 HD
ENDROOT
BRANCH  11  17
ATOM     17  C   UNL     1       1.911   8.348  18.029  0.00  0.00    +0.000 C 
ATOM     18  C   UNL     1       2.835   7.499  18.516  0.00  0.00    +0.000 C 
BRANCH  18  19
ATOM     19  C   UNL     1       3.017   6.120  18.034  0.00  0.00    +0.000 A 
ATOM     20  C   UNL     1       4.144   5.729  17.296  0.00  0.00    +0.000 A 
ATOM     21  C   UNL     1       4.309   4.404  16.885  0.00  0.00    +0.000 A 
ATOM     22  C   UNL     1       3.354   3.447  17.218  0.00  0.00    +0.000 A 
ATOM     23  C   UNL     1       2.227   3.816  17.961  0.00  0.00    +0.000 A 
ATOM     24  C   UNL     1       2.066   5.144  18.375  0.00  0.00    +0.000 A 
BRANCH  23  25
ATOM     25  C   UNL     1       1.245   2.835  18.308  0.00  0.00    +0.000 C 
ATOM     26  N   UNL     1       0.452   2.032  18.585  0.00  0.00    +0.000 NA
ENDBRANCH  23  25
ENDBRANCH  18  19
ENDBRANCH  11  17
TORSDOF 3
ENDMDL
MODEL 5
REMARK VINA RESULT:      -7.7      5.888      8.971
REMARK  Name = 
REMARK  4 active torsions:
REMARK  status: ('A' for Active; 'I' for Inactive)
REMARK    1  A    between atoms: C_1  and  N_2
REMARK    2  A    between atoms: C_11  and  C_12
REMARK    3  A    between atoms: C_13  and  C_14
REMARK    4  A    between atoms: C_18  and  C_19
REMARK                            x       y       z     vdW  Elec       q    Type
REMARK                         _______ _______ _______ _____ _____    ______ ____
ROOT
ATOM      1  C   UNL     1      -2.959  12.295  23.803  0.00  0.00    +0.000 C 
ATOM      2  N   UNL     1      -1.639  12.145  23.196  0.00  0.00    +0.000 NA
ATOM      3  C   UNL     1      -1.488  13.073  22.050  0.00  0.00    +0.000 C 
ATOM      4  C   UNL     1      -0.132  12.907  21.324  0.00  0.00    +0.000 C 
ATOM      5  N   UNL     1       0.012  11.508  20.917  0.00  0.00    +0.000 N 
ATOM      6  C   UNL     1       0.837  11.201  19.859  0.00  0.00    +0.000 A 
ATOM      7  N   UNL     1       1.386  12.194  19.166  0.00  0.00    +0.000 NA
ATOM      8  C   UNL     1       2.148  11.851  18.143  0.00  0.00    +0.000 A 
ATOM      9  N   UNL     1       2.802  12.871  17.484  0.00  0.00    +0.000 N 
ATOM     10  N   UNL     1       2.332  10.619  17.712  0.00  0.00    +0.000 NA
ATOM     11  C   UNL     1       1.726   9.693  18.449  0.00  0.00    +0.000 A 
ATOM     12  N   UNL     1       0.993   9.923  19.530  0.00  0.00    +0.000 NA
ATOM     13  C   UNL     1      -0.086  10.550  22.019  0.00  0.00    +0.000 C 
ATOM     14  C   UNL     1      -1.441  10.751  22.732  0.00  0.00    +0.000 C 
ATOM     15  H   UNL     1       2.341  13.757  17.633  0.00  0.00    +0.000 HD
ATOM     16  H   UNL     1       3.059  12.614  16.543  0.00  0.00    +0.000 HD
ENDROOT
BRANCH  11  17
ATOM     17  C   UNL     1       1.917   8.305  18.010  0.00  0.00    +0.000 C 
ATOM     18  C   UNL     1       2.596   7.355  18.682  0.00  0.00    +0.000 C 
BRANCH  18  19
ATOM     19  C   UNL     1       2.778   5.979  18.193  0.00  0.00    +0.000 A 
ATOM     20  C   UNL     1       1.799   4.989  18.363  0.00  0.00    +0.000 A 
ATOM     21  C   UNL     1       1.983   3.701  17.853  0.00  0.00    +0.000 A 
ATOM     22  C   UNL     1       3.145   3.388  17.153  0.00  0.00    +0.000 A 
ATOM     23  C   UNL     1       4.129   4.364  16.964  0.00  0.00    +0.000 A 
ATOM     24  C   UNL     1       3.941   5.656  17.473  0.00  0.00    +0.000 A 
BRANCH  23  25
ATOM     25  C   UNL     1       5.323   4.048  16.242  0.00  0.00    +0.000 C 
ATOM     26  N   UNL     1       6.295   3.799  15.655  0.00  0.00    +0.000 NA
ENDBRANCH  23  25
ENDBRANCH  18  19
ENDBRANCH  11  17
TORSDOF 3
ENDMDL
MODEL 6
REMARK VINA RESULT:      -7.6      4.700      7.888
REMARK  Name = 
REMARK  4 active torsions:
REMARK  status: ('A' for Active; 'I' for Inactive)
REMARK    1  A    between atoms: C_1  and  N_2
REMARK    2  A    between atoms: C_11  and  C_12
REMARK    3  A    between atoms: C_13  and  C_14
REMARK    4  A    between atoms: C_18  and  C_19
REMARK                            x       y       z     vdW  Elec       q    Type
REMARK                         _______ _______ _______ _____ _____    ______ ____
ROOT
ATOM      1  C   UNL     1       6.734   4.928  14.566  0.00  0.00    +0.000 C 
ATOM      2  N   UNL     1       6.369   4.953  15.980  0.00  0.00    +0.000 NA
ATOM      3  C   UNL     1       5.392   3.881  16.283  0.00  0.00    +0.000 C 
ATOM      4  C   UNL     1       4.916   3.906  17.754  0.00  0.00    +0.000 C 
ATOM      5  N   UNL     1       4.377   5.235  18.049  0.00  0.00    +0.000 N 
ATOM      6  C   UNL     1       3.461   5.375  19.066  0.00  0.00    +0.000 A 
ATOM      7  N   UNL     1       3.007   4.283  19.673  0.00  0.00    +0.000 NA
ATOM      8  C   UNL     1       2.111   4.464  20.625  0.00  0.00    +0.000 A 
ATOM      9  N   UNL     1       1.713   3.347  21.329  0.00  0.00    +0.000 N 
ATOM     10  N   UNL     1       1.575   5.623  20.953  0.00  0.00    +0.000 NA
ATOM     11  C   UNL     1       2.069   6.657  20.279  0.00  0.00    +0.000 A 
ATOM     12  N   UNL     1       3.015   6.594  19.351  0.00  0.00    +0.000 NA
ATOM     13  C   UNL     1       5.318   6.330  17.808  0.00  0.00    +0.000 C 
ATOM     14  C   UNL     1       5.785   6.268  16.337  0.00  0.00    +0.000 C 
ATOM     15  H   UNL     1       1.879   2.503  20.799  0.00  0.00    +0.000 HD
ATOM     16  H   UNL     1       0.812   3.471  21.765  0.00  0.00    +0.000 HD
ENDROOT
BRANCH  11  17
ATOM     17  C   UNL     1       1.509   7.970  20.623  0.00  0.00    +0.000 C 
ATOM     18  C   UNL     1       0.342   8.183  21.261  0.00  0.00    +0.000 C 
BRANCH  18  19
ATOM     19  C   UNL     1      -0.189   9.521  21.569  0.00  0.00    +0.000 A 
ATOM     20  C   UNL     1      -0.635   9.871  22.852  0.00  0.00    +0.000 A 
ATOM     21  C   UNL     1      -1.098  11.161  23.125  0.00  0.00    +0.000 A 
ATOM     22  C   UNL     1      -1.109  12.124  22.119  0.00  0.00    +0.000 A 
ATOM     23  C   UNL     1      -0.661  11.797  20.835  0.00  0.00    +0.000 A 
ATOM     24  C   UNL     1      -0.193  10.504  20.565  0.00  0.00    +0.000 A 
BRANCH  23  25
ATOM     25  C   UNL     1      -0.668  12.785  19.801  0.00  0.00    +0.000 C 
ATOM     26  N   UNL     1      -0.665  13.586  18.959  0.00  0.00    +0.000 NA
ENDBRANCH  23  25
ENDBRANCH  18  19
ENDBRANCH  11  17
TORSDOF 3
ENDMDL
MODEL 7
REMARK VINA RESULT:      -7.5      5.753      9.319
REMARK  Name = 
REMARK  4 active torsions:
REMARK  status: ('A' for Active; 'I' for Inactive)
REMARK    1  A    between atoms: C_1  and  N_2
REMARK    2  A    between atoms: C_11  and  C_12
REMARK    3  A    between atoms: C_13  and  C_14
REMARK    4  A    between atoms: C_18  and  C_19
REMARK                            x       y       z     vdW  Elec       q    Type
REMARK                         _______ _______ _______ _____ _____    ______ ____
ROOT
ATOM      1  C   UNL     1       2.457  16.235  19.289  0.00  0.00    +0.000 C 
ATOM      2  N   UNL     1       1.601  15.059  19.424  0.00  0.00    +0.000 NA
ATOM      3  C   UNL     1       1.343  14.768  20.854  0.00  0.00    +0.000 C 
ATOM      4  C   UNL     1       0.497  13.489  21.059  0.00  0.00    +0.000 C 
ATOM      5  N   UNL     1       1.167  12.374  20.388  0.00  0.00    +0.000 N 
ATOM      6  C   UNL     1       0.923  11.090  20.818  0.00  0.00    +0.000 A 
ATOM      7  N   UNL     1       0.178  10.910  21.905  0.00  0.00    +0.000 NA
ATOM      8  C   UNL     1      -0.007   9.663  22.296  0.00  0.00    +0.000 A 
ATOM      9  N   UNL     1      -0.862   9.462  23.359  0.00  0.00    +0.000 N 
ATOM     10  N   UNL     1       0.556   8.604  21.748  0.00  0.00    +0.000 NA
ATOM     11  C   UNL     1       1.304   8.878  20.684  0.00  0.00    +0.000 A 
ATOM     12  N   UNL     1       1.503  10.085  20.170  0.00  0.00    +0.000 NA
ATOM     13  C   UNL     1       1.408  12.591  18.960  0.00  0.00    +0.000 C 
ATOM     14  C   UNL     1       2.240  13.882  18.789  0.00  0.00    +0.000 C 
ATOM     15  H   UNL     1      -0.949  10.298  23.920  0.00  0.00    +0.000 HD
ATOM     16  H   UNL     1      -0.691   8.584  23.826  0.00  0.00    +0.000 HD
ENDROOT
BRANCH  11  17
ATOM     17  C   UNL     1       1.939   7.725  20.035  0.00  0.00    +0.000 C 
ATOM     18  C   UNL     1       2.350   7.671  18.755  0.00  0.00    +0.000 C 
BRANCH  18  19
ATOM     19  C   UNL     1       2.965   6.483  18.141  0.00  0.00    +0.000 A 
ATOM     20  C   UNL     1       2.300   5.249  18.070  0.00  0.00    +0.000 A 
ATOM     21  C   UNL     1       2.893   4.149  17.446  0.00  0.00    +0.000 A 
ATOM     22  C   UNL     1       4.156   4.270  16.871  0.00  0.00    +0.000 A 
ATOM     23  C   UNL     1       4.831   5.495  16.924  0.00  0.00    +0.000 A 
ATOM     24  C   UNL     1       4.232   6.598  17.546  0.00  0.00    +0.000 A 
BRANCH  23  25
ATOM     25  C   UNL     1       6.126   5.624  16.331  0.00  0.00    +0.000 C 
ATOM     26  N   UNL     1       7.179   5.721  15.846  0.00  0.00    +0.000 NA
ENDBRANCH  23  25
ENDBRANCH  18  19
ENDBRANCH  11  17
TORSDOF 3
ENDMDL
MODEL 8
REMARK VINA RESULT:      -7.4      5.890      9.371
REMARK  Name = 
REMARK  4 active torsions:
REMARK  status: ('A' for Active; 'I' for Inactive)
REMARK    1  A    between atoms: C_1  and  N_2
REMARK    2  A    between atoms: C_11  and  C_12
REMARK    3  A    between atoms: C_13  and  C_14
REMARK    4  A    between atoms: C_18  and  C_19
REMARK                            x       y       z     vdW  Elec       q    Type
REMARK                         _______ _______ _______ _____ _____    ______ ____
ROOT
ATOM      1  C   UNL     1       4.137  16.639  20.341  0.00  0.00    +0.000 C 
ATOM      2  N   UNL     1       3.261  15.829  19.498  0.00  0.00    +0.000 NA
ATOM      3  C   UNL     1       2.017  15.482  20.225  0.00  0.00    +0.000 C 
ATOM      4  C   UNL     1       1.083  14.565  19.402  0.00  0.00    +0.000 C 
ATOM      5  N   UNL     1       1.832  13.372  19.002  0.00  0.00    +0.000 N 
ATOM      6  C   UNL     1       1.145  12.213  18.721  0.00  0.00    +0.000 A 
ATOM      7  N   UNL     1      -0.167  12.180  18.934  0.00  0.00    +0.000 NA
ATOM      8  C   UNL     1      -0.779  11.039  18.675  0.00  0.00    +0.000 A 
ATOM      9  N   UNL     1      -2.154  11.027  18.794  0.00  0.00    +0.000 N 
ATOM     10  N   UNL     1      -0.182   9.922  18.311  0.00  0.00    +0.000 NA
ATOM     11  C   UNL     1       1.132  10.040  18.147  0.00  0.00    +0.000 A 
ATOM     12  N   UNL     1       1.835  11.152  18.316  0.00  0.00    +0.000 NA
ATOM     13  C   UNL     1       3.050  13.657  18.242  0.00  0.00    +0.000 C 
ATOM     14  C   UNL     1       3.953  14.586  19.083  0.00  0.00    +0.000 C 
ATOM     15  H   UNL     1      -2.474  11.769  19.400  0.00  0.00    +0.000 HD
ATOM     16  H   UNL     1      -2.516  10.097  18.938  0.00  0.00    +0.000 HD
ENDROOT
BRANCH  11  17
ATOM     17  C   UNL     1       1.835   8.821  17.727  0.00  0.00    +0.000 C 
ATOM     18  C   UNL     1       2.277   7.848  18.546  0.00  0.00    +0.000 C 
BRANCH  18  19
ATOM     19  C   UNL     1       2.995   6.651  18.081  0.00  0.00    +0.000 A 
ATOM     20  C   UNL     1       2.412   5.375  18.098  0.00  0.00    +0.000 A 
ATOM     21  C   UNL     1       3.103   4.262  17.613  0.00  0.00    +0.000 A 
ATOM     22  C   UNL     1       4.386   4.412  17.091  0.00  0.00    +0.000 A 
ATOM     23  C   UNL     1       4.982   5.677  17.057  0.00  0.00    +0.000 A 
ATOM     24  C   UNL     1       4.284   6.792  17.540  0.00  0.00    +0.000 A 
BRANCH  23  25
ATOM     25  C   UNL     1       6.297   5.835  16.519  0.00  0.00    +0.000 C 
ATOM     26  N   UNL     1       7.369   5.968  16.088  0.00  0.00    +0.000 NA
ENDBRANCH  23  25
ENDBRANCH  18  19
ENDBRANCH  11  17
TORSDOF 3
ENDMDL
MODEL 9
REMARK VINA RESULT:      -7.4      6.129      9.590
REMARK  Name = 
REMARK  4 active torsions:
REMARK  status: ('A' for Active; 'I' for Inactive)
REMARK    1  A    between atoms: C_1  and  N_2
REMARK    2  A    between atoms: C_11  and  C_12
REMARK    3  A    between atoms: C_13  and  C_14
REMARK    4  A    between atoms: C_18  and  C_19
REMARK                            x       y       z     vdW  Elec       q    Type
REMARK                         _______ _______ _______ _____ _____    ______ ____
ROOT
ATOM      1  C   UNL     1       0.315  16.314  18.994  0.00  0.00    +0.000 C 
ATOM      2  N   UNL     1      -0.191  14.998  19.374  0.00  0.00    +0.000 NA
ATOM      3  C   UNL     1       0.094  14.726  20.803  0.00  0.00    +0.000 C 
ATOM      4  C   UNL     1      -0.358  13.313  21.242  0.00  0.00    +0.000 C 
ATOM      5  N   UNL     1       0.271  12.326  20.363  0.00  0.00    +0.000 N 
ATOM      6  C   UNL     1       0.449  11.040  20.819  0.00  0.00    +0.000 A 
ATOM      7  N   UNL     1       0.150  10.763  22.085  0.00  0.00    +0.000 NA
ATOM      8  C   UNL     1       0.362   9.523  22.485  0.00  0.00    +0.000 A 
ATOM      9  N   UNL     1      -0.042   9.203  23.765  0.00  0.00    +0.000 N 
ATOM     10  N   UNL     1       0.921   8.576  21.759  0.00  0.00    +0.000 NA
ATOM     11  C   UNL     1       1.210   8.947  20.516  0.00  0.00    +0.000 A 
ATOM     12  N   UNL     1       0.980  10.144  19.994  0.00  0.00    +0.000 NA
ATOM     13  C   UNL     1      -0.014  12.523  18.941  0.00  0.00    +0.000 C 
ATOM     14  C   UNL     1       0.434  13.945  18.537  0.00  0.00    +0.000 C 
ATOM     15  H   UNL     1      -0.112  10.028  24.343  0.00  0.00    +0.000 HD
ATOM     16  H   UNL     1       0.447   8.400  24.130  0.00  0.00    +0.000 HD
ENDROOT
BRANCH  11  17
ATOM     17  C   UNL     1       1.822   7.916  19.669  0.00  0.00    +0.000 C 
ATOM     18  C   UNL     1       2.150   6.670  20.060  0.00  0.00    +0.000 C 
BRANCH  18  19
ATOM     19  C   UNL     1       2.781   5.675  19.178  0.00  0.00    +0.000 A 
ATOM     20  C   UNL     1       2.031   4.837  18.339  0.00  0.00    +0.000 A 
ATOM     21  C   UNL     1       2.660   3.928  17.484  0.00  0.00    +0.000 A 
ATOM     22  C   UNL     1       4.050   3.854  17.445  0.00  0.00    +0.000 A 
ATOM     23  C   UNL     1       4.816   4.688  18.268  0.00  0.00    +0.000 A 
ATOM     24  C   UNL     1       4.183   5.601  19.122  0.00  0.00    +0.000 A 
BRANCH  23  25
ATOM     25  C   UNL     1       6.243   4.618  18.229  0.00  0.00    +0.000 C 
ATOM     26  N   UNL     1       7.405   4.562  18.205  0.00  0.00    +0.000 NA
ENDBRANCH  23  25
ENDBRANCH  18  19
ENDBRANCH  11  17
TORSDOF 3
ENDMDL
