MODEL 1
REMARK VINA RESULT:      -7.4      0.000      0.000
REMARK  Name = 
REMARK  9 active torsions:
REMARK  status: ('A' for Active; 'I' for Inactive)
REMARK    1  A    between atoms: C_1  and  O_2
REMARK    2  A    between atoms: O_2  and  C_3
REMARK    3  A    between atoms: C_12  and  C_13
REMARK    4  A    between atoms: C_15  and  O_16
REMARK    5  A    between atoms: O_16  and  C_17
REMARK    6  A    between atoms: C_18  and  O_19
REMARK    7  A    between atoms: O_19  and  C_20
REMARK    8  A    between atoms: C_21  and  O_22
REMARK    9  A    between atoms: O_22  and  C_23
REMARK                            x       y       z     vdW  Elec       q    Type
REMARK                         _______ _______ _______ _____ _____    ______ ____
ROOT
ATOM      1  C   UNL     1      -0.134  10.244  22.291  0.00  0.00    +0.000 A 
ATOM      2  C   UNL     1       0.023   8.872  22.489  0.00  0.00    +0.000 A 
ATOM      3  C   UNL     1       0.667   8.079  21.533  0.00  0.00    +0.000 A 
ATOM      4  C   UNL     1       1.163   8.649  20.356  0.00  0.00    +0.000 A 
ATOM      5  C   UNL     1       0.990  10.033  20.150  0.00  0.00    +0.000 A 
ATOM      6  C   UNL     1       0.356  10.823  21.122  0.00  0.00    +0.000 A 
ATOM      7  C   UNL     1       1.576  10.689  18.923  0.00  0.00    +0.000 C 
ATOM      8  C   UNL     1       1.632   9.739  17.727  0.00  0.00    +0.000 C 
ATOM      9  C   UNL     1       2.062   8.356  18.109  0.00  0.00    +0.000 C 
ATOM     10  C   UNL     1       1.866   7.831  19.336  0.00  0.00    +0.000 C 
ENDROOT
BRANCH  10  11
ATOM     11  C   UNL     1       2.427   6.483  19.551  0.00  0.00    +0.000 A 
ATOM     12  C   UNL     1       3.755   6.248  19.207  0.00  0.00    +0.000 A 
ATOM     13  C   UNL     1       4.298   4.967  19.323  0.00  0.00    +0.000 A 
ATOM     14  C   UNL     1       3.489   3.896  19.775  0.00  0.00    +0.000 A 
ATOM     15  C   UNL     1       2.144   4.137  20.131  0.00  0.00    +0.000 A 
ATOM     16  C   UNL     1       1.629   5.436  20.021  0.00  0.00    +0.000 A 
BRANCH  13  17
ATOM     17  O   UNL     1       5.599   4.673  18.983  0.00  0.00    +0.000 OA
ATOM     18  C   UNL     1       5.909   4.705  17.593  0.00  0.00    +0.000 C 
ENDBRANCH  13  17
BRANCH  14  19
ATOM     19  O   UNL     1       4.105   2.664  19.750  0.00  0.00    +0.000 OA
ATOM     20  C   UNL     1       3.730   1.765  18.718  0.00  0.00    +0.000 C 
ENDBRANCH  14  19
BRANCH  15  21
ATOM     21  O   UNL     1       1.380   3.070  20.530  0.00  0.00    +0.000 OA
ATOM     22  C   UNL     1       1.525   2.603  21.866  0.00  0.00    +0.000 C 
ENDBRANCH  15  21
ENDBRANCH  10  11
BRANCH   1  24
ATOM     23  C   UNL     1      -1.793  11.815  22.937  0.00  0.00    +0.000 C 
ATOM     24  O   UNL     1      -0.765  10.905  23.310  0.00  0.00    +0.000 OA
ENDBRANCH   1  24
TORSDOF 5
ENDMDL
MODEL 2
REMARK VINA RESULT:      -7.1      0.734      2.541
REMARK  Name = 
REMARK  9 active torsions:
REMARK  status: ('A' for Active; 'I' for Inactive)
REMARK    1  A    between atoms: C_1  and  O_2
REMARK    2  A    between atoms: O_2  and  C_3
REMARK    3  A    between atoms: C_12  and  C_13
REMARK    4  A    between atoms: C_15  and  O_16
REMARK    5  A    between atoms: O_16  and  C_17
REMARK    6  A    between atoms: C_18  and  O_19
REMARK    7  A    between atoms: O_19  and  C_20
REMARK    8  A    between atoms: C_21  and  O_22
REMARK    9  A    between atoms: O_22  and  C_23
REMARK                            x       y       z     vdW  Elec       q    Type
REMARK                         _______ _______ _______ _____ _____    ______ ____
ROOT
ATOM      1  C   UNL     1      -0.277  10.268  22.297  0.00  0.00    +0.000 A 
ATOM      2  C   UNL     1      -0.084   8.888  22.360  0.00  0.00    +0.000 A 
ATOM      3  C   UNL     1       0.596   8.212  21.342  0.00  0.00    +0.000 A 
ATOM      4  C   UNL     1       1.094   8.910  20.236  0.00  0.00    +0.000 A 
ATOM      5  C   UNL     1       0.884  10.303  20.165  0.00  0.00    +0.000 A 
ATOM      6  C   UNL     1       0.213  10.974  21.199  0.00  0.00    +0.000 A 
ATOM      7  C   UNL     1       1.468  11.093  19.020  0.00  0.00    +0.000 C 
ATOM      8  C   UNL     1       1.569  10.269  17.737  0.00  0.00    +0.000 C 
ATOM      9  C   UNL     1       2.033   8.867  17.987  0.00  0.00    +0.000 C 
ATOM     10  C   UNL     1       1.835   8.217  19.152  0.00  0.00    +0.000 C 
ENDROOT
BRANCH  10  11
ATOM     11  C   UNL     1       2.430   6.870  19.242  0.00  0.00    +0.000 A 
ATOM     12  C   UNL     1       2.028   6.028  20.274  0.00  0.00    +0.000 A 
ATOM     13  C   UNL     1       2.625   4.775  20.437  0.00  0.00    +0.000 A 
ATOM     14  C   UNL     1       3.658   4.368  19.560  0.00  0.00    +0.000 A 
ATOM     15  C   UNL     1       4.061   5.219  18.508  0.00  0.00    +0.000 A 
ATOM     16  C   UNL     1       3.433   6.464  18.357  0.00  0.00    +0.000 A 
BRANCH  13  17
ATOM     17  O   UNL     1       2.279   3.909  21.449  0.00  0.00    +0.000 OA
ATOM     18  C   UNL     1       1.225   2.994  21.162  0.00  0.00    +0.000 C 
ENDBRANCH  13  17
BRANCH  14  19
ATOM     19  O   UNL     1       4.239   3.161  19.883  0.00  0.00    +0.000 OA
ATOM     20  C   UNL     1       3.953   2.051  19.045  0.00  0.00    +0.000 C 
ENDBRANCH  14  19
BRANCH  15  21
ATOM     21  O   UNL     1       5.089   4.807  17.700  0.00  0.00    +0.000 OA
ATOM     22  C   UNL     1       5.049   5.169  16.325  0.00  0.00    +0.000 C 
ENDBRANCH  15  21
ENDBRANCH  10  11
BRANCH   1  24
ATOM     23  C   UNL     1      -1.908  11.809  23.073  0.00  0.00    +0.000 C 
ATOM     24  O   UNL     1      -0.942  10.807  23.365  0.00  0.00    +0.000 OA
ENDBRANCH   1  24
TORSDOF 5
ENDMDL
MODEL 3
REMARK VINA RESULT:      -6.9      2.060      7.038
REMARK  Name = 
REMARK  9 active torsions:
REMARK  status: ('A' for Active; 'I' for Inactive)
REMARK    1  A    between atoms: C_1  and  O_2
REMARK    2  A    between atoms: O_2  and  C_3
REMARK    3  A    between atoms: C_12  and  C_13
REMARK    4  A    between atoms: C_15  and  O_16
REMARK    5  A    between atoms: O_16  and  C_17
REMARK    6  A    between atoms: C_18  and  O_19
REMARK    7  A    between atoms: O_19  and  C_20
REMARK    8  A    between atoms: C_21  and  O_22
REMARK    9  A    between atoms: O_22  and  C_23
REMARK                            x       y       z     vdW  Elec       q    Type
REMARK                         _______ _______ _______ _____ _____    ______ ____
ROOT
ATOM      1  C   UNL     1       2.761   3.818  20.309  0.00  0.00    +0.000 A 
ATOM      2  C   UNL     1       2.015   4.772  21.000  0.00  0.00    +0.000 A 
ATOM      3  C   UNL     1       1.876   6.072  20.501  0.00  0.00    +0.000 A 
ATOM      4  C   UNL     1       2.489   6.441  19.299  0.00  0.00    +0.000 A 
ATOM      5  C   UNL     1       3.257   5.480  18.610  0.00  0.00    +0.000 A 
ATOM      6  C   UNL     1       3.378   4.174  19.110  0.00  0.00    +0.000 A 
ATOM      7  C   UNL     1       3.872   5.826  17.276  0.00  0.00    +0.000 C 
ATOM      8  C   UNL     1       4.227   7.309  17.168  0.00  0.00    +0.000 C 
ATOM      9  C   UNL     1       3.174   8.198  17.755  0.00  0.00    +0.000 C 
ATOM     10  C   UNL     1       2.341   7.808  18.742  0.00  0.00    +0.000 C 
ENDROOT
BRANCH  10  11
ATOM     11  C   UNL     1       1.317   8.793  19.140  0.00  0.00    +0.000 A 
ATOM     12  C   UNL     1       0.488   9.329  18.159  0.00  0.00    +0.000 A 
ATOM     13  C   UNL     1      -0.441  10.321  18.483  0.00  0.00    +0.000 A 
ATOM     14  C   UNL     1      -0.527  10.798  19.814  0.00  0.00    +0.000 A 
ATOM     15  C   UNL     1       0.309  10.248  20.810  0.00  0.00    +0.000 A 
ATOM     16  C   UNL     1       1.220   9.241  20.460  0.00  0.00    +0.000 A 
BRANCH  13  17
ATOM     17  O   UNL     1      -1.275  10.898  17.552  0.00  0.00    +0.000 OA
ATOM     18  C   UNL     1      -2.244  10.041  16.958  0.00  0.00    +0.000 C 
ENDBRANCH  13  17
BRANCH  14  19
ATOM     19  O   UNL     1      -1.405  11.844  19.990  0.00  0.00    +0.000 OA
ATOM     20  C   UNL     1      -0.876  13.160  19.932  0.00  0.00    +0.000 C 
ENDBRANCH  14  19
BRANCH  15  21
ATOM     21  O   UNL     1       0.224  10.759  22.080  0.00  0.00    +0.000 OA
ATOM     22  C   UNL     1      -0.472  10.002  23.062  0.00  0.00    +0.000 C 
ENDBRANCH  15  21
ENDBRANCH  10  11
BRANCH   1  24
ATOM     23  C   UNL     1       1.765   2.283  21.823  0.00  0.00    +0.000 C 
ATOM     24  O   UNL     1       2.802   2.582  20.896  0.00  0.00    +0.000 OA
ENDBRANCH   1  24
TORSDOF 5
ENDMDL
MODEL 4
REMARK VINA RESULT:      -6.9      2.995      6.185
REMARK  Name = 
REMARK  9 active torsions:
REMARK  status: ('A' for Active; 'I' for Inactive)
REMARK    1  A    between atoms: C_1  and  O_2
REMARK    2  A    between atoms: O_2  and  C_3
REMARK    3  A    between atoms: C_12  and  C_13
REMARK    4  A    between atoms: C_15  and  O_16
REMARK    5  A    between atoms: O_16  and  C_17
REMARK    6  A    between atoms: C_18  and  O_19
REMARK    7  A    between atoms: O_19  and  C_20
REMARK    8  A    between atoms: C_21  and  O_22
REMARK    9  A    between atoms: O_22  and  C_23
REMARK                            x       y       z     vdW  Elec       q    Type
REMARK                         _______ _______ _______ _____ _____    ______ ____
ROOT
ATOM      1  C   UNL     1       1.822   6.211  20.193  0.00  0.00    +0.000 A 
ATOM      2  C   UNL     1       3.032   6.638  19.647  0.00  0.00    +0.000 A 
ATOM      3  C   UNL     1       3.770   5.804  18.799  0.00  0.00    +0.000 A 
ATOM      4  C   UNL     1       3.307   4.521  18.487  0.00  0.00    +0.000 A 
ATOM      5  C   UNL     1       2.091   4.085  19.053  0.00  0.00    +0.000 A 
ATOM      6  C   UNL     1       1.351   4.935  19.889  0.00  0.00    +0.000 A 
ATOM      7  C   UNL     1       1.531   2.734  18.679  0.00  0.00    +0.000 C 
ATOM      8  C   UNL     1       2.628   1.721  18.349  0.00  0.00    +0.000 C 
ATOM      9  C   UNL     1       3.737   2.317  17.538  0.00  0.00    +0.000 C 
ATOM     10  C   UNL     1       4.063   3.626  17.576  0.00  0.00    +0.000 C 
ENDROOT
BRANCH  10  11
ATOM     11  C   UNL     1       5.133   4.044  16.650  0.00  0.00    +0.000 A 
ATOM     12  C   UNL     1       5.986   5.074  17.035  0.00  0.00    +0.000 A 
ATOM     13  C   UNL     1       6.961   5.550  16.155  0.00  0.00    +0.000 A 
ATOM     14  C   UNL     1       7.071   4.995  14.857  0.00  0.00    +0.000 A 
ATOM     15  C   UNL     1       6.210   3.944  14.470  0.00  0.00    +0.000 A 
ATOM     16  C   UNL     1       5.252   3.474  15.379  0.00  0.00    +0.000 A 
BRANCH  13  17
ATOM     17  O   UNL     1       7.821   6.576  16.476  0.00  0.00    +0.000 OA
ATOM     18  C   UNL     1       7.400   7.446  17.522  0.00  0.00    +0.000 C 
ENDBRANCH  13  17
BRANCH  14  19
ATOM     19  O   UNL     1       7.997   5.613  14.048  0.00  0.00    +0.000 OA
ATOM     20  C   UNL     1       7.805   5.524  12.644  0.00  0.00    +0.000 C 
ENDBRANCH  14  19
BRANCH  15  21
ATOM     21  O   UNL     1       6.320   3.456  13.193  0.00  0.00    +0.000 OA
ATOM     22  C   UNL     1       5.133   3.316  12.424  0.00  0.00    +0.000 C 
ENDBRANCH  15  21
ENDBRANCH  10  11
BRANCH   1  24
ATOM     23  C   UNL     1       1.346   8.497  20.627  0.00  0.00    +0.000 C 
ATOM     24  O   UNL     1       1.194   7.129  20.990  0.00  0.00    +0.000 OA
ENDBRANCH   1  24
TORSDOF 5
ENDMDL
MODEL 5
REMARK VINA RESULT:      -6.7      2.237      7.743
REMARK  Name = 
REMARK  9 active torsions:
REMARK  status: ('A' for Active; 'I' for Inactive)
REMARK    1  A    between atoms: C_1  and  O_2
REMARK    2  A    between atoms: O_2  and  C_3
REMARK    3  A    between atoms: C_12  and  C_13
REMARK    4  A    between atoms: C_15  and  O_16
REMARK    5  A    between atoms: O_16  and  C_17
REMARK    6  A    between atoms: C_18  and  O_19
REMARK    7  A    between atoms: O_19  and  C_20
REMARK    8  A    between atoms: C_21  and  O_22
REMARK    9  A    between atoms: O_22  and  C_23
REMARK                            x       y       z     vdW  Elec       q    Type
REMARK                         _______ _______ _______ _____ _____    ______ ____
ROOT
ATOM      1  C   UNL     1       5.172   5.463  16.774  0.00  0.00    +0.000 A 
ATOM      2  C   UNL     1       4.598   6.733  16.737  0.00  0.00    +0.000 A 
ATOM      3  C   UNL     1       3.648   7.119  17.689  0.00  0.00    +0.000 A 
ATOM      4  C   UNL     1       3.254   6.233  18.697  0.00  0.00    +0.000 A 
ATOM      5  C   UNL     1       3.823   4.943  18.724  0.00  0.00    +0.000 A 
ATOM      6  C   UNL     1       4.786   4.571  17.774  0.00  0.00    +0.000 A 
ATOM      7  C   UNL     1       3.470   3.990  19.840  0.00  0.00    +0.000 C 
ATOM      8  C   UNL     1       2.052   4.210  20.366  0.00  0.00    +0.000 C 
ATOM      9  C   UNL     1       1.702   5.662  20.489  0.00  0.00    +0.000 C 
ATOM     10  C   UNL     1       2.262   6.626  19.729  0.00  0.00    +0.000 C 
ENDROOT
BRANCH  10  11
ATOM     11  C   UNL     1       1.851   8.007  20.046  0.00  0.00    +0.000 A 
ATOM     12  C   UNL     1       1.481   8.312  21.352  0.00  0.00    +0.000 A 
ATOM     13  C   UNL     1       1.012   9.589  21.674  0.00  0.00    +0.000 A 
ATOM     14  C   UNL     1       0.894  10.572  20.662  0.00  0.00    +0.000 A 
ATOM     15  C   UNL     1       1.278  10.264  19.338  0.00  0.00    +0.000 A 
ATOM     16  C   UNL     1       1.761   8.981  19.047  0.00  0.00    +0.000 A 
BRANCH  13  17
ATOM     17  O   UNL     1       0.616   9.941  22.944  0.00  0.00    +0.000 OA
ATOM     18  C   UNL     1      -0.695   9.542  23.329  0.00  0.00    +0.000 C 
ENDBRANCH  13  17
BRANCH  14  19
ATOM     19  O   UNL     1       0.325  11.755  21.078  0.00  0.00    +0.000 OA
ATOM     20  C   UNL     1      -1.018  12.007  20.695  0.00  0.00    +0.000 C 
ENDBRANCH  14  19
BRANCH  15  21
ATOM     21  O   UNL     1       1.116  11.230  18.377  0.00  0.00    +0.000 OA
ATOM     22  C   UNL     1       2.160  12.178  18.198  0.00  0.00    +0.000 C 
ENDBRANCH  15  21
ENDBRANCH  10  11
BRANCH   1  24
ATOM     23  C   UNL     1       6.033   3.948  15.161  0.00  0.00    +0.000 C 
ATOM     24  O   UNL     1       6.098   5.220  15.796  0.00  0.00    +0.000 OA
ENDBRANCH   1  24
TORSDOF 5
ENDMDL
MODEL 6
REMARK VINA RESULT:      -6.7      2.166      7.621
REMARK  Name = 
REMARK  9 active torsions:
REMARK  status: ('A' for Active; 'I' for Inactive)
REMARK    1  A    between atoms: C_1  and  O_2
REMARK    2  A    between atoms: O_2  and  C_3
REMARK    3  A    between atoms: C_12  and  C_13
REMARK    4  A    between atoms: C_15  and  O_16
REMARK    5  A    between atoms: O_16  and  C_17
REMARK    6  A    between atoms: C_18  and  O_19
REMARK    7  A    between atoms: O_19  and  C_20
REMARK    8  A    between atoms: C_21  and  O_22
REMARK    9  A    between atoms: O_22  and  C_23
REMARK                            x       y       z     vdW  Elec       q    Type
REMARK                         _______ _______ _______ _____ _____    ______ ____
ROOT
ATOM      1  C   UNL     1       5.427   4.908  17.169  0.00  0.00    +0.000 A 
ATOM      2  C   UNL     1       4.867   6.178  17.035  0.00  0.00    +0.000 A 
ATOM      3  C   UNL     1       3.822   6.593  17.868  0.00  0.00    +0.000 A 
ATOM      4  C   UNL     1       3.316   5.736  18.852  0.00  0.00    +0.000 A 
ATOM      5  C   UNL     1       3.872   4.447  18.977  0.00  0.00    +0.000 A 
ATOM      6  C   UNL     1       4.930   4.046  18.146  0.00  0.00    +0.000 A 
ATOM      7  C   UNL     1       3.396   3.526  20.073  0.00  0.00    +0.000 C 
ATOM      8  C   UNL     1       1.931   3.765  20.437  0.00  0.00    +0.000 C 
ATOM      9  C   UNL     1       1.578   5.220  20.481  0.00  0.00    +0.000 C 
ATOM     10  C   UNL     1       2.221   6.161  19.760  0.00  0.00    +0.000 C 
ENDROOT
BRANCH  10  11
ATOM     11  C   UNL     1       1.786   7.552  19.991  0.00  0.00    +0.000 A 
ATOM     12  C   UNL     1       1.689   8.014  21.300  0.00  0.00    +0.000 A 
ATOM     13  C   UNL     1       1.207   9.298  21.562  0.00  0.00    +0.000 A 
ATOM     14  C   UNL     1       0.795  10.129  20.492  0.00  0.00    +0.000 A 
ATOM     15  C   UNL     1       0.901   9.662  19.163  0.00  0.00    +0.000 A 
ATOM     16  C   UNL     1       1.405   8.376  18.928  0.00  0.00    +0.000 A 
BRANCH  13  17
ATOM     17  O   UNL     1       1.074   9.801  22.837  0.00  0.00    +0.000 OA
ATOM     18  C   UNL     1      -0.158   9.528  23.497  0.00  0.00    +0.000 C 
ENDBRANCH  13  17
BRANCH  14  19
ATOM     19  O   UNL     1       0.243  11.329  20.880  0.00  0.00    +0.000 OA
ATOM     20  C   UNL     1       1.065  12.484  20.804  0.00  0.00    +0.000 C 
ENDBRANCH  14  19
BRANCH  15  21
ATOM     21  O   UNL     1       0.460  10.480  18.154  0.00  0.00    +0.000 OA
ATOM     22  C   UNL     1      -0.930  10.484  17.854  0.00  0.00    +0.000 C 
ENDBRANCH  15  21
ENDBRANCH  10  11
BRANCH   1  24
ATOM     23  C   UNL     1       6.212   4.907  14.928  0.00  0.00    +0.000 C 
ATOM     24  O   UNL     1       6.452   4.635  16.305  0.00  0.00    +0.000 OA
ENDBRANCH   1  24
TORSDOF 5
ENDMDL
MODEL 7
REMARK VINA RESULT:      -6.7      2.315      7.402
REMARK  Name = 
REMARK  9 active torsions:
REMARK  status: ('A' for Active; 'I' for Inactive)
REMARK    1  A    between atoms: C_1  and  O_2
REMARK    2  A    between atoms: O_2  and  C_3
REMARK    3  A    between atoms: C_12  and  C_13
REMARK    4  A    between atoms: C_15  and  O_16
REMARK    5  A    between atoms: O_16  and  C_17
REMARK    6  A    between atoms: C_18  and  O_19
REMARK    7  A    between atoms: O_19  and  C_20
REMARK    8  A    between atoms: C_21  and  O_22
REMARK    9  A    between atoms: O_22  and  C_23
REMARK                            x       y       z     vdW  Elec       q    Type
REMARK                         _______ _______ _______ _____ _____    ______ ____
ROOT
ATOM      1  C   UNL     1       5.523   5.738  16.604  0.00  0.00    +0.000 A 
ATOM      2  C   UNL     1       4.825   6.946  16.611  0.00  0.00    +0.000 A 
ATOM      3  C   UNL     1       3.814   7.185  17.547  0.00  0.00    +0.000 A 
ATOM      4  C   UNL     1       3.480   6.212  18.495  0.00  0.00    +0.000 A 
ATOM      5  C   UNL     1       4.174   4.985  18.478  0.00  0.00    +0.000 A 
ATOM      6  C   UNL     1       5.198   4.761  17.544  0.00  0.00    +0.000 A 
ATOM      7  C   UNL     1       3.885   3.944  19.531  0.00  0.00    +0.000 C 
ATOM      8  C   UNL     1       2.437   3.995  20.017  0.00  0.00    +0.000 C 
ATOM      9  C   UNL     1       1.940   5.396  20.201  0.00  0.00    +0.000 C 
ATOM     10  C   UNL     1       2.423   6.450  19.510  0.00  0.00    +0.000 C 
ENDROOT
BRANCH  10  11
ATOM     11  C   UNL     1       1.866   7.765  19.880  0.00  0.00    +0.000 A 
ATOM     12  C   UNL     1       1.743   8.741  18.895  0.00  0.00    +0.000 A 
ATOM     13  C   UNL     1       1.293  10.022  19.223  0.00  0.00    +0.000 A 
ATOM     14  C   UNL     1       0.978  10.337  20.567  0.00  0.00    +0.000 A 
ATOM     15  C   UNL     1       1.094   9.343  21.564  0.00  0.00    +0.000 A 
ATOM     16  C   UNL     1       1.532   8.061  21.205  0.00  0.00    +0.000 A 
BRANCH  13  17
ATOM     17  O   UNL     1       1.168  11.031  18.294  0.00  0.00    +0.000 OA
ATOM     18  C   UNL     1       2.356  11.753  17.985  0.00  0.00    +0.000 C 
ENDBRANCH  13  17
BRANCH  14  19
ATOM     19  O   UNL     1       0.645  11.655  20.783  0.00  0.00    +0.000 OA
ATOM     20  C   UNL     1      -0.728  12.008  20.699  0.00  0.00    +0.000 C 
ENDBRANCH  14  19
BRANCH  15  21
ATOM     21  O   UNL     1       0.815   9.693  22.861  0.00  0.00    +0.000 OA
ATOM     22  C   UNL     1      -0.530   9.583  23.310  0.00  0.00    +0.000 C 
ENDBRANCH  15  21
ENDBRANCH  10  11
BRANCH   1  24
ATOM     23  C   UNL     1       6.433   4.508  14.789  0.00  0.00    +0.000 C 
ATOM     24  O   UNL     1       6.497   5.640  15.649  0.00  0.00    +0.000 OA
ENDBRANCH   1  24
TORSDOF 5
ENDMDL
MODEL 8
REMARK VINA RESULT:      -6.6      0.873      2.591
REMARK  Name = 
REMARK  9 active torsions:
REMARK  status: ('A' for Active; 'I' for Inactive)
REMARK    1  A    between atoms: C_1  and  O_2
REMARK    2  A    between atoms: O_2  and  C_3
REMARK    3  A    between atoms: C_12  and  C_13
REMARK    4  A    between atoms: C_15  and  O_16
REMARK    5  A    between atoms: O_16  and  C_17
REMARK    6  A    between atoms: C_18  and  O_19
REMARK    7  A    between atoms: O_19  and  C_20
REMARK    8  A    between atoms: C_21  and  O_22
REMARK    9  A    between atoms: O_22  and  C_23
REMARK                            x       y       z     vdW  Elec       q    Type
REMARK                         _______ _______ _______ _____ _____    ______ ____
ROOT
ATOM      1  C   UNL     1       0.168   9.808  22.225  0.00  0.00    +0.000 A 
ATOM      2  C   UNL     1       0.333   8.424  22.198  0.00  0.00    +0.000 A 
ATOM      3  C   UNL     1       0.938   7.795  21.105  0.00  0.00    +0.000 A 
ATOM      4  C   UNL     1       1.388   8.546  20.013  0.00  0.00    +0.000 A 
ATOM      5  C   UNL     1       1.206   9.944  20.034  0.00  0.00    +0.000 A 
ATOM      6  C   UNL     1       0.611  10.567  21.142  0.00  0.00    +0.000 A 
ATOM      7  C   UNL     1       1.742  10.788  18.904  0.00  0.00    +0.000 C 
ATOM      8  C   UNL     1       1.751  10.038  17.572  0.00  0.00    +0.000 C 
ATOM      9  C   UNL     1       2.197   8.615  17.715  0.00  0.00    +0.000 C 
ATOM     10  C   UNL     1       2.050   7.903  18.851  0.00  0.00    +0.000 C 
ENDROOT
BRANCH  10  11
ATOM     11  C   UNL     1       2.619   6.542  18.829  0.00  0.00    +0.000 A 
ATOM     12  C   UNL     1       1.793   5.466  19.141  0.00  0.00    +0.000 A 
ATOM     13  C   UNL     1       2.314   4.171  19.207  0.00  0.00    +0.000 A 
ATOM     14  C   UNL     1       3.693   3.953  18.973  0.00  0.00    +0.000 A 
ATOM     15  C   UNL     1       4.529   5.044  18.649  0.00  0.00    +0.000 A 
ATOM     16  C   UNL     1       3.977   6.331  18.573  0.00  0.00    +0.000 A 
BRANCH  13  17
ATOM     17  O   UNL     1       1.547   3.073  19.527  0.00  0.00    +0.000 OA
ATOM     18  C   UNL     1       1.096   2.991  20.875  0.00  0.00    +0.000 C 
ENDBRANCH  13  17
BRANCH  14  19
ATOM     19  O   UNL     1       4.107   2.655  19.167  0.00  0.00    +0.000 OA
ATOM     20  C   UNL     1       4.599   2.307  20.452  0.00  0.00    +0.000 C 
ENDBRANCH  14  19
BRANCH  15  21
ATOM     21  O   UNL     1       5.866   4.801  18.464  0.00  0.00    +0.000 OA
ATOM     22  C   UNL     1       6.794   5.498  19.287  0.00  0.00    +0.000 C 
ENDBRANCH  15  21
ENDBRANCH  10  11
BRANCH   1  24
ATOM     23  C   UNL     1      -1.376  11.338  23.180  0.00  0.00    +0.000 C 
ATOM     24  O   UNL     1      -0.423  10.297  23.358  0.00  0.00    +0.000 OA
ENDBRANCH   1  24
TORSDOF 5
ENDMDL
MODEL 9
REMARK VINA RESULT:      -6.6      2.112      7.161
REMARK  Name = 
REMARK  9 active torsions:
REMARK  status: ('A' for Active; 'I' for Inactive)
REMARK    1  A    between atoms: C_1  and  O_2
REMARK    2  A    between atoms: O_2  and  C_3
REMARK    3  A    between atoms: C_12  and  C_13
REMARK    4  A    between atoms: C_15  and  O_16
REMARK    5  A    between atoms: O_16  and  C_17
REMARK    6  A    between atoms: C_18  and  O_19
REMARK    7  A    between atoms: O_19  and  C_20
REMARK    8  A    between atoms: C_21  and  O_22
REMARK    9  A    between atoms: O_22  and  C_23
REMARK                            x       y       z     vdW  Elec       q    Type
REMARK                         _______ _______ _______ _____ _____    ______ ____
ROOT
ATOM      1  C   UNL     1       2.777   3.868  20.276  0.00  0.00    +0.000 A 
ATOM      2  C   UNL     1       2.056   4.851  20.952  0.00  0.00    +0.000 A 
ATOM      3  C   UNL     1       1.944   6.145  20.432  0.00  0.00    +0.000 A 
ATOM      4  C   UNL     1       2.561   6.478  19.221  0.00  0.00    +0.000 A 
ATOM      5  C   UNL     1       3.304   5.488  18.546  0.00  0.00    +0.000 A 
ATOM      6  C   UNL     1       3.397   4.189  19.069  0.00  0.00    +0.000 A 
ATOM      7  C   UNL     1       3.921   5.797  17.204  0.00  0.00    +0.000 C 
ATOM      8  C   UNL     1       4.309   7.270  17.068  0.00  0.00    +0.000 C 
ATOM      9  C   UNL     1       3.278   8.192  17.643  0.00  0.00    +0.000 C 
ATOM     10  C   UNL     1       2.441   7.839  18.640  0.00  0.00    +0.000 C 
ENDROOT
BRANCH  10  11
ATOM     11  C   UNL     1       1.441   8.854  19.024  0.00  0.00    +0.000 A 
ATOM     12  C   UNL     1       1.379   9.262  20.353  0.00  0.00    +0.000 A 
ATOM     13  C   UNL     1       0.395  10.162  20.770  0.00  0.00    +0.000 A 
ATOM     14  C   UNL     1      -0.555  10.649  19.840  0.00  0.00    +0.000 A 
ATOM     15  C   UNL     1      -0.485  10.241  18.490  0.00  0.00    +0.000 A 
ATOM     16  C   UNL     1       0.522   9.349  18.095  0.00  0.00    +0.000 A 
BRANCH  13  17
ATOM     17  O   UNL     1       0.275  10.588  22.074  0.00  0.00    +0.000 OA
ATOM     18  C   UNL     1      -0.046   9.588  23.035  0.00  0.00    +0.000 C 
ENDBRANCH  13  17
BRANCH  14  19
ATOM     19  O   UNL     1      -1.534  11.447  20.387  0.00  0.00    +0.000 OA
ATOM     20  C   UNL     1      -1.425  12.849  20.188  0.00  0.00    +0.000 C 
ENDBRANCH  14  19
BRANCH  15  21
ATOM     21  O   UNL     1      -1.444  10.704  17.624  0.00  0.00    +0.000 OA
ATOM     22  C   UNL     1      -2.582   9.886  17.384  0.00  0.00    +0.000 C 
ENDBRANCH  15  21
ENDBRANCH  10  11
BRANCH   1  24
ATOM     23  C   UNL     1       4.042   1.960  20.909  0.00  0.00    +0.000 C 
ATOM     24  O   UNL     1       2.793   2.642  20.884  0.00  0.00    +0.000 OA
ENDBRANCH   1  24
TORSDOF 5
ENDMDL
