MODEL 1
REMARK VINA RESULT:      -6.6      0.000      0.000
REMARK  Name = 
REMARK  3 active torsions:
REMARK  status: ('A' for Active; 'I' for Inactive)
REMARK    1  A    between atoms: C_2  and  C_3
REMARK    2  A    between atoms: C_3  and  C_4
REMARK    3  A    between atoms: C_4  and  C_5
REMARK                            x       y       z     vdW  Elec       q    Type
REMARK                         _______ _______ _______ _____ _____    ______ ____
ROOT
ATOM      1  O   UNL     1       4.385   3.308  18.048  0.00  0.00    +0.000 OA
ATOM      2  C   UNL     1       4.443   4.452  17.595  0.00  0.00    +0.000 C 
ATOM      3  N   UNL     1       3.902   5.529  18.275  0.00  0.00    +0.000 N 
ATOM      4  C   UNL     1       3.899   6.941  17.836  0.00  0.00    +0.000 C 
ATOM      5  C   UNL     1       2.480   7.555  17.898  0.00  0.00    +0.000 C 
ATOM      6  N   UNL     1       1.932   7.313  19.230  0.00  0.00    +0.000 N 
ATOM      7  C   UNL     1       1.418   8.334  19.986  0.00  0.00    +0.000 A 
ATOM      8  C   UNL     1       1.484   8.290  21.380  0.00  0.00    +0.000 A 
ATOM      9  C   UNL     1       0.974   9.334  22.149  0.00  0.00    +0.000 A 
ATOM     10  C   UNL     1       0.383  10.405  21.505  0.00  0.00    +0.000 A 
ATOM     11 CL   UNL     1      -0.278  11.706  22.404  0.00  0.00    +0.000 Cl
ATOM     12  C   UNL     1       0.351  10.392  20.123  0.00  0.00    +0.000 A 
ATOM     13  N   UNL     1       0.873   9.398  19.359  0.00  0.00    +0.000 NA
ATOM     14  C   UNL     1       1.854   5.909  19.634  0.00  0.00    +0.000 C 
ATOM     15  C   UNL     1       3.256   5.294  19.583  0.00  0.00    +0.000 C 
ENDROOT
BRANCH   2  16
ATOM     16  C   UNL     1       5.174   4.722  16.294  0.00  0.00    +0.000 C 
BRANCH  16  17
ATOM     17  C   UNL     1       6.683   4.622  16.499  0.00  0.00    +0.000 C 
BRANCH  17  18
ATOM     18  C   UNL     1       7.218   5.834  17.197  0.00  0.00    +0.000 A 
ATOM     19  N   UNL     1       7.353   7.019  16.636  0.00  0.00    +0.000 NA
ATOM     20  C   UNL     1       7.918   7.900  17.538  0.00  0.00    +0.000 A 
ATOM     21  C   UNL     1       8.201   7.378  18.780  0.00  0.00    +0.000 A 
ATOM     22  S   UNL     1       7.737   5.731  18.834  0.00  0.00    +0.000 S 
ENDBRANCH  17  18
ENDBRANCH  16  17
ENDBRANCH   2  16
TORSDOF 3
ENDMDL
MODEL 2
REMARK VINA RESULT:      -6.5      2.087      2.654
REMARK  Name = 
REMARK  3 active torsions:
REMARK  status: ('A' for Active; 'I' for Inactive)
REMARK    1  A    between atoms: C_2  and  C_3
REMARK    2  A    between atoms: C_3  and  C_4
REMARK    3  A    between atoms: C_4  and  C_5
REMARK                            x       y       z     vdW  Elec       q    Type
REMARK                         _______ _______ _______ _____ _____    ______ ____
ROOT
ATOM      1  O   UNL     1       4.924   4.224  17.709  0.00  0.00    +0.000 OA
ATOM      2  C   UNL     1       4.741   5.387  17.344  0.00  0.00    +0.000 C 
ATOM      3  N   UNL     1       4.066   6.298  18.138  0.00  0.00    +0.000 N 
ATOM      4  C   UNL     1       3.776   7.711  17.812  0.00  0.00    +0.000 C 
ATOM      5  C   UNL     1       2.278   8.046  18.007  0.00  0.00    +0.000 C 
ATOM      6  N   UNL     1       1.883   7.620  19.348  0.00  0.00    +0.000 N 
ATOM      7  C   UNL     1       1.251   8.475  20.210  0.00  0.00    +0.000 A 
ATOM      8  C   UNL     1       1.427   8.353  21.591  0.00  0.00    +0.000 A 
ATOM      9  C   UNL     1       0.795   9.231  22.468  0.00  0.00    +0.000 A 
ATOM     10  C   UNL     1      -0.025  10.215  21.948  0.00  0.00    +0.000 A 
ATOM     11 CL   UNL     1      -0.841  11.309  22.983  0.00  0.00    +0.000 Cl
ATOM     12  C   UNL     1      -0.157  10.287  20.573  0.00  0.00    +0.000 A 
ATOM     13  N   UNL     1       0.478   9.459  19.703  0.00  0.00    +0.000 NA
ATOM     14  C   UNL     1       2.089   6.201  19.644  0.00  0.00    +0.000 C 
ATOM     15  C   UNL     1       3.571   5.862  19.460  0.00  0.00    +0.000 C 
ENDROOT
BRANCH   2  16
ATOM     16  C   UNL     1       5.313   5.872  16.027  0.00  0.00    +0.000 C 
BRANCH  16  17
ATOM     17  C   UNL     1       6.735   5.351  15.838  0.00  0.00    +0.000 C 
BRANCH  17  18
ATOM     18  C   UNL     1       6.979   4.939  14.419  0.00  0.00    +0.000 A 
ATOM     19  N   UNL     1       7.871   5.497  13.624  0.00  0.00    +0.000 NA
ATOM     20  C   UNL     1       7.808   4.915  12.373  0.00  0.00    +0.000 A 
ATOM     21  C   UNL     1       6.873   3.915  12.230  0.00  0.00    +0.000 A 
ATOM     22  S   UNL     1       6.047   3.680  13.710  0.00  0.00    +0.000 S 
ENDBRANCH  17  18
ENDBRANCH  16  17
ENDBRANCH   2  16
TORSDOF 3
ENDMDL
MODEL 3
REMARK VINA RESULT:      -6.4      2.115      2.636
REMARK  Name = 
REMARK  3 active torsions:
REMARK  status: ('A' for Active; 'I' for Inactive)
REMARK    1  A    between atoms: C_2  and  C_3
REMARK    2  A    between atoms: C_3  and  C_4
REMARK    3  A    between atoms: C_4  and  C_5
REMARK                            x       y       z     vdW  Elec       q    Type
REMARK                         _______ _______ _______ _____ _____    ______ ____
ROOT
ATOM      1  O   UNL     1       5.139   3.283  18.492  0.00  0.00    +0.000 OA
ATOM      2  C   UNL     1       5.241   4.402  17.989  0.00  0.00    +0.000 C 
ATOM      3  N   UNL     1       4.553   5.491  18.496  0.00  0.00    +0.000 N 
ATOM      4  C   UNL     1       4.583   6.877  17.978  0.00  0.00    +0.000 C 
ATOM      5  C   UNL     1       3.157   7.432  17.752  0.00  0.00    +0.000 C 
ATOM      6  N   UNL     1       2.389   7.240  18.980  0.00  0.00    +0.000 N 
ATOM      7  C   UNL     1       1.717   8.277  19.570  0.00  0.00    +0.000 A 
ATOM      8  C   UNL     1       1.535   8.312  20.954  0.00  0.00    +0.000 A 
ATOM      9  C   UNL     1       0.863   9.374  21.556  0.00  0.00    +0.000 A 
ATOM     10  C   UNL     1       0.362  10.383  20.755  0.00  0.00    +0.000 A 
ATOM     11 CL   UNL     1      -0.489  11.702  21.443  0.00  0.00    +0.000 Cl
ATOM     12  C   UNL     1       0.577  10.294  19.392  0.00  0.00    +0.000 A 
ATOM     13  N   UNL     1       1.258   9.283  18.793  0.00  0.00    +0.000 NA
ATOM     14  C   UNL     1       2.284   5.857  19.448  0.00  0.00    +0.000 C 
ATOM     15  C   UNL     1       3.692   5.301  19.682  0.00  0.00    +0.000 C 
ENDROOT
BRANCH   2  16
ATOM     16  C   UNL     1       6.182   4.632  16.822  0.00  0.00    +0.000 C 
BRANCH  16  17
ATOM     17  C   UNL     1       5.663   3.931  15.571  0.00  0.00    +0.000 C 
BRANCH  17  18
ATOM     18  C   UNL     1       6.466   4.305  14.364  0.00  0.00    +0.000 A 
ATOM     19  N   UNL     1       7.437   5.197  14.362  0.00  0.00    +0.000 NA
ATOM     20  C   UNL     1       7.938   5.337  13.082  0.00  0.00    +0.000 A 
ATOM     21  C   UNL     1       7.346   4.546  12.123  0.00  0.00    +0.000 A 
ATOM     22  S   UNL     1       6.129   3.580  12.841  0.00  0.00    +0.000 S 
ENDBRANCH  17  18
ENDBRANCH  16  17
ENDBRANCH   2  16
TORSDOF 3
ENDMDL
MODEL 4
REMARK VINA RESULT:      -6.3      1.016      1.121
REMARK  Name = 
REMARK  3 active torsions:
REMARK  status: ('A' for Active; 'I' for Inactive)
REMARK    1  A    between atoms: C_2  and  C_3
REMARK    2  A    between atoms: C_3  and  C_4
REMARK    3  A    between atoms: C_4  and  C_5
REMARK                            x       y       z     vdW  Elec       q    Type
REMARK                         _______ _______ _______ _____ _____    ______ ____
ROOT
ATOM      1  O   UNL     1       4.400   3.385  17.134  0.00  0.00    +0.000 OA
ATOM      2  C   UNL     1       4.543   4.578  16.866  0.00  0.00    +0.000 C 
ATOM      3  N   UNL     1       4.002   5.571  17.665  0.00  0.00    +0.000 N 
ATOM      4  C   UNL     1       4.095   7.031  17.448  0.00  0.00    +0.000 C 
ATOM      5  C   UNL     1       2.705   7.707  17.509  0.00  0.00    +0.000 C 
ATOM      6  N   UNL     1       2.050   7.300  18.749  0.00  0.00    +0.000 N 
ATOM      7  C   UNL     1       1.528   8.223  19.616  0.00  0.00    +0.000 A 
ATOM      8  C   UNL     1       1.489   7.968  20.989  0.00  0.00    +0.000 A 
ATOM      9  C   UNL     1       0.971   8.912  21.873  0.00  0.00    +0.000 A 
ATOM     10  C   UNL     1       0.478  10.099  21.363  0.00  0.00    +0.000 A 
ATOM     11 CL   UNL     1      -0.188  11.286  22.404  0.00  0.00    +0.000 Cl
ATOM     12  C   UNL     1       0.548  10.294  19.996  0.00  0.00    +0.000 A 
ATOM     13  N   UNL     1       1.080   9.398  19.125  0.00  0.00    +0.000 NA
ATOM     14  C   UNL     1       1.878   5.857  18.928  0.00  0.00    +0.000 C 
ATOM     15  C   UNL     1       3.251   5.180  18.876  0.00  0.00    +0.000 C 
ENDROOT
BRANCH   2  16
ATOM     16  C   UNL     1       5.379   4.998  15.673  0.00  0.00    +0.000 C 
BRANCH  16  17
ATOM     17  C   UNL     1       6.845   4.638  15.896  0.00  0.00    +0.000 C 
BRANCH  17  18
ATOM     18  C   UNL     1       7.374   5.261  17.150  0.00  0.00    +0.000 A 
ATOM     19  N   UNL     1       7.733   4.586  18.224  0.00  0.00    +0.000 NA
ATOM     20  C   UNL     1       8.130   5.463  19.215  0.00  0.00    +0.000 A 
ATOM     21  C   UNL     1       8.075   6.798  18.883  0.00  0.00    +0.000 A 
ATOM     22  S   UNL     1       7.521   6.971  17.272  0.00  0.00    +0.000 S 
ENDBRANCH  17  18
ENDBRANCH  16  17
ENDBRANCH   2  16
TORSDOF 3
ENDMDL
MODEL 5
REMARK VINA RESULT:      -6.3      2.903      4.518
REMARK  Name = 
REMARK  3 active torsions:
REMARK  status: ('A' for Active; 'I' for Inactive)
REMARK    1  A    between atoms: C_2  and  C_3
REMARK    2  A    between atoms: C_3  and  C_4
REMARK    3  A    between atoms: C_4  and  C_5
REMARK                            x       y       z     vdW  Elec       q    Type
REMARK                         _______ _______ _______ _____ _____    ______ ____
ROOT
ATOM      1  O   UNL     1       4.642   6.108  17.339  0.00  0.00    +0.000 OA
ATOM      2  C   UNL     1       4.054   6.130  18.420  0.00  0.00    +0.000 C 
ATOM      3  N   UNL     1       2.926   6.907  18.618  0.00  0.00    +0.000 N 
ATOM      4  C   UNL     1       2.139   7.026  19.865  0.00  0.00    +0.000 C 
ATOM      5  C   UNL     1       1.924   8.505  20.265  0.00  0.00    +0.000 C 
ATOM      6  N   UNL     1       1.379   9.218  19.112  0.00  0.00    +0.000 N 
ATOM      7  C   UNL     1       0.241   9.972  19.213  0.00  0.00    +0.000 A 
ATOM      8  C   UNL     1      -0.615  10.120  18.120  0.00  0.00    +0.000 A 
ATOM      9  C   UNL     1      -1.780  10.876  18.226  0.00  0.00    +0.000 A 
ATOM     10  C   UNL     1      -2.063  11.494  19.430  0.00  0.00    +0.000 A 
ATOM     11 CL   UNL     1      -3.473  12.452  19.609  0.00  0.00    +0.000 Cl
ATOM     12  C   UNL     1      -1.180  11.308  20.477  0.00  0.00    +0.000 A 
ATOM     13  N   UNL     1      -0.057  10.547  20.399  0.00  0.00    +0.000 NA
ATOM     14  C   UNL     1       2.198   9.174  17.900  0.00  0.00    +0.000 C 
ATOM     15  C   UNL     1       2.411   7.713  17.492  0.00  0.00    +0.000 C 
ENDROOT
BRANCH   2  16
ATOM     16  C   UNL     1       4.521   5.246  19.561  0.00  0.00    +0.000 C 
BRANCH  16  17
ATOM     17  C   UNL     1       4.420   3.774  19.171  0.00  0.00    +0.000 C 
BRANCH  17  18
ATOM     18  C   UNL     1       3.003   3.293  19.226  0.00  0.00    +0.000 A 
ATOM     19  N   UNL     1       2.235   3.356  20.296  0.00  0.00    +0.000 NA
ATOM     20  C   UNL     1       1.007   2.785  20.022  0.00  0.00    +0.000 A 
ATOM     21  C   UNL     1       0.850   2.299  18.744  0.00  0.00    +0.000 A 
ATOM     22  S   UNL     1       2.280   2.571  17.842  0.00  0.00    +0.000 S 
ENDBRANCH  17  18
ENDBRANCH  16  17
ENDBRANCH   2  16
TORSDOF 3
ENDMDL
MODEL 6
REMARK VINA RESULT:      -6.2      2.339      3.292
REMARK  Name = 
REMARK  3 active torsions:
REMARK  status: ('A' for Active; 'I' for Inactive)
REMARK    1  A    between atoms: C_2  and  C_3
REMARK    2  A    between atoms: C_3  and  C_4
REMARK    3  A    between atoms: C_4  and  C_5
REMARK                            x       y       z     vdW  Elec       q    Type
REMARK                         _______ _______ _______ _____ _____    ______ ____
ROOT
ATOM      1  O   UNL     1       2.267   5.579  20.390  0.00  0.00    +0.000 OA
ATOM      2  C   UNL     1       2.439   6.294  19.403  0.00  0.00    +0.000 C 
ATOM      3  N   UNL     1       2.179   7.653  19.437  0.00  0.00    +0.000 N 
ATOM      4  C   UNL     1       2.335   8.613  18.323  0.00  0.00    +0.000 C 
ATOM      5  C   UNL     1       1.055   9.456  18.111  0.00  0.00    +0.000 C 
ATOM      6  N   UNL     1       0.675  10.044  19.394  0.00  0.00    +0.000 N 
ATOM      7  C   UNL     1       0.445  11.388  19.522  0.00  0.00    +0.000 A 
ATOM      8  C   UNL     1       0.705  12.044  20.727  0.00  0.00    +0.000 A 
ATOM      9  C   UNL     1       0.483  13.413  20.854  0.00  0.00    +0.000 A 
ATOM     10  C   UNL     1      -0.018  14.107  19.769  0.00  0.00    +0.000 A 
ATOM     11 CL   UNL     1      -0.328  15.789  19.877  0.00  0.00    +0.000 Cl
ATOM     12  C   UNL     1      -0.252  13.404  18.602  0.00  0.00    +0.000 A 
ATOM     13  N   UNL     1      -0.010  12.075  18.452  0.00  0.00    +0.000 NA
ATOM     14  C   UNL     1       0.435   9.090  20.478  0.00  0.00    +0.000 C 
ATOM     15  C   UNL     1       1.700   8.255  20.699  0.00  0.00    +0.000 C 
ENDROOT
BRANCH   2  16
ATOM     16  C   UNL     1       3.006   5.707  18.125  0.00  0.00    +0.000 C 
BRANCH  16  17
ATOM     17  C   UNL     1       4.057   4.649  18.445  0.00  0.00    +0.000 C 
BRANCH  17  18
ATOM     18  C   UNL     1       5.429   5.246  18.510  0.00  0.00    +0.000 A 
ATOM     19  N   UNL     1       6.284   5.042  19.492  0.00  0.00    +0.000 NA
ATOM     20  C   UNL     1       7.435   5.774  19.268  0.00  0.00    +0.000 A 
ATOM     21  C   UNL     1       7.445   6.523  18.112  0.00  0.00    +0.000 A 
ATOM     22  S   UNL     1       5.974   6.300  17.265  0.00  0.00    +0.000 S 
ENDBRANCH  17  18
ENDBRANCH  16  17
ENDBRANCH   2  16
TORSDOF 3
ENDMDL
MODEL 7
REMARK VINA RESULT:      -6.2      2.341      3.572
REMARK  Name = 
REMARK  3 active torsions:
REMARK  status: ('A' for Active; 'I' for Inactive)
REMARK    1  A    between atoms: C_2  and  C_3
REMARK    2  A    between atoms: C_3  and  C_4
REMARK    3  A    between atoms: C_4  and  C_5
REMARK                            x       y       z     vdW  Elec       q    Type
REMARK                         _______ _______ _______ _____ _____    ______ ____
ROOT
ATOM      1  O   UNL     1       2.440   6.170  20.170  0.00  0.00    +0.000 OA
ATOM      2  C   UNL     1       2.282   7.148  19.438  0.00  0.00    +0.000 C 
ATOM      3  N   UNL     1       1.674   8.305  19.894  0.00  0.00    +0.000 N 
ATOM      4  C   UNL     1       1.420   9.537  19.116  0.00  0.00    +0.000 C 
ATOM      5  C   UNL     1      -0.056   9.989  19.229  0.00  0.00    +0.000 C 
ATOM      6  N   UNL     1      -0.407  10.060  20.645  0.00  0.00    +0.000 N 
ATOM      7  C   UNL     1      -0.971  11.185  21.183  0.00  0.00    +0.000 A 
ATOM      8  C   UNL     1      -0.740  11.529  22.518  0.00  0.00    +0.000 A 
ATOM      9  C   UNL     1      -1.303  12.681  23.062  0.00  0.00    +0.000 A 
ATOM     10  C   UNL     1      -2.110  13.468  22.263  0.00  0.00    +0.000 A 
ATOM     11 CL   UNL     1      -2.842  14.885  22.888  0.00  0.00    +0.000 Cl
ATOM     12  C   UNL     1      -2.298  13.078  20.949  0.00  0.00    +0.000 A 
ATOM     13  N   UNL     1      -1.730  11.976  20.394  0.00  0.00    +0.000 NA
ATOM     14  C   UNL     1      -0.238   8.817  21.399  0.00  0.00    +0.000 C 
ATOM     15  C   UNL     1       1.222   8.366  21.299  0.00  0.00    +0.000 C 
ENDROOT
BRANCH   2  16
ATOM     16  C   UNL     1       2.814   7.132  18.018  0.00  0.00    +0.000 C 
BRANCH  16  17
ATOM     17  C   UNL     1       3.508   5.806  17.723  0.00  0.00    +0.000 C 
BRANCH  17  18
ATOM     18  C   UNL     1       4.997   5.940  17.806  0.00  0.00    +0.000 A 
ATOM     19  N   UNL     1       5.741   6.550  16.905  0.00  0.00    +0.000 NA
ATOM     20  C   UNL     1       7.074   6.454  17.259  0.00  0.00    +0.000 A 
ATOM     21  C   UNL     1       7.329   5.777  18.430  0.00  0.00    +0.000 A 
ATOM     22  S   UNL     1       5.857   5.249  19.126  0.00  0.00    +0.000 S 
ENDBRANCH  17  18
ENDBRANCH  16  17
ENDBRANCH   2  16
TORSDOF 3
ENDMDL
MODEL 8
REMARK VINA RESULT:      -6.2      4.949      8.390
REMARK  Name = 
REMARK  3 active torsions:
REMARK  status: ('A' for Active; 'I' for Inactive)
REMARK    1  A    between atoms: C_2  and  C_3
REMARK    2  A    between atoms: C_3  and  C_4
REMARK    3  A    between atoms: C_4  and  C_5
REMARK                            x       y       z     vdW  Elec       q    Type
REMARK                         _______ _______ _______ _____ _____    ______ ____
ROOT
ATOM      1  O   UNL     1      -0.876  11.382  22.030  0.00  0.00    +0.000 OA
ATOM      2  C   UNL     1      -0.597  11.154  20.853  0.00  0.00    +0.000 C 
ATOM      3  N   UNL     1      -0.081   9.934  20.453  0.00  0.00    +0.000 N 
ATOM      4  C   UNL     1       0.301   9.541  19.079  0.00  0.00    +0.000 C 
ATOM      5  C   UNL     1       1.733   8.958  19.029  0.00  0.00    +0.000 C 
ATOM      6  N   UNL     1       1.834   7.901  20.032  0.00  0.00    +0.000 N 
ATOM      7  C   UNL     1       2.293   6.652  19.707  0.00  0.00    +0.000 A 
ATOM      8  C   UNL     1       1.834   5.524  20.392  0.00  0.00    +0.000 A 
ATOM      9  C   UNL     1       2.290   4.253  20.053  0.00  0.00    +0.000 A 
ATOM     10  C   UNL     1       3.221   4.129  19.039  0.00  0.00    +0.000 A 
ATOM     11 CL   UNL     1       3.830   2.590  18.596  0.00  0.00    +0.000 Cl
ATOM     12  C   UNL     1       3.635   5.281  18.397  0.00  0.00    +0.000 A 
ATOM     13  N   UNL     1       3.175   6.525  18.693  0.00  0.00    +0.000 NA
ATOM     14  C   UNL     1       1.541   8.307  21.407  0.00  0.00    +0.000 C 
ATOM     15  C   UNL     1       0.121   8.879  21.468  0.00  0.00    +0.000 C 
ENDROOT
BRANCH   2  16
ATOM     16  C   UNL     1      -0.875  12.196  19.787  0.00  0.00    +0.000 C 
BRANCH  16  17
ATOM     17  C   UNL     1      -2.377  12.406  19.623  0.00  0.00    +0.000 C 
BRANCH  17  18
ATOM     18  C   UNL     1      -2.872  11.819  18.338  0.00  0.00    +0.000 A 
ATOM     19  N   UNL     1      -2.106  11.545  17.300  0.00  0.00    +0.000 NA
ATOM     20  C   UNL     1      -2.881  11.060  16.264  0.00  0.00    +0.000 A 
ATOM     21  C   UNL     1      -4.229  10.964  16.526  0.00  0.00    +0.000 A 
ATOM     22  S   UNL     1      -4.546  11.485  18.126  0.00  0.00    +0.000 S 
ENDBRANCH  17  18
ENDBRANCH  16  17
ENDBRANCH   2  16
TORSDOF 3
ENDMDL
MODEL 9
REMARK VINA RESULT:      -6.1      3.704      5.615
REMARK  Name = 
REMARK  3 active torsions:
REMARK  status: ('A' for Active; 'I' for Inactive)
REMARK    1  A    between atoms: C_2  and  C_3
REMARK    2  A    between atoms: C_3  and  C_4
REMARK    3  A    between atoms: C_4  and  C_5
REMARK                            x       y       z     vdW  Elec       q    Type
REMARK                         _______ _______ _______ _____ _____    ______ ____
ROOT
ATOM      1  O   UNL     1       2.328   8.628  17.356  0.00  0.00    +0.000 OA
ATOM      2  C   UNL     1       2.037   8.371  18.525  0.00  0.00    +0.000 C 
ATOM      3  N   UNL     1       1.164   9.166  19.247  0.00  0.00    +0.000 N 
ATOM      4  C   UNL     1       0.744   8.970  20.652  0.00  0.00    +0.000 C 
ATOM      5  C   UNL     1       0.923  10.260  21.486  0.00  0.00    +0.000 C 
ATOM      6  N   UNL     1       0.262  11.357  20.784  0.00  0.00    +0.000 N 
ATOM      7  C   UNL     1      -0.649  12.161  21.415  0.00  0.00    +0.000 A 
ATOM      8  C   UNL     1      -1.701  12.742  20.702  0.00  0.00    +0.000 A 
ATOM      9  C   UNL     1      -2.636  13.549  21.346  0.00  0.00    +0.000 A 
ATOM     10  C   UNL     1      -2.491  13.781  22.701  0.00  0.00    +0.000 A 
ATOM     11 CL   UNL     1      -3.602  14.782  23.538  0.00  0.00    +0.000 Cl
ATOM     12  C   UNL     1      -1.432  13.177  23.352  0.00  0.00    +0.000 A 
ATOM     13  N   UNL     1      -0.531  12.361  22.745  0.00  0.00    +0.000 NA
ATOM     14  C   UNL     1       0.736  11.609  19.422  0.00  0.00    +0.000 C 
ATOM     15  C   UNL     1       0.555  10.339  18.586  0.00  0.00    +0.000 C 
ENDROOT
BRANCH   2  16
ATOM     16  C   UNL     1       2.588   7.126  19.192  0.00  0.00    +0.000 C 
BRANCH  16  17
ATOM     17  C   UNL     1       2.519   5.936  18.240  0.00  0.00    +0.000 C 
BRANCH  17  18
ATOM     18  C   UNL     1       1.976   4.721  18.926  0.00  0.00    +0.000 A 
ATOM     19  N   UNL     1       1.531   4.702  20.167  0.00  0.00    +0.000 NA
ATOM     20  C   UNL     1       1.146   3.418  20.504  0.00  0.00    +0.000 A 
ATOM     21  C   UNL     1       1.296   2.474  19.514  0.00  0.00    +0.000 A 
ATOM     22  S   UNL     1       1.928   3.211  18.103  0.00  0.00    +0.000 S 
ENDBRANCH  17  18
ENDBRANCH  16  17
ENDBRANCH   2  16
TORSDOF 3
ENDMDL
