MODEL 1
REMARK VINA RESULT:      -6.0      0.000      0.000
REMARK  Name = 
REMARK  17 active torsions:
REMARK  status: ('A' for Active; 'I' for Inactive)
REMARK    1  A    between atoms: C_1  and  C_2
REMARK    2  A    between atoms: C_2  and  O_3
REMARK    3  A    between atoms: O_3  and  C_4
REMARK    4  A    between atoms: C_4  and  C_6
REMARK    5  A    between atoms: C_7  and  C_8
REMARK    6  A    between atoms: C_7  and  C_9
REMARK    7  A    between atoms: C_10  and  C_11
REMARK    8  A    between atoms: C_11  and  C_12
REMARK    9  A    between atoms: C_12  and  C_13
REMARK   10  A    between atoms: C_12  and  C_14
REMARK   11  A    between atoms: C_14  and  C_15
REMARK   12  A    between atoms: C_15  and  C_16
REMARK   13  A    between atoms: C_16  and  O_17
REMARK   14  A    between atoms: C_16  and  C_19
REMARK   15  A    between atoms: O_17  and  C_18
REMARK   16  A    between atoms: C_19  and  C_20
REMARK   17  A    between atoms: C_19  and  C_21
REMARK                            x       y       z     vdW  Elec       q    Type
REMARK                         _______ _______ _______ _____ _____    ______ ____
ROOT
ATOM      1  C   UNL     1       5.611   6.402  17.126  0.00  0.00    +0.000 C 
ENDROOT
BRANCH   1   3
ATOM      2  C   UNL     1       6.221   4.750  15.327  0.00  0.00    +0.000 C 
ATOM      3  C   UNL     1       5.795   5.959  15.716  0.00  0.00    +0.000 C 
BRANCH   2   5
ATOM      4  C   UNL     1       5.418   3.500  13.411  0.00  0.00    +0.000 C 
ATOM      5  C   UNL     1       6.347   4.332  13.930  0.00  0.00    +0.000 C 
ATOM      6  C   UNL     1       7.501   4.934  13.157  0.00  0.00    +0.000 C 
BRANCH   4   7
ATOM      7  C   UNL     1       5.407   3.060  12.000  0.00  0.00    +0.000 C 
ATOM      8  O   UNL     1       6.103   2.187  11.513  0.00  0.00    +0.000 OA
BRANCH   7   9
ATOM      9  O   UNL     1       4.553   3.872  11.324  0.00  0.00    +0.000 OA
BRANCH   9  11
ATOM     10  C   UNL     1       2.935   4.053   9.594  0.00  0.00    +0.000 C 
ATOM     11  C   UNL     1       3.434   3.194  10.741  0.00  0.00    +0.000 C 
ENDBRANCH   9  11
ENDBRANCH   7   9
ENDBRANCH   4   7
ENDBRANCH   2   5
ENDBRANCH   1   3
BRANCH   1  12
ATOM     12  C   UNL     1       6.313   5.454  18.131  0.00  0.00    +0.000 C 
ATOM     13  C   UNL     1       7.660   6.030  18.591  0.00  0.00    +0.000 C 
BRANCH  12  14
ATOM     14  C   UNL     1       5.412   5.172  19.353  0.00  0.00    +0.000 C 
BRANCH  14  15
ATOM     15  C   UNL     1       4.902   3.722  19.370  0.00  0.00    +0.000 C 
BRANCH  15  16
ATOM     16  C   UNL     1       3.374   3.592  19.232  0.00  0.00    +0.000 C 
BRANCH  16  17
ATOM     17  C   UNL     1       2.846   4.115  17.865  0.00  0.00    +0.000 C 
ATOM     18  C   UNL     1       3.280   3.244  16.683  0.00  0.00    +0.000 C 
ATOM     19  C   UNL     1       1.318   4.232  17.872  0.00  0.00    +0.000 C 
ENDBRANCH  16  17
BRANCH  16  20
ATOM     20  O   UNL     1       2.713   4.210  20.347  0.00  0.00    +0.000 OA
ATOM     21  C   UNL     1       2.425   3.369  21.459  0.00  0.00    +0.000 C 
ENDBRANCH  16  20
ENDBRANCH  15  16
ENDBRANCH  14  15
ENDBRANCH  12  14
ENDBRANCH   1  12
TORSDOF 11
ENDMDL
MODEL 2
REMARK VINA RESULT:      -6.0      1.890      3.296
REMARK  Name = 
REMARK  17 active torsions:
REMARK  status: ('A' for Active; 'I' for Inactive)
REMARK    1  A    between atoms: C_1  and  C_2
REMARK    2  A    between atoms: C_2  and  O_3
REMARK    3  A    between atoms: O_3  and  C_4
REMARK    4  A    between atoms: C_4  and  C_6
REMARK    5  A    between atoms: C_7  and  C_8
REMARK    6  A    between atoms: C_7  and  C_9
REMARK    7  A    between atoms: C_10  and  C_11
REMARK    8  A    between atoms: C_11  and  C_12
REMARK    9  A    between atoms: C_12  and  C_13
REMARK   10  A    between atoms: C_12  and  C_14
REMARK   11  A    between atoms: C_14  and  C_15
REMARK   12  A    between atoms: C_15  and  C_16
REMARK   13  A    between atoms: C_16  and  O_17
REMARK   14  A    between atoms: C_16  and  C_19
REMARK   15  A    between atoms: O_17  and  C_18
REMARK   16  A    between atoms: C_19  and  C_20
REMARK   17  A    between atoms: C_19  and  C_21
REMARK                            x       y       z     vdW  Elec       q    Type
REMARK                         _______ _______ _______ _____ _____    ______ ____
ROOT
ATOM      1  C   UNL     1       3.969   5.752  19.563  0.00  0.00    +0.000 C 
ENDROOT
BRANCH   1   3
ATOM      2  C   UNL     1       5.379   5.325  17.522  0.00  0.00    +0.000 C 
ATOM      3  C   UNL     1       4.402   5.986  18.158  0.00  0.00    +0.000 C 
BRANCH   2   5
ATOM      4  C   UNL     1       6.587   4.676  15.523  0.00  0.00    +0.000 C 
ATOM      5  C   UNL     1       5.750   5.549  16.125  0.00  0.00    +0.000 C 
ATOM      6  C   UNL     1       5.097   6.733  15.445  0.00  0.00    +0.000 C 
BRANCH   4   7
ATOM      7  C   UNL     1       6.983   4.765  14.102  0.00  0.00    +0.000 C 
ATOM      8  O   UNL     1       7.915   5.409  13.653  0.00  0.00    +0.000 OA
BRANCH   7   9
ATOM      9  O   UNL     1       6.061   4.081  13.376  0.00  0.00    +0.000 OA
BRANCH   9  11
ATOM     10  C   UNL     1       5.504   2.512  11.682  0.00  0.00    +0.000 C 
ATOM     11  C   UNL     1       6.594   3.419  12.223  0.00  0.00    +0.000 C 
ENDBRANCH   9  11
ENDBRANCH   7   9
ENDBRANCH   4   7
ENDBRANCH   2   5
ENDBRANCH   1   3
BRANCH   1  12
ATOM     12  C   UNL     1       2.427   5.795  19.713  0.00  0.00    +0.000 C 
ATOM     13  C   UNL     1       1.947   7.194  20.124  0.00  0.00    +0.000 C 
BRANCH  12  14
ATOM     14  C   UNL     1       1.729   5.356  18.408  0.00  0.00    +0.000 C 
BRANCH  14  15
ATOM     15  C   UNL     1       1.475   3.840  18.371  0.00  0.00    +0.000 C 
BRANCH  15  16
ATOM     16  C   UNL     1       2.113   3.067  19.540  0.00  0.00    +0.000 C 
BRANCH  16  17
ATOM     17  C   UNL     1       3.148   2.008  19.067  0.00  0.00    +0.000 C 
ATOM     18  C   UNL     1       3.456   2.098  17.570  0.00  0.00    +0.000 C 
ATOM     19  C   UNL     1       4.455   2.121  19.859  0.00  0.00    +0.000 C 
ENDBRANCH  16  17
BRANCH  16  20
ATOM     20  O   UNL     1       1.097   2.503  20.384  0.00  0.00    +0.000 OA
ATOM     21  C   UNL     1       1.307   2.609  21.787  0.00  0.00    +0.000 C 
ENDBRANCH  16  20
ENDBRANCH  15  16
ENDBRANCH  14  15
ENDBRANCH  12  14
ENDBRANCH   1  12
TORSDOF 11
ENDMDL
MODEL 3
REMARK VINA RESULT:      -5.7      0.920      1.204
REMARK  Name = 
REMARK  17 active torsions:
REMARK  status: ('A' for Active; 'I' for Inactive)
REMARK    1  A    between atoms: C_1  and  C_2
REMARK    2  A    between atoms: C_2  and  O_3
REMARK    3  A    between atoms: O_3  and  C_4
REMARK    4  A    between atoms: C_4  and  C_6
REMARK    5  A    between atoms: C_7  and  C_8
REMARK    6  A    between atoms: C_7  and  C_9
REMARK    7  A    between atoms: C_10  and  C_11
REMARK    8  A    between atoms: C_11  and  C_12
REMARK    9  A    between atoms: C_12  and  C_13
REMARK   10  A    between atoms: C_12  and  C_14
REMARK   11  A    between atoms: C_14  and  C_15
REMARK   12  A    between atoms: C_15  and  C_16
REMARK   13  A    between atoms: C_16  and  O_17
REMARK   14  A    between atoms: C_16  and  C_19
REMARK   15  A    between atoms: O_17  and  C_18
REMARK   16  A    between atoms: C_19  and  C_20
REMARK   17  A    between atoms: C_19  and  C_21
REMARK                            x       y       z     vdW  Elec       q    Type
REMARK                         _______ _______ _______ _____ _____    ______ ____
ROOT
ATOM      1  C   UNL     1       6.384   4.735  17.374  0.00  0.00    +0.000 C 
ENDROOT
BRANCH   1   3
ATOM      2  C   UNL     1       6.881   4.745  14.906  0.00  0.00    +0.000 C 
ATOM      3  C   UNL     1       6.161   4.331  15.958  0.00  0.00    +0.000 C 
BRANCH   2   5
ATOM      4  C   UNL     1       5.681   3.399  13.285  0.00  0.00    +0.000 C 
ATOM      5  C   UNL     1       6.664   4.292  13.532  0.00  0.00    +0.000 C 
ATOM      6  C   UNL     1       7.543   4.928  12.476  0.00  0.00    +0.000 C 
BRANCH   4   7
ATOM      7  C   UNL     1       5.329   2.917  11.934  0.00  0.00    +0.000 C 
ATOM      8  O   UNL     1       5.817   1.958  11.362  0.00  0.00    +0.000 OA
BRANCH   7   9
ATOM      9  O   UNL     1       4.438   3.795  11.404  0.00  0.00    +0.000 OA
BRANCH   9  11
ATOM     10  C   UNL     1       2.924   4.200   9.619  0.00  0.00    +0.000 C 
ATOM     11  C   UNL     1       3.390   3.182  10.644  0.00  0.00    +0.000 C 
ENDBRANCH   9  11
ENDBRANCH   7   9
ENDBRANCH   4   7
ENDBRANCH   2   5
ENDBRANCH   1   3
BRANCH   1  12
ATOM     12  C   UNL     1       5.435   5.880  17.810  0.00  0.00    +0.000 C 
ATOM     13  C   UNL     1       4.691   6.474  16.605  0.00  0.00    +0.000 C 
BRANCH  12  14
ATOM     14  C   UNL     1       4.424   5.392  18.870  0.00  0.00    +0.000 C 
BRANCH  14  15
ATOM     15  C   UNL     1       4.696   3.943  19.302  0.00  0.00    +0.000 C 
BRANCH  15  16
ATOM     16  C   UNL     1       3.429   3.075  19.427  0.00  0.00    +0.000 C 
BRANCH  16  17
ATOM     17  C   UNL     1       2.326   3.471  18.405  0.00  0.00    +0.000 C 
ATOM     18  C   UNL     1       2.758   3.272  16.950  0.00  0.00    +0.000 C 
ATOM     19  C   UNL     1       1.033   2.690  18.659  0.00  0.00    +0.000 C 
ENDBRANCH  16  17
BRANCH  16  20
ATOM     20  O   UNL     1       2.949   3.078  20.781  0.00  0.00    +0.000 OA
ATOM     21  C   UNL     1       2.270   4.253  21.210  0.00  0.00    +0.000 C 
ENDBRANCH  16  20
ENDBRANCH  15  16
ENDBRANCH  14  15
ENDBRANCH  12  14
ENDBRANCH   1  12
TORSDOF 11
ENDMDL
MODEL 4
REMARK VINA RESULT:      -5.7      4.302      7.877
REMARK  Name = 
REMARK  17 active torsions:
REMARK  status: ('A' for Active; 'I' for Inactive)
REMARK    1  A    between atoms: C_1  and  C_2
REMARK    2  A    between atoms: C_2  and  O_3
REMARK    3  A    between atoms: O_3  and  C_4
REMARK    4  A    between atoms: C_4  and  C_6
REMARK    5  A    between atoms: C_7  and  C_8
REMARK    6  A    between atoms: C_7  and  C_9
REMARK    7  A    between atoms: C_10  and  C_11
REMARK    8  A    between atoms: C_11  and  C_12
REMARK    9  A    between atoms: C_12  and  C_13
REMARK   10  A    between atoms: C_12  and  C_14
REMARK   11  A    between atoms: C_14  and  C_15
REMARK   12  A    between atoms: C_15  and  C_16
REMARK   13  A    between atoms: C_16  and  O_17
REMARK   14  A    between atoms: C_16  and  C_19
REMARK   15  A    between atoms: O_17  and  C_18
REMARK   16  A    between atoms: C_19  and  C_20
REMARK   17  A    between atoms: C_19  and  C_21
REMARK                            x       y       z     vdW  Elec       q    Type
REMARK                         _______ _______ _______ _____ _____    ______ ____
ROOT
ATOM      1  C   UNL     1       3.344   5.230  19.689  0.00  0.00    +0.000 C 
ENDROOT
BRANCH   1   3
ATOM      2  C   UNL     1       2.147   7.440  19.835  0.00  0.00    +0.000 C 
ATOM      3  C   UNL     1       2.720   6.459  19.124  0.00  0.00    +0.000 C 
BRANCH   2   5
ATOM      4  C   UNL     1       0.909   9.514  20.048  0.00  0.00    +0.000 C 
ATOM      5  C   UNL     1       1.583   8.657  19.250  0.00  0.00    +0.000 C 
ATOM      6  C   UNL     1       1.865   8.881  17.780  0.00  0.00    +0.000 C 
BRANCH   4   7
ATOM      7  C   UNL     1       0.349  10.800  19.585  0.00  0.00    +0.000 C 
ATOM      8  O   UNL     1       0.969  11.835  19.413  0.00  0.00    +0.000 OA
BRANCH   7   9
ATOM      9  O   UNL     1      -0.997  10.648  19.482  0.00  0.00    +0.000 OA
BRANCH   9  11
ATOM     10  C   UNL     1      -1.713  10.021  17.306  0.00  0.00    +0.000 C 
ATOM     11  C   UNL     1      -1.558  11.178  18.276  0.00  0.00    +0.000 C 
ENDBRANCH   9  11
ENDBRANCH   7   9
ENDBRANCH   4   7
ENDBRANCH   2   5
ENDBRANCH   1   3
BRANCH   1  12
ATOM     12  C   UNL     1       2.997   3.967  18.861  0.00  0.00    +0.000 C 
ATOM     13  C   UNL     1       1.919   4.270  17.809  0.00  0.00    +0.000 C 
BRANCH  12  14
ATOM     14  C   UNL     1       4.254   3.385  18.179  0.00  0.00    +0.000 C 
BRANCH  14  15
ATOM     15  C   UNL     1       4.407   3.879  16.732  0.00  0.00    +0.000 C 
BRANCH  15  16
ATOM     16  C   UNL     1       5.844   4.282  16.354  0.00  0.00    +0.000 C 
BRANCH  16  17
ATOM     17  C   UNL     1       6.113   5.802  16.545  0.00  0.00    +0.000 C 
ATOM     18  C   UNL     1       4.863   6.662  16.339  0.00  0.00    +0.000 C 
ATOM     19  C   UNL     1       6.699   6.088  17.932  0.00  0.00    +0.000 C 
ENDBRANCH  16  17
BRANCH  16  20
ATOM     20  O   UNL     1       6.160   3.833  15.026  0.00  0.00    +0.000 OA
ATOM     21  C   UNL     1       6.936   4.717  14.225  0.00  0.00    +0.000 C 
ENDBRANCH  16  20
ENDBRANCH  15  16
ENDBRANCH  14  15
ENDBRANCH  12  14
ENDBRANCH   1  12
TORSDOF 11
ENDMDL
MODEL 5
REMARK VINA RESULT:      -5.7      4.090      6.962
REMARK  Name = 
REMARK  17 active torsions:
REMARK  status: ('A' for Active; 'I' for Inactive)
REMARK    1  A    between atoms: C_1  and  C_2
REMARK    2  A    between atoms: C_2  and  O_3
REMARK    3  A    between atoms: O_3  and  C_4
REMARK    4  A    between atoms: C_4  and  C_6
REMARK    5  A    between atoms: C_7  and  C_8
REMARK    6  A    between atoms: C_7  and  C_9
REMARK    7  A    between atoms: C_10  and  C_11
REMARK    8  A    between atoms: C_11  and  C_12
REMARK    9  A    between atoms: C_12  and  C_13
REMARK   10  A    between atoms: C_12  and  C_14
REMARK   11  A    between atoms: C_14  and  C_15
REMARK   12  A    between atoms: C_15  and  C_16
REMARK   13  A    between atoms: C_16  and  O_17
REMARK   14  A    between atoms: C_16  and  C_19
REMARK   15  A    between atoms: O_17  and  C_18
REMARK   16  A    between atoms: C_19  and  C_20
REMARK   17  A    between atoms: C_19  and  C_21
REMARK                            x       y       z     vdW  Elec       q    Type
REMARK                         _______ _______ _______ _____ _____    ______ ____
ROOT
ATOM      1  C   UNL     1       4.675   6.622  16.577  0.00  0.00    +0.000 C 
ENDROOT
BRANCH   1   3
ATOM      2  C   UNL     1       2.718   7.946  17.447  0.00  0.00    +0.000 C 
ATOM      3  C   UNL     1       3.891   7.326  17.630  0.00  0.00    +0.000 C 
BRANCH   2   5
ATOM      4  C   UNL     1       1.272   9.723  18.240  0.00  0.00    +0.000 C 
ATOM      5  C   UNL     1       1.952   8.588  18.515  0.00  0.00    +0.000 C 
ATOM      6  C   UNL     1       1.941   7.873  19.849  0.00  0.00    +0.000 C 
BRANCH   4   7
ATOM      7  C   UNL     1       0.417  10.426  19.219  0.00  0.00    +0.000 C 
ATOM      8  O   UNL     1       0.798  11.180  20.097  0.00  0.00    +0.000 OA
BRANCH   7   9
ATOM      9  O   UNL     1      -0.859  10.000  19.029  0.00  0.00    +0.000 OA
BRANCH   9  11
ATOM     10  C   UNL     1      -2.407  11.255  17.735  0.00  0.00    +0.000 C 
ATOM     11  C   UNL     1      -1.342  10.174  17.691  0.00  0.00    +0.000 C 
ENDBRANCH   9  11
ENDBRANCH   7   9
ENDBRANCH   4   7
ENDBRANCH   2   5
ENDBRANCH   1   3
BRANCH   1  12
ATOM     12  C   UNL     1       4.933   5.138  16.935  0.00  0.00    +0.000 C 
ATOM     13  C   UNL     1       5.758   4.438  15.845  0.00  0.00    +0.000 C 
BRANCH  12  14
ATOM     14  C   UNL     1       5.641   5.009  18.301  0.00  0.00    +0.000 C 
BRANCH  14  15
ATOM     15  C   UNL     1       4.697   4.481  19.393  0.00  0.00    +0.000 C 
BRANCH  15  16
ATOM     16  C   UNL     1       3.526   3.637  18.857  0.00  0.00    +0.000 C 
BRANCH  16  17
ATOM     17  C   UNL     1       2.151   4.346  19.015  0.00  0.00    +0.000 C 
ATOM     18  C   UNL     1       1.377   4.453  17.698  0.00  0.00    +0.000 C 
ATOM     19  C   UNL     1       1.280   3.636  20.056  0.00  0.00    +0.000 C 
ENDBRANCH  16  17
BRANCH  16  20
ATOM     20  O   UNL     1       3.538   2.327  19.447  0.00  0.00    +0.000 OA
ATOM     21  C   UNL     1       3.690   1.230  18.552  0.00  0.00    +0.000 C 
ENDBRANCH  16  20
ENDBRANCH  15  16
ENDBRANCH  14  15
ENDBRANCH  12  14
ENDBRANCH   1  12
TORSDOF 11
ENDMDL
MODEL 6
REMARK VINA RESULT:      -5.7      5.629      8.114
REMARK  Name = 
REMARK  17 active torsions:
REMARK  status: ('A' for Active; 'I' for Inactive)
REMARK    1  A    between atoms: C_1  and  C_2
REMARK    2  A    between atoms: C_2  and  O_3
REMARK    3  A    between atoms: O_3  and  C_4
REMARK    4  A    between atoms: C_4  and  C_6
REMARK    5  A    between atoms: C_7  and  C_8
REMARK    6  A    between atoms: C_7  and  C_9
REMARK    7  A    between atoms: C_10  and  C_11
REMARK    8  A    between atoms: C_11  and  C_12
REMARK    9  A    between atoms: C_12  and  C_13
REMARK   10  A    between atoms: C_12  and  C_14
REMARK   11  A    between atoms: C_14  and  C_15
REMARK   12  A    between atoms: C_15  and  C_16
REMARK   13  A    between atoms: C_16  and  O_17
REMARK   14  A    between atoms: C_16  and  C_19
REMARK   15  A    between atoms: O_17  and  C_18
REMARK   16  A    between atoms: C_19  and  C_20
REMARK   17  A    between atoms: C_19  and  C_21
REMARK                            x       y       z     vdW  Elec       q    Type
REMARK                         _______ _______ _______ _____ _____    ______ ____
ROOT
ATOM      1  C   UNL     1       7.219   7.515  17.436  0.00  0.00    +0.000 C 
ENDROOT
BRANCH   1   3
ATOM      2  C   UNL     1       8.313   9.710  18.006  0.00  0.00    +0.000 C 
ATOM      3  C   UNL     1       8.269   8.372  18.054  0.00  0.00    +0.000 C 
BRANCH   2   5
ATOM      4  C   UNL     1      10.206  11.220  17.901  0.00  0.00    +0.000 C 
ATOM      5  C   UNL     1       9.335  10.524  18.664  0.00  0.00    +0.000 C 
ATOM      6  C   UNL     1       9.284  10.561  20.176  0.00  0.00    +0.000 C 
BRANCH   4   7
ATOM      7  C   UNL     1      11.240  12.121  18.451  0.00  0.00    +0.000 C 
ATOM      8  O   UNL     1      12.319  11.786  18.909  0.00  0.00    +0.000 OA
BRANCH   7   9
ATOM      9  O   UNL     1      10.730  13.381  18.447  0.00  0.00    +0.000 OA
BRANCH   9  11
ATOM     10  C   UNL     1      12.178  15.236  18.122  0.00  0.00    +0.000 C 
ATOM     11  C   UNL     1      11.275  14.231  17.431  0.00  0.00    +0.000 C 
ENDBRANCH   9  11
ENDBRANCH   7   9
ENDBRANCH   4   7
ENDBRANCH   2   5
ENDBRANCH   1   3
BRANCH   1  12
ATOM     12  C   UNL     1       7.387   6.023  17.814  0.00  0.00    +0.000 C 
ATOM     13  C   UNL     1       7.815   5.866  19.281  0.00  0.00    +0.000 C 
BRANCH  12  14
ATOM     14  C   UNL     1       6.086   5.233  17.555  0.00  0.00    +0.000 C 
BRANCH  14  15
ATOM     15  C   UNL     1       4.873   5.874  18.248  0.00  0.00    +0.000 C 
BRANCH  15  16
ATOM     16  C   UNL     1       3.943   4.865  18.947  0.00  0.00    +0.000 C 
BRANCH  16  17
ATOM     17  C   UNL     1       3.932   3.475  18.251  0.00  0.00    +0.000 C 
ATOM     18  C   UNL     1       3.948   2.308  19.243  0.00  0.00    +0.000 C 
ATOM     19  C   UNL     1       2.720   3.331  17.324  0.00  0.00    +0.000 C 
ENDBRANCH  16  17
BRANCH  16  20
ATOM     20  O   UNL     1       2.624   5.416  19.094  0.00  0.00    +0.000 OA
ATOM     21  C   UNL     1       2.047   5.342  20.393  0.00  0.00    +0.000 C 
ENDBRANCH  16  20
ENDBRANCH  15  16
ENDBRANCH  14  15
ENDBRANCH  12  14
ENDBRANCH   1  12
TORSDOF 11
ENDMDL
MODEL 7
REMARK VINA RESULT:      -5.6      1.068      1.288
REMARK  Name = 
REMARK  17 active torsions:
REMARK  status: ('A' for Active; 'I' for Inactive)
REMARK    1  A    between atoms: C_1  and  C_2
REMARK    2  A    between atoms: C_2  and  O_3
REMARK    3  A    between atoms: O_3  and  C_4
REMARK    4  A    between atoms: C_4  and  C_6
REMARK    5  A    between atoms: C_7  and  C_8
REMARK    6  A    between atoms: C_7  and  C_9
REMARK    7  A    between atoms: C_10  and  C_11
REMARK    8  A    between atoms: C_11  and  C_12
REMARK    9  A    between atoms: C_12  and  C_13
REMARK   10  A    between atoms: C_12  and  C_14
REMARK   11  A    between atoms: C_14  and  C_15
REMARK   12  A    between atoms: C_15  and  C_16
REMARK   13  A    between atoms: C_16  and  O_17
REMARK   14  A    between atoms: C_16  and  C_19
REMARK   15  A    between atoms: O_17  and  C_18
REMARK   16  A    between atoms: C_19  and  C_20
REMARK   17  A    between atoms: C_19  and  C_21
REMARK                            x       y       z     vdW  Elec       q    Type
REMARK                         _______ _______ _______ _____ _____    ______ ____
ROOT
ATOM      1  C   UNL     1       5.978   6.006  16.846  0.00  0.00    +0.000 C 
ENDROOT
BRANCH   1   3
ATOM      2  C   UNL     1       5.602   4.456  14.897  0.00  0.00    +0.000 C 
ATOM      3  C   UNL     1       6.279   5.443  15.500  0.00  0.00    +0.000 C 
BRANCH   2   5
ATOM      4  C   UNL     1       4.997   3.160  12.940  0.00  0.00    +0.000 C 
ATOM      5  C   UNL     1       5.898   3.958  13.554  0.00  0.00    +0.000 C 
ATOM      6  C   UNL     1       7.191   4.443  12.934  0.00  0.00    +0.000 C 
BRANCH   4   7
ATOM      7  C   UNL     1       5.158   2.646  11.564  0.00  0.00    +0.000 C 
ATOM      8  O   UNL     1       5.754   1.635  11.238  0.00  0.00    +0.000 OA
BRANCH   7   9
ATOM      9  O   UNL     1       4.609   3.558  10.720  0.00  0.00    +0.000 OA
BRANCH   9  11
ATOM     10  C   UNL     1       2.815   4.212   9.307  0.00  0.00    +0.000 C 
ATOM     11  C   UNL     1       3.194   3.420  10.545  0.00  0.00    +0.000 C 
ENDBRANCH   9  11
ENDBRANCH   7   9
ENDBRANCH   4   7
ENDBRANCH   2   5
ENDBRANCH   1   3
BRANCH   1  12
ATOM     12  C   UNL     1       6.938   5.463  17.934  0.00  0.00    +0.000 C 
ATOM     13  C   UNL     1       7.812   6.584  18.514  0.00  0.00    +0.000 C 
BRANCH  12  14
ATOM     14  C   UNL     1       6.157   4.760  19.065  0.00  0.00    +0.000 C 
BRANCH  14  15
ATOM     15  C   UNL     1       4.789   5.415  19.315  0.00  0.00    +0.000 C 
BRANCH  15  16
ATOM     16  C   UNL     1       3.609   4.426  19.313  0.00  0.00    +0.000 C 
BRANCH  16  17
ATOM     17  C   UNL     1       3.746   3.327  18.222  0.00  0.00    +0.000 C 
ATOM     18  C   UNL     1       3.637   1.907  18.784  0.00  0.00    +0.000 C 
ATOM     19  C   UNL     1       2.701   3.513  17.117  0.00  0.00    +0.000 C 
ENDBRANCH  16  17
BRANCH  16  20
ATOM     20  O   UNL     1       2.360   5.132  19.227  0.00  0.00    +0.000 OA
ATOM     21  C   UNL     1       2.314   6.414  19.842  0.00  0.00    +0.000 C 
ENDBRANCH  16  20
ENDBRANCH  15  16
ENDBRANCH  14  15
ENDBRANCH  12  14
ENDBRANCH   1  12
TORSDOF 11
ENDMDL
MODEL 8
REMARK VINA RESULT:      -5.6      4.990      8.303
REMARK  Name = 
REMARK  17 active torsions:
REMARK  status: ('A' for Active; 'I' for Inactive)
REMARK    1  A    between atoms: C_1  and  C_2
REMARK    2  A    between atoms: C_2  and  O_3
REMARK    3  A    between atoms: O_3  and  C_4
REMARK    4  A    between atoms: C_4  and  C_6
REMARK    5  A    between atoms: C_7  and  C_8
REMARK    6  A    between atoms: C_7  and  C_9
REMARK    7  A    between atoms: C_10  and  C_11
REMARK    8  A    between atoms: C_11  and  C_12
REMARK    9  A    between atoms: C_12  and  C_13
REMARK   10  A    between atoms: C_12  and  C_14
REMARK   11  A    between atoms: C_14  and  C_15
REMARK   12  A    between atoms: C_15  and  C_16
REMARK   13  A    between atoms: C_16  and  O_17
REMARK   14  A    between atoms: C_16  and  C_19
REMARK   15  A    between atoms: O_17  and  C_18
REMARK   16  A    between atoms: C_19  and  C_20
REMARK   17  A    between atoms: C_19  and  C_21
REMARK                            x       y       z     vdW  Elec       q    Type
REMARK                         _______ _______ _______ _____ _____    ______ ____
ROOT
ATOM      1  C   UNL     1       7.459   7.013  17.331  0.00  0.00    +0.000 C 
ENDROOT
BRANCH   1   3
ATOM      2  C   UNL     1       8.332   9.360  17.591  0.00  0.00    +0.000 C 
ATOM      3  C   UNL     1       8.011   8.162  18.100  0.00  0.00    +0.000 C 
BRANCH   2   5
ATOM      4  C   UNL     1       9.395  10.235  19.587  0.00  0.00    +0.000 C 
ATOM      5  C   UNL     1       8.831  10.483  18.385  0.00  0.00    +0.000 C 
ATOM      6  C   UNL     1       8.722  11.850  17.744  0.00  0.00    +0.000 C 
BRANCH   4   7
ATOM      7  C   UNL     1       9.988  11.280  20.448  0.00  0.00    +0.000 C 
ATOM      8  O   UNL     1      11.113  11.738  20.353  0.00  0.00    +0.000 OA
BRANCH   7   9
ATOM      9  O   UNL     1       9.088  11.564  21.425  0.00  0.00    +0.000 OA
BRANCH   9  11
ATOM     10  C   UNL     1       8.512  12.812  23.363  0.00  0.00    +0.000 C 
ATOM     11  C   UNL     1       9.292  12.831  22.061  0.00  0.00    +0.000 C 
ENDBRANCH   9  11
ENDBRANCH   7   9
ENDBRANCH   4   7
ENDBRANCH   2   5
ENDBRANCH   1   3
BRANCH   1  12
ATOM     12  C   UNL     1       7.265   5.757  18.217  0.00  0.00    +0.000 C 
ATOM     13  C   UNL     1       8.147   5.820  19.472  0.00  0.00    +0.000 C 
BRANCH  12  14
ATOM     14  C   UNL     1       5.784   5.582  18.618  0.00  0.00    +0.000 C 
BRANCH  14  15
ATOM     15  C   UNL     1       4.828   5.993  17.487  0.00  0.00    +0.000 C 
BRANCH  15  16
ATOM     16  C   UNL     1       3.442   5.326  17.562  0.00  0.00    +0.000 C 
BRANCH  16  17
ATOM     17  C   UNL     1       2.398   6.190  18.325  0.00  0.00    +0.000 C 
ATOM     18  C   UNL     1       2.328   5.865  19.820  0.00  0.00    +0.000 C 
ATOM     19  C   UNL     1       2.684   7.685  18.147  0.00  0.00    +0.000 C 
ENDBRANCH  16  17
BRANCH  16  20
ATOM     20  O   UNL     1       3.551   3.998  18.099  0.00  0.00    +0.000 OA
ATOM     21  C   UNL     1       2.705   3.010  17.522  0.00  0.00    +0.000 C 
ENDBRANCH  16  20
ENDBRANCH  15  16
ENDBRANCH  14  15
ENDBRANCH  12  14
ENDBRANCH   1  12
TORSDOF 11
ENDMDL
MODEL 9
REMARK VINA RESULT:      -5.6      3.235      7.079
REMARK  Name = 
REMARK  17 active torsions:
REMARK  status: ('A' for Active; 'I' for Inactive)
REMARK    1  A    between atoms: C_1  and  C_2
REMARK    2  A    between atoms: C_2  and  O_3
REMARK    3  A    between atoms: O_3  and  C_4
REMARK    4  A    between atoms: C_4  and  C_6
REMARK    5  A    between atoms: C_7  and  C_8
REMARK    6  A    between atoms: C_7  and  C_9
REMARK    7  A    between atoms: C_10  and  C_11
REMARK    8  A    between atoms: C_11  and  C_12
REMARK    9  A    between atoms: C_12  and  C_13
REMARK   10  A    between atoms: C_12  and  C_14
REMARK   11  A    between atoms: C_14  and  C_15
REMARK   12  A    between atoms: C_15  and  C_16
REMARK   13  A    between atoms: C_16  and  O_17
REMARK   14  A    between atoms: C_16  and  C_19
REMARK   15  A    between atoms: O_17  and  C_18
REMARK   16  A    between atoms: C_19  and  C_20
REMARK   17  A    between atoms: C_19  and  C_21
REMARK                            x       y       z     vdW  Elec       q    Type
REMARK                         _______ _______ _______ _____ _____    ______ ____
ROOT
ATOM      1  C   UNL     1       5.013   3.424  15.957  0.00  0.00    +0.000 C 
ENDROOT
BRANCH   1   3
ATOM      2  C   UNL     1       3.182   2.802  17.569  0.00  0.00    +0.000 C 
ATOM      3  C   UNL     1       4.128   3.645  17.134  0.00  0.00    +0.000 C 
BRANCH   2   5
ATOM      4  C   UNL     1       2.876   3.743  19.782  0.00  0.00    +0.000 C 
ATOM      5  C   UNL     1       2.360   3.030  18.757  0.00  0.00    +0.000 C 
ATOM      6  C   UNL     1       0.949   2.485  18.705  0.00  0.00    +0.000 C 
BRANCH   4   7
ATOM      7  C   UNL     1       2.122   4.088  21.005  0.00  0.00    +0.000 C 
ATOM      8  O   UNL     1       2.094   3.446  22.039  0.00  0.00    +0.000 OA
BRANCH   7   9
ATOM      9  O   UNL     1       1.384   5.197  20.732  0.00  0.00    +0.000 OA
BRANCH   9  11
ATOM     10  C   UNL     1       1.513   7.568  20.784  0.00  0.00    +0.000 C 
ATOM     11  C   UNL     1       2.149   6.303  20.238  0.00  0.00    +0.000 C 
ENDBRANCH   9  11
ENDBRANCH   7   9
ENDBRANCH   4   7
ENDBRANCH   2   5
ENDBRANCH   1   3
BRANCH   1  12
ATOM     12  C   UNL     1       5.885   4.666  15.641  0.00  0.00    +0.000 C 
ATOM     13  C   UNL     1       6.384   4.639  14.189  0.00  0.00    +0.000 C 
BRANCH  12  14
ATOM     14  C   UNL     1       5.110   5.974  15.912  0.00  0.00    +0.000 C 
BRANCH  14  15
ATOM     15  C   UNL     1       5.777   6.823  17.005  0.00  0.00    +0.000 C 
BRANCH  15  16
ATOM     16  C   UNL     1       7.174   6.327  17.422  0.00  0.00    +0.000 C 
BRANCH  16  17
ATOM     17  C   UNL     1       7.136   5.393  18.665  0.00  0.00    +0.000 C 
ATOM     18  C   UNL     1       8.264   5.674  19.661  0.00  0.00    +0.000 C 
ATOM     19  C   UNL     1       5.788   5.492  19.387  0.00  0.00    +0.000 C 
ENDBRANCH  16  17
BRANCH  16  20
ATOM     20  O   UNL     1       8.071   7.436  17.597  0.00  0.00    +0.000 OA
ATOM     21  C   UNL     1       7.475   8.726  17.673  0.00  0.00    +0.000 C 
ENDBRANCH  16  20
ENDBRANCH  15  16
ENDBRANCH  14  15
ENDBRANCH  12  14
ENDBRANCH   1  12
TORSDOF 11
ENDMDL
