MODEL 1
REMARK VINA RESULT:      -8.2      0.000      0.000
REMARK  Name = 
REMARK  5 active torsions:
REMARK  status: ('A' for Active; 'I' for Inactive)
REMARK    1  A    between atoms: C_1  and  C_2
REMARK    2  A    between atoms: C_2  and  N_3
REMARK    3  A    between atoms: C_7  and  C_8
REMARK    4  A    between atoms: C_11  and  C_12
REMARK    5  A    between atoms: C_16  and  C_17
REMARK                            x       y       z     vdW  Elec       q    Type
REMARK                         _______ _______ _______ _____ _____    ______ ____
ROOT
ATOM      1  C   UNL     1       5.190   4.685  17.933  0.00  0.00    +0.000 A 
ATOM      2  N   UNL     1       6.465   4.582  18.263  0.00  0.00    +0.000 NA
ATOM      3  N   UNL     1       7.181   4.456  17.093  0.00  0.00    +0.000 NA
ATOM      4  C   UNL     1       6.302   4.497  16.114  0.00  0.00    +0.000 A 
ATOM      5  O   UNL     1       5.017   4.616  16.567  0.00  0.00    +0.000 OA
ENDROOT
BRANCH   1  10
ATOM      6  N   UNL     1       2.734   4.486  20.511  0.00  0.00    +0.000 N 
ATOM      7  C   UNL     1       2.325   5.686  20.016  0.00  0.00    +0.000 A 
ATOM      8  C   UNL     1       3.181   5.980  18.983  0.00  0.00    +0.000 A 
ATOM      9 CL   UNL     1       3.145   7.376  18.024  0.00  0.00    +0.000 Cl
ATOM     10  C   UNL     1       4.063   4.872  18.904  0.00  0.00    +0.000 A 
ATOM     11  N   UNL     1       3.768   3.947  19.837  0.00  0.00    +0.000 NA
BRANCH   6  13
ATOM     12  C   UNL     1       1.338   2.619  21.281  0.00  0.00    +0.000 C 
ATOM     13  C   UNL     1       2.196   3.807  21.676  0.00  0.00    +0.000 C 
ENDBRANCH   6  13
ENDBRANCH   1  10
BRANCH   4  14
ATOM     14  C   UNL     1       6.509   4.488  14.671  0.00  0.00    +0.000 A 
ATOM     15  C   UNL     1       7.653   5.051  14.086  0.00  0.00    +0.000 A 
ATOM     16  C   UNL     1       7.849   4.995  12.704  0.00  0.00    +0.000 A 
ATOM     17  C   UNL     1       6.904   4.377  11.888  0.00  0.00    +0.000 A 
ATOM     18  C   UNL     1       5.746   3.814  12.442  0.00  0.00    +0.000 A 
ATOM     19  C   UNL     1       5.560   3.878  13.834  0.00  0.00    +0.000 A 
BRANCH  18  20
ATOM     20  C   UNL     1       4.713   3.139  11.571  0.00  0.00    +0.000 C 
ATOM     21  F   UNL     1       3.535   2.898  12.212  0.00  0.00    +0.000 F 
ATOM     22  F   UNL     1       4.396   3.876  10.473  0.00  0.00    +0.000 F 
ATOM     23  F   UNL     1       5.136   1.931  11.106  0.00  0.00    +0.000 F 
ENDBRANCH  18  20
ENDBRANCH   4  14
TORSDOF 4
ENDMDL
MODEL 2
REMARK VINA RESULT:      -7.7      4.182      7.649
REMARK  Name = 
REMARK  5 active torsions:
REMARK  status: ('A' for Active; 'I' for Inactive)
REMARK    1  A    between atoms: C_1  and  C_2
REMARK    2  A    between atoms: C_2  and  N_3
REMARK    3  A    between atoms: C_7  and  C_8
REMARK    4  A    between atoms: C_11  and  C_12
REMARK    5  A    between atoms: C_16  and  C_17
REMARK                            x       y       z     vdW  Elec       q    Type
REMARK                         _______ _______ _______ _____ _____    ______ ____
ROOT
ATOM      1  C   UNL     1       6.192   5.183  15.212  0.00  0.00    +0.000 A 
ATOM      2  N   UNL     1       7.118   5.827  15.901  0.00  0.00    +0.000 NA
ATOM      3  N   UNL     1       6.526   6.273  17.062  0.00  0.00    +0.000 NA
ATOM      4  C   UNL     1       5.274   5.869  17.019  0.00  0.00    +0.000 A 
ATOM      5  O   UNL     1       4.979   5.193  15.868  0.00  0.00    +0.000 OA
ENDROOT
BRANCH   1  10
ATOM      6  N   UNL     1       6.135   3.180  12.262  0.00  0.00    +0.000 N 
ATOM      7  C   UNL     1       7.232   3.909  11.919  0.00  0.00    +0.000 A 
ATOM      8  C   UNL     1       7.432   4.797  12.948  0.00  0.00    +0.000 A 
ATOM      9 CL   UNL     1       8.655   5.967  13.032  0.00  0.00    +0.000 Cl
ATOM     10  C   UNL     1       6.417   4.504  13.894  0.00  0.00    +0.000 A 
ATOM     11  N   UNL     1       5.634   3.493  13.472  0.00  0.00    +0.000 NA
BRANCH   6  13
ATOM     12  C   UNL     1       6.429   1.062  11.056  0.00  0.00    +0.000 C 
ATOM     13  C   UNL     1       5.476   2.179  11.442  0.00  0.00    +0.000 C 
ENDBRANCH   6  13
ENDBRANCH   1  10
BRANCH   4  14
ATOM     14  C   UNL     1       4.217   5.993  18.017  0.00  0.00    +0.000 A 
ATOM     15  C   UNL     1       3.469   7.170  18.157  0.00  0.00    +0.000 A 
ATOM     16  C   UNL     1       2.435   7.252  19.092  0.00  0.00    +0.000 A 
ATOM     17  C   UNL     1       2.136   6.157  19.901  0.00  0.00    +0.000 A 
ATOM     18  C   UNL     1       2.873   4.970  19.792  0.00  0.00    +0.000 A 
ATOM     19  C   UNL     1       3.912   4.901  18.847  0.00  0.00    +0.000 A 
BRANCH  18  20
ATOM     20  C   UNL     1       2.560   3.774  20.659  0.00  0.00    +0.000 C 
ATOM     21  F   UNL     1       1.408   3.135  20.312  0.00  0.00    +0.000 F 
ATOM     22  F   UNL     1       3.538   2.829  20.614  0.00  0.00    +0.000 F 
ATOM     23  F   UNL     1       2.419   4.107  21.971  0.00  0.00    +0.000 F 
ENDBRANCH  18  20
ENDBRANCH   4  14
TORSDOF 4
ENDMDL
MODEL 3
REMARK VINA RESULT:      -7.7      0.930      1.379
REMARK  Name = 
REMARK  5 active torsions:
REMARK  status: ('A' for Active; 'I' for Inactive)
REMARK    1  A    between atoms: C_1  and  C_2
REMARK    2  A    between atoms: C_2  and  N_3
REMARK    3  A    between atoms: C_7  and  C_8
REMARK    4  A    between atoms: C_11  and  C_12
REMARK    5  A    between atoms: C_16  and  C_17
REMARK                            x       y       z     vdW  Elec       q    Type
REMARK                         _______ _______ _______ _____ _____    ______ ____
ROOT
ATOM      1  C   UNL     1       4.852   4.406  17.501  0.00  0.00    +0.000 A 
ATOM      2  N   UNL     1       6.070   4.638  17.956  0.00  0.00    +0.000 NA
ATOM      3  N   UNL     1       6.921   4.618  16.873  0.00  0.00    +0.000 NA
ATOM      4  C   UNL     1       6.172   4.382  15.817  0.00  0.00    +0.000 A 
ATOM      5  O   UNL     1       4.853   4.212  16.136  0.00  0.00    +0.000 OA
ENDROOT
BRANCH   1  10
ATOM      6  N   UNL     1       2.041   3.610  19.546  0.00  0.00    +0.000 N 
ATOM      7  C   UNL     1       1.791   4.946  19.473  0.00  0.00    +0.000 A 
ATOM      8  C   UNL     1       2.806   5.479  18.716  0.00  0.00    +0.000 A 
ATOM      9 CL   UNL     1       3.003   7.115  18.325  0.00  0.00    +0.000 Cl
ATOM     10  C   UNL     1       3.611   4.374  18.344  0.00  0.00    +0.000 A 
ATOM     11  N   UNL     1       3.122   3.223  18.843  0.00  0.00    +0.000 NA
BRANCH   6  13
ATOM     12  C   UNL     1       1.664   2.700  21.795  0.00  0.00    +0.000 C 
ATOM     13  C   UNL     1       1.295   2.636  20.323  0.00  0.00    +0.000 C 
ENDBRANCH   6  13
ENDBRANCH   1  10
BRANCH   4  14
ATOM     14  C   UNL     1       6.534   4.334  14.406  0.00  0.00    +0.000 A 
ATOM     15  C   UNL     1       7.425   5.258  13.841  0.00  0.00    +0.000 A 
ATOM     16  C   UNL     1       7.789   5.168  12.495  0.00  0.00    +0.000 A 
ATOM     17  C   UNL     1       7.266   4.154  11.696  0.00  0.00    +0.000 A 
ATOM     18  C   UNL     1       6.366   3.221  12.229  0.00  0.00    +0.000 A 
ATOM     19  C   UNL     1       6.007   3.323  13.585  0.00  0.00    +0.000 A 
BRANCH  18  20
ATOM     20  C   UNL     1       5.792   2.114  11.377  0.00  0.00    +0.000 C 
ATOM     21  F   UNL     1       6.532   1.843  10.265  0.00  0.00    +0.000 F 
ATOM     22  F   UNL     1       5.691   0.937  12.053  0.00  0.00    +0.000 F 
ATOM     23  F   UNL     1       4.539   2.400  10.929  0.00  0.00    +0.000 F 
ENDBRANCH  18  20
ENDBRANCH   4  14
TORSDOF 4
ENDMDL
MODEL 4
REMARK VINA RESULT:      -7.7      1.531      2.040
REMARK  Name = 
REMARK  5 active torsions:
REMARK  status: ('A' for Active; 'I' for Inactive)
REMARK    1  A    between atoms: C_1  and  C_2
REMARK    2  A    between atoms: C_2  and  N_3
REMARK    3  A    between atoms: C_7  and  C_8
REMARK    4  A    between atoms: C_11  and  C_12
REMARK    5  A    between atoms: C_16  and  C_17
REMARK                            x       y       z     vdW  Elec       q    Type
REMARK                         _______ _______ _______ _____ _____    ______ ____
ROOT
ATOM      1  C   UNL     1       5.387   4.248  17.983  0.00  0.00    +0.000 A 
ATOM      2  N   UNL     1       6.643   4.521  18.287  0.00  0.00    +0.000 NA
ATOM      3  N   UNL     1       7.341   4.606  17.101  0.00  0.00    +0.000 NA
ATOM      4  C   UNL     1       6.468   4.387  16.141  0.00  0.00    +0.000 A 
ATOM      5  O   UNL     1       5.213   4.128  16.620  0.00  0.00    +0.000 OA
ENDROOT
BRANCH   1  10
ATOM      6  N   UNL     1       2.727   4.636  20.326  0.00  0.00    +0.000 N 
ATOM      7  C   UNL     1       2.751   3.275  20.360  0.00  0.00    +0.000 A 
ATOM      8  C   UNL     1       3.731   2.893  19.477  0.00  0.00    +0.000 A 
ATOM      9 CL   UNL     1       4.172   1.299  19.106  0.00  0.00    +0.000 Cl
ATOM     10  C   UNL     1       4.274   4.103  18.977  0.00  0.00    +0.000 A 
ATOM     11  N   UNL     1       3.663   5.173  19.521  0.00  0.00    +0.000 NA
BRANCH   6  13
ATOM     12  C   UNL     1       1.802   6.906  20.453  0.00  0.00    +0.000 C 
ATOM     13  C   UNL     1       1.787   5.498  21.020  0.00  0.00    +0.000 C 
ENDBRANCH   6  13
ENDBRANCH   1  10
BRANCH   4  14
ATOM     14  C   UNL     1       6.639   4.435  14.694  0.00  0.00    +0.000 A 
ATOM     15  C   UNL     1       7.745   5.061  14.102  0.00  0.00    +0.000 A 
ATOM     16  C   UNL     1       7.909   5.060  12.715  0.00  0.00    +0.000 A 
ATOM     17  C   UNL     1       6.968   4.433  11.900  0.00  0.00    +0.000 A 
ATOM     18  C   UNL     1       5.847   3.807  12.462  0.00  0.00    +0.000 A 
ATOM     19  C   UNL     1       5.693   3.816  13.859  0.00  0.00    +0.000 A 
BRANCH  18  20
ATOM     20  C   UNL     1       4.819   3.121  11.593  0.00  0.00    +0.000 C 
ATOM     21  F   UNL     1       4.522   3.808  10.455  0.00  0.00    +0.000 F 
ATOM     22  F   UNL     1       5.222   1.886  11.188  0.00  0.00    +0.000 F 
ATOM     23  F   UNL     1       3.634   2.939  12.237  0.00  0.00    +0.000 F 
ENDBRANCH  18  20
ENDBRANCH   4  14
TORSDOF 4
ENDMDL
MODEL 5
REMARK VINA RESULT:      -7.6      5.280      7.045
REMARK  Name = 
REMARK  5 active torsions:
REMARK  status: ('A' for Active; 'I' for Inactive)
REMARK    1  A    between atoms: C_1  and  C_2
REMARK    2  A    between atoms: C_2  and  N_3
REMARK    3  A    between atoms: C_7  and  C_8
REMARK    4  A    between atoms: C_11  and  C_12
REMARK    5  A    between atoms: C_16  and  C_17
REMARK                            x       y       z     vdW  Elec       q    Type
REMARK                         _______ _______ _______ _____ _____    ______ ____
ROOT
ATOM      1  C   UNL     1       1.506   9.282  19.176  0.00  0.00    +0.000 A 
ATOM      2  N   UNL     1       1.797   9.617  17.931  0.00  0.00    +0.000 NA
ATOM      3  N   UNL     1       2.344   8.505  17.326  0.00  0.00    +0.000 NA
ATOM      4  C   UNL     1       2.348   7.554  18.236  0.00  0.00    +0.000 A 
ATOM      5  O   UNL     1       1.856   7.975  19.440  0.00  0.00    +0.000 OA
ENDROOT
BRANCH   1  10
ATOM      6  N   UNL     1      -0.299  10.814  21.843  0.00  0.00    +0.000 N 
ATOM      7  C   UNL     1       0.208  11.969  21.330  0.00  0.00    +0.000 A 
ATOM      8  C   UNL     1       0.986  11.598  20.261  0.00  0.00    +0.000 A 
ATOM      9 CL   UNL     1       1.877  12.642  19.267  0.00  0.00    +0.000 Cl
ATOM     10  C   UNL     1       0.860  10.189  20.181  0.00  0.00    +0.000 A 
ATOM     11  N   UNL     1       0.051   9.715  21.147  0.00  0.00    +0.000 NA
BRANCH   6  13
ATOM     12  C   UNL     1      -2.134  11.797  23.143  0.00  0.00    +0.000 C 
ATOM     13  C   UNL     1      -1.105  10.685  23.044  0.00  0.00    +0.000 C 
ENDBRANCH   6  13
ENDBRANCH   1  10
BRANCH   4  14
ATOM     14  C   UNL     1       2.740   6.154  18.121  0.00  0.00    +0.000 A 
ATOM     15  C   UNL     1       3.939   5.771  17.502  0.00  0.00    +0.000 A 
ATOM     16  C   UNL     1       4.313   4.427  17.439  0.00  0.00    +0.000 A 
ATOM     17  C   UNL     1       3.493   3.447  17.994  0.00  0.00    +0.000 A 
ATOM     18  C   UNL     1       2.284   3.797  18.611  0.00  0.00    +0.000 A 
ATOM     19  C   UNL     1       1.919   5.153  18.667  0.00  0.00    +0.000 A 
BRANCH  18  20
ATOM     20  C   UNL     1       1.385   2.747  19.220  0.00  0.00    +0.000 C 
ATOM     21  F   UNL     1       0.265   2.497  18.486  0.00  0.00    +0.000 F 
ATOM     22  F   UNL     1       2.011   1.547  19.365  0.00  0.00    +0.000 F 
ATOM     23  F   UNL     1       0.946   3.095  20.461  0.00  0.00    +0.000 F 
ENDBRANCH  18  20
ENDBRANCH   4  14
TORSDOF 4
ENDMDL
MODEL 6
REMARK VINA RESULT:      -7.6      0.769      1.097
REMARK  Name = 
REMARK  5 active torsions:
REMARK  status: ('A' for Active; 'I' for Inactive)
REMARK    1  A    between atoms: C_1  and  C_2
REMARK    2  A    between atoms: C_2  and  N_3
REMARK    3  A    between atoms: C_7  and  C_8
REMARK    4  A    between atoms: C_11  and  C_12
REMARK    5  A    between atoms: C_16  and  C_17
REMARK                            x       y       z     vdW  Elec       q    Type
REMARK                         _______ _______ _______ _____ _____    ______ ____
ROOT
ATOM      1  C   UNL     1       5.037   5.681  17.617  0.00  0.00    +0.000 A 
ATOM      2  N   UNL     1       6.145   6.387  17.760  0.00  0.00    +0.000 NA
ATOM      3  N   UNL     1       6.881   6.230  16.605  0.00  0.00    +0.000 NA
ATOM      4  C   UNL     1       6.175   5.443  15.820  0.00  0.00    +0.000 A 
ATOM      5  O   UNL     1       5.006   5.034  16.400  0.00  0.00    +0.000 OA
ENDROOT
BRANCH   1  10
ATOM      6  N   UNL     1       2.742   4.858  20.219  0.00  0.00    +0.000 N 
ATOM      7  C   UNL     1       2.140   6.025  19.861  0.00  0.00    +0.000 A 
ATOM      8  C   UNL     1       2.902   6.546  18.844  0.00  0.00    +0.000 A 
ATOM      9 CL   UNL     1       2.620   8.009  18.037  0.00  0.00    +0.000 Cl
ATOM     10  C   UNL     1       3.934   5.599  18.629  0.00  0.00    +0.000 A 
ATOM     11  N   UNL     1       3.817   4.551  19.468  0.00  0.00    +0.000 NA
BRANCH   6  13
ATOM     12  C   UNL     1       1.250   3.036  20.915  0.00  0.00    +0.000 C 
ATOM     13  C   UNL     1       2.357   3.994  21.321  0.00  0.00    +0.000 C 
ENDBRANCH   6  13
ENDBRANCH   1  10
BRANCH   4  14
ATOM     14  C   UNL     1       6.436   5.012  14.452  0.00  0.00    +0.000 A 
ATOM     15  C   UNL     1       7.676   5.226  13.834  0.00  0.00    +0.000 A 
ATOM     16  C   UNL     1       7.916   4.768  12.537  0.00  0.00    +0.000 A 
ATOM     17  C   UNL     1       6.919   4.090  11.839  0.00  0.00    +0.000 A 
ATOM     18  C   UNL     1       5.665   3.869  12.426  0.00  0.00    +0.000 A 
ATOM     19  C   UNL     1       5.436   4.337  13.732  0.00  0.00    +0.000 A 
BRANCH  18  20
ATOM     20  C   UNL     1       4.574   3.134  11.684  0.00  0.00    +0.000 C 
ATOM     21  F   UNL     1       4.138   3.787  10.571  0.00  0.00    +0.000 F 
ATOM     22  F   UNL     1       4.971   1.903  11.262  0.00  0.00    +0.000 F 
ATOM     23  F   UNL     1       3.469   2.932  12.453  0.00  0.00    +0.000 F 
ENDBRANCH  18  20
ENDBRANCH   4  14
TORSDOF 4
ENDMDL
MODEL 7
REMARK VINA RESULT:      -7.6      5.428      7.342
REMARK  Name = 
REMARK  5 active torsions:
REMARK  status: ('A' for Active; 'I' for Inactive)
REMARK    1  A    between atoms: C_1  and  C_2
REMARK    2  A    between atoms: C_2  and  N_3
REMARK    3  A    between atoms: C_7  and  C_8
REMARK    4  A    between atoms: C_11  and  C_12
REMARK    5  A    between atoms: C_16  and  C_17
REMARK                            x       y       z     vdW  Elec       q    Type
REMARK                         _______ _______ _______ _____ _____    ______ ____
ROOT
ATOM      1  C   UNL     1       1.458   9.191  18.766  0.00  0.00    +0.000 A 
ATOM      2  N   UNL     1       2.069   9.373  17.609  0.00  0.00    +0.000 NA
ATOM      3  N   UNL     1       2.823   8.246  17.364  0.00  0.00    +0.000 NA
ATOM      4  C   UNL     1       2.622   7.437  18.383  0.00  0.00    +0.000 A 
ATOM      5  O   UNL     1       1.789   7.975  19.324  0.00  0.00    +0.000 OA
ENDROOT
BRANCH   1  10
ATOM      6  N   UNL     1      -0.281  11.566  20.780  0.00  0.00    +0.000 N 
ATOM      7  C   UNL     1      -1.246  11.453  19.825  0.00  0.00    +0.000 A 
ATOM      8  C   UNL     1      -0.757  10.565  18.898  0.00  0.00    +0.000 A 
ATOM      9 CL   UNL     1      -1.542  10.074  17.479  0.00  0.00    +0.000 Cl
ATOM     10  C   UNL     1       0.507  10.164  19.397  0.00  0.00    +0.000 A 
ATOM     11  N   UNL     1       0.784  10.770  20.567  0.00  0.00    +0.000 NA
BRANCH   6  13
ATOM     12  C   UNL     1      -1.427  12.130  22.876  0.00  0.00    +0.000 C 
ATOM     13  C   UNL     1      -0.298  12.467  21.918  0.00  0.00    +0.000 C 
ENDBRANCH   6  13
ENDBRANCH   1  10
BRANCH   4  14
ATOM     14  C   UNL     1       3.105   6.080  18.607  0.00  0.00    +0.000 A 
ATOM     15  C   UNL     1       4.437   5.719  18.354  0.00  0.00    +0.000 A 
ATOM     16  C   UNL     1       4.887   4.423  18.615  0.00  0.00    +0.000 A 
ATOM     17  C   UNL     1       4.012   3.469  19.131  0.00  0.00    +0.000 A 
ATOM     18  C   UNL     1       2.673   3.797  19.385  0.00  0.00    +0.000 A 
ATOM     19  C   UNL     1       2.232   5.105  19.117  0.00  0.00    +0.000 A 
BRANCH  18  20
ATOM     20  C   UNL     1       1.712   2.776  19.947  0.00  0.00    +0.000 C 
ATOM     21  F   UNL     1       1.825   1.547  19.370  0.00  0.00    +0.000 F 
ATOM     22  F   UNL     1       1.886   2.578  21.282  0.00  0.00    +0.000 F 
ATOM     23  F   UNL     1       0.411   3.144  19.786  0.00  0.00    +0.000 F 
ENDBRANCH  18  20
ENDBRANCH   4  14
TORSDOF 4
ENDMDL
MODEL 8
REMARK VINA RESULT:      -7.6      5.366      8.663
REMARK  Name = 
REMARK  5 active torsions:
REMARK  status: ('A' for Active; 'I' for Inactive)
REMARK    1  A    between atoms: C_1  and  C_2
REMARK    2  A    between atoms: C_2  and  N_3
REMARK    3  A    between atoms: C_7  and  C_8
REMARK    4  A    between atoms: C_11  and  C_12
REMARK    5  A    between atoms: C_16  and  C_17
REMARK                            x       y       z     vdW  Elec       q    Type
REMARK                         _______ _______ _______ _____ _____    ______ ____
ROOT
ATOM      1  C   UNL     1       4.290   5.733  17.618  0.00  0.00    +0.000 A 
ATOM      2  N   UNL     1       3.831   4.948  18.576  0.00  0.00    +0.000 NA
ATOM      3  N   UNL     1       2.926   5.685  19.309  0.00  0.00    +0.000 NA
ATOM      4  C   UNL     1       2.879   6.876  18.750  0.00  0.00    +0.000 A 
ATOM      5  O   UNL     1       3.732   6.992  17.688  0.00  0.00    +0.000 OA
ENDROOT
BRANCH   1  10
ATOM      6  N   UNL     1       6.070   4.365  14.847  0.00  0.00    +0.000 N 
ATOM      7  C   UNL     1       7.113   5.082  15.348  0.00  0.00    +0.000 A 
ATOM      8  C   UNL     1       6.627   5.733  16.455  0.00  0.00    +0.000 A 
ATOM      9 CL   UNL     1       7.498   6.788  17.455  0.00  0.00    +0.000 Cl
ATOM     10  C   UNL     1       5.276   5.319  16.566  0.00  0.00    +0.000 A 
ATOM     11  N   UNL     1       4.946   4.461  15.582  0.00  0.00    +0.000 NA
BRANCH   6  13
ATOM     12  C   UNL     1       6.957   4.222  12.562  0.00  0.00    +0.000 C 
ATOM     13  C   UNL     1       6.070   3.589  13.620  0.00  0.00    +0.000 C 
ENDBRANCH   6  13
ENDBRANCH   1  10
BRANCH   4  14
ATOM     14  C   UNL     1       2.035   8.023  19.064  0.00  0.00    +0.000 A 
ATOM     15  C   UNL     1       1.713   8.988  18.099  0.00  0.00    +0.000 A 
ATOM     16  C   UNL     1       0.870  10.057  18.412  0.00  0.00    +0.000 A 
ATOM     17  C   UNL     1       0.338  10.176  19.694  0.00  0.00    +0.000 A 
ATOM     18  C   UNL     1       0.649   9.232  20.683  0.00  0.00    +0.000 A 
ATOM     19  C   UNL     1       1.500   8.162  20.356  0.00  0.00    +0.000 A 
BRANCH  18  20
ATOM     20  C   UNL     1       0.080   9.345  22.078  0.00  0.00    +0.000 C 
ATOM     21  F   UNL     1      -0.855   8.396  22.362  0.00  0.00    +0.000 F 
ATOM     22  F   UNL     1       1.034   9.228  23.040  0.00  0.00    +0.000 F 
ATOM     23  F   UNL     1      -0.529  10.543  22.294  0.00  0.00    +0.000 F 
ENDBRANCH  18  20
ENDBRANCH   4  14
TORSDOF 4
ENDMDL
MODEL 9
REMARK VINA RESULT:      -7.6      5.339      8.547
REMARK  Name = 
REMARK  5 active torsions:
REMARK  status: ('A' for Active; 'I' for Inactive)
REMARK    1  A    between atoms: C_1  and  C_2
REMARK    2  A    between atoms: C_2  and  N_3
REMARK    3  A    between atoms: C_7  and  C_8
REMARK    4  A    between atoms: C_11  and  C_12
REMARK    5  A    between atoms: C_16  and  C_17
REMARK                            x       y       z     vdW  Elec       q    Type
REMARK                         _______ _______ _______ _____ _____    ______ ____
ROOT
ATOM      1  C   UNL     1       4.340   5.564  17.580  0.00  0.00    +0.000 A 
ATOM      2  N   UNL     1       3.612   4.724  18.295  0.00  0.00    +0.000 NA
ATOM      3  N   UNL     1       2.658   5.470  18.954  0.00  0.00    +0.000 NA
ATOM      4  C   UNL     1       2.855   6.722  18.597  0.00  0.00    +0.000 A 
ATOM      5  O   UNL     1       3.917   6.865  17.748  0.00  0.00    +0.000 OA
ENDROOT
BRANCH   1  10
ATOM      6  N   UNL     1       6.511   4.585  14.926  0.00  0.00    +0.000 N 
ATOM      7  C   UNL     1       7.478   4.661  15.882  0.00  0.00    +0.000 A 
ATOM      8  C   UNL     1       6.841   5.059  17.032  0.00  0.00    +0.000 A 
ATOM      9 CL   UNL     1       7.576   5.336  18.533  0.00  0.00    +0.000 Cl
ATOM     10  C   UNL     1       5.472   5.168  16.681  0.00  0.00    +0.000 A 
ATOM     11  N   UNL     1       5.274   4.855  15.386  0.00  0.00    +0.000 NA
BRANCH   6  13
ATOM     12  C   UNL     1       5.540   3.533  12.932  0.00  0.00    +0.000 C 
ATOM     13  C   UNL     1       6.714   4.298  13.517  0.00  0.00    +0.000 C 
ENDBRANCH   6  13
ENDBRANCH   1  10
BRANCH   4  14
ATOM     14  C   UNL     1       2.091   7.919  18.928  0.00  0.00    +0.000 A 
ATOM     15  C   UNL     1       1.810   8.904  17.970  0.00  0.00    +0.000 A 
ATOM     16  C   UNL     1       1.042  10.022  18.300  0.00  0.00    +0.000 A 
ATOM     17  C   UNL     1       0.545  10.173  19.593  0.00  0.00    +0.000 A 
ATOM     18  C   UNL     1       0.816   9.210  20.576  0.00  0.00    +0.000 A 
ATOM     19  C   UNL     1       1.592   8.089  20.231  0.00  0.00    +0.000 A 
BRANCH  18  20
ATOM     20  C   UNL     1       0.283   9.356  21.981  0.00  0.00    +0.000 C 
ATOM     21  F   UNL     1      -0.212  10.597  22.249  0.00  0.00    +0.000 F 
ATOM     22  F   UNL     1      -0.729   8.486  22.246  0.00  0.00    +0.000 F 
ATOM     23  F   UNL     1       1.236   9.124  22.925  0.00  0.00    +0.000 F 
ENDBRANCH  18  20
ENDBRANCH   4  14
TORSDOF 4
ENDMDL
