MODEL 1
REMARK VINA RESULT:      -7.8      0.000      0.000
REMARK  Name = 
REMARK  8 active torsions:
REMARK  status: ('A' for Active; 'I' for Inactive)
REMARK    1  A    between atoms: C_2  and  C_3
REMARK    2  A    between atoms: C_5  and  N_6
REMARK    3  A    between atoms: C_8  and  C_9
REMARK    4  A    between atoms: C_9  and  N_10
REMARK    5  A    between atoms: C_20  and  C_22
REMARK    6  A    between atoms: C_22  and  C_23
REMARK    7  A    between atoms: C_23  and  C_24
REMARK    8  A    between atoms: C_24  and  C_25
REMARK                            x       y       z     vdW  Elec       q    Type
REMARK                         _______ _______ _______ _____ _____    ______ ____
ROOT
ATOM      1  C   UNL     1      -0.331  11.671  19.347  0.00  0.00    +0.000 C 
ATOM      2  C   UNL     1       0.485  12.839  18.719  0.00  0.00    +0.000 C 
ATOM      3  C   UNL     1       0.945  13.668  19.923  0.00  0.00    +0.000 C 
ATOM      4  C   UNL     1       1.027  12.656  21.062  0.00  0.00    +0.000 C 
ATOM      5  N   UNL     1       0.539  11.393  20.516  0.00  0.00    +0.000 N 
ATOM      6  C   UNL     1       0.419  10.356  21.408  0.00  0.00    +0.000 C 
ATOM      7  O   UNL     1       0.691  10.492  22.609  0.00  0.00    +0.000 OA
ENDROOT
BRANCH   1   9
ATOM      8  O   UNL     1       0.192   9.785  17.880  0.00  0.00    +0.000 OA
ATOM      9  C   UNL     1      -0.675  10.614  18.238  0.00  0.00    +0.000 C 
ATOM     10  N   UNL     1      -1.948  10.591  17.666  0.00  0.00    +0.000 N 
ATOM     11  C   UNL     1      -2.298   9.597  16.664  0.00  0.00    +0.000 C 
ATOM     12  C   UNL     1      -3.294  10.316  15.774  0.00  0.00    +0.000 C 
ATOM     13  C   UNL     1      -4.087  11.158  16.765  0.00  0.00    +0.000 C 
ATOM     14  C   UNL     1      -3.073  11.519  17.857  0.00  0.00    +0.000 C 
ENDBRANCH   1   9
BRANCH   3  15
ATOM     15  N   UNL     1       2.138  14.473  19.802  0.00  0.00    +0.000 N 
ATOM     16  C   UNL     1       3.265  14.059  19.141  0.00  0.00    +0.000 A 
ATOM     17  C   UNL     1       4.071  15.168  19.050  0.00  0.00    +0.000 A 
ATOM     18  N   UNL     1       3.450  16.198  19.736  0.00  0.00    +0.000 NA
ATOM     19  N   UNL     1       2.260  15.762  20.167  0.00  0.00    +0.000 NA
BRANCH  17  20
ATOM     20  C   UNL     1       5.426  15.298  18.374  0.00  0.00    +0.000 C 
BRANCH  20  21
ATOM     21  N   UNL     1       6.447  15.903  19.261  0.00  0.00    +0.000 NA
ATOM     22  C   UNL     1       7.177  14.962  20.132  0.00  0.00    +0.000 C 
ATOM     23  C   UNL     1       8.353  14.174  19.505  0.00  0.00    +0.000 C 
ATOM     24  N   UNL     1       9.256  14.946  18.643  0.00  0.00    +0.000 NA
ATOM     25  C   UNL     1       8.608  15.992  17.850  0.00  0.00    +0.000 C 
ATOM     26  C   UNL     1       7.451  16.736  18.564  0.00  0.00    +0.000 C 
ATOM     27  H   UNL     1       9.792  14.320  18.039  0.00  0.00    +0.000 HD
ENDBRANCH  20  21
ENDBRANCH  17  20
ENDBRANCH   3  15
BRANCH   6  28
ATOM     28  C   UNL     1       0.102   8.992  20.866  0.00  0.00    +0.000 C 
BRANCH  28  29
ATOM     29  C   UNL     1       1.180   7.980  21.213  0.00  0.00    +0.000 C 
BRANCH  29  30
ATOM     30  C   UNL     1       2.039   7.642  19.996  0.00  0.00    +0.000 C 
BRANCH  30  31
ATOM     31  C   UNL     1       1.932   6.189  19.624  0.00  0.00    +0.000 A 
ATOM     32  C   UNL     1       2.255   5.741  18.334  0.00  0.00    +0.000 A 
ATOM     33  C   UNL     1       2.097   4.396  17.997  0.00  0.00    +0.000 A 
ATOM     34  C   UNL     1       1.624   3.491  18.944  0.00  0.00    +0.000 A 
ATOM     35  C   UNL     1       1.320   3.926  20.233  0.00  0.00    +0.000 A 
ATOM     36  C   UNL     1       1.472   5.267  20.571  0.00  0.00    +0.000 A 
ENDBRANCH  30  31
ENDBRANCH  29  30
ENDBRANCH  28  29
ENDBRANCH   6  28
TORSDOF 8
ENDMDL
MODEL 2
REMARK VINA RESULT:      -7.7      3.685      9.265
REMARK  Name = 
REMARK  8 active torsions:
REMARK  status: ('A' for Active; 'I' for Inactive)
REMARK    1  A    between atoms: C_2  and  C_3
REMARK    2  A    between atoms: C_5  and  N_6
REMARK    3  A    between atoms: C_8  and  C_9
REMARK    4  A    between atoms: C_9  and  N_10
REMARK    5  A    between atoms: C_20  and  C_22
REMARK    6  A    between atoms: C_22  and  C_23
REMARK    7  A    between atoms: C_23  and  C_24
REMARK    8  A    between atoms: C_24  and  C_25
REMARK                            x       y       z     vdW  Elec       q    Type
REMARK                         _______ _______ _______ _____ _____    ______ ____
ROOT
ATOM      1  C   UNL     1      -0.011  11.214  19.778  0.00  0.00    +0.000 C 
ATOM      2  C   UNL     1       0.440   9.733  19.939  0.00  0.00    +0.000 C 
ATOM      3  C   UNL     1       1.145   9.408  18.618  0.00  0.00    +0.000 C 
ATOM      4  C   UNL     1       1.680  10.755  18.140  0.00  0.00    +0.000 C 
ATOM      5  N   UNL     1       1.195  11.745  19.098  0.00  0.00    +0.000 N 
ATOM      6  C   UNL     1       1.466  13.057  18.799  0.00  0.00    +0.000 C 
ATOM      7  O   UNL     1       2.071  13.381  17.768  0.00  0.00    +0.000 OA
ENDROOT
BRANCH   1   9
ATOM      8  O   UNL     1       0.160  11.663  22.176  0.00  0.00    +0.000 OA
ATOM      9  C   UNL     1      -0.553  11.751  21.150  0.00  0.00    +0.000 C 
ATOM     10  N   UNL     1      -1.817  12.337  21.222  0.00  0.00    +0.000 N 
ATOM     11  C   UNL     1      -2.322  12.873  22.476  0.00  0.00    +0.000 C 
ATOM     12  C   UNL     1      -3.820  12.656  22.386  0.00  0.00    +0.000 C 
ATOM     13  C   UNL     1      -4.113  12.924  20.916  0.00  0.00    +0.000 C 
ATOM     14  C   UNL     1      -2.852  12.453  20.182  0.00  0.00    +0.000 C 
ENDBRANCH   1   9
BRANCH   3  15
ATOM     15  N   UNL     1       2.149   8.368  18.599  0.00  0.00    +0.000 N 
ATOM     16  C   UNL     1       2.221   7.371  19.536  0.00  0.00    +0.000 A 
ATOM     17  C   UNL     1       3.140   6.473  19.051  0.00  0.00    +0.000 A 
ATOM     18  N   UNL     1       3.663   6.994  17.880  0.00  0.00    +0.000 NA
ATOM     19  N   UNL     1       3.028   8.140  17.607  0.00  0.00    +0.000 NA
BRANCH  17  20
ATOM     20  C   UNL     1       3.581   5.151  19.660  0.00  0.00    +0.000 C 
BRANCH  20  21
ATOM     21  N   UNL     1       2.481   4.161  19.728  0.00  0.00    +0.000 NA
ATOM     22  C   UNL     1       1.760   3.919  18.464  0.00  0.00    +0.000 C 
ATOM     23  C   UNL     1       2.412   2.956  17.443  0.00  0.00    +0.000 C 
ATOM     24  N   UNL     1       2.986   1.724  17.998  0.00  0.00    +0.000 NA
ATOM     25  C   UNL     1       3.600   1.871  19.319  0.00  0.00    +0.000 C 
ATOM     26  C   UNL     1       2.872   2.845  20.278  0.00  0.00    +0.000 C 
ATOM     27  H   UNL     1       3.649   1.313  17.338  0.00  0.00    +0.000 HD
ENDBRANCH  20  21
ENDBRANCH  17  20
ENDBRANCH   3  15
BRANCH   6  28
ATOM     28  C   UNL     1       1.157  14.096  19.838  0.00  0.00    +0.000 C 
BRANCH  28  29
ATOM     29  C   UNL     1       2.341  15.011  20.094  0.00  0.00    +0.000 C 
BRANCH  29  30
ATOM     30  C   UNL     1       1.887  16.435  20.407  0.00  0.00    +0.000 C 
BRANCH  30  31
ATOM     31  C   UNL     1       1.159  17.056  19.247  0.00  0.00    +0.000 A 
ATOM     32  C   UNL     1      -0.242  17.150  19.230  0.00  0.00    +0.000 A 
ATOM     33  C   UNL     1      -0.896  17.682  18.118  0.00  0.00    +0.000 A 
ATOM     34  C   UNL     1      -0.162  18.129  17.023  0.00  0.00    +0.000 A 
ATOM     35  C   UNL     1       1.231  18.057  17.042  0.00  0.00    +0.000 A 
ATOM     36  C   UNL     1       1.887  17.523  18.146  0.00  0.00    +0.000 A 
ENDBRANCH  30  31
ENDBRANCH  29  30
ENDBRANCH  28  29
ENDBRANCH   6  28
TORSDOF 8
ENDMDL
MODEL 3
REMARK VINA RESULT:      -7.7      3.877      9.128
REMARK  Name = 
REMARK  8 active torsions:
REMARK  status: ('A' for Active; 'I' for Inactive)
REMARK    1  A    between atoms: C_2  and  C_3
REMARK    2  A    between atoms: C_5  and  N_6
REMARK    3  A    between atoms: C_8  and  C_9
REMARK    4  A    between atoms: C_9  and  N_10
REMARK    5  A    between atoms: C_20  and  C_22
REMARK    6  A    between atoms: C_22  and  C_23
REMARK    7  A    between atoms: C_23  and  C_24
REMARK    8  A    between atoms: C_24  and  C_25
REMARK                            x       y       z     vdW  Elec       q    Type
REMARK                         _______ _______ _______ _____ _____    ______ ____
ROOT
ATOM      1  C   UNL     1      -0.263  11.605  20.276  0.00  0.00    +0.000 C 
ATOM      2  C   UNL     1       0.059  10.088  20.135  0.00  0.00    +0.000 C 
ATOM      3  C   UNL     1       0.833   9.988  18.816  0.00  0.00    +0.000 C 
ATOM      4  C   UNL     1       1.505  11.351  18.675  0.00  0.00    +0.000 C 
ATOM      5  N   UNL     1       1.028  12.155  19.797  0.00  0.00    +0.000 N 
ATOM      6  C   UNL     1       1.422  13.470  19.808  0.00  0.00    +0.000 C 
ATOM      7  O   UNL     1       2.125  13.949  18.907  0.00  0.00    +0.000 OA
ENDROOT
BRANCH   1   9
ATOM      8  O   UNL     1      -0.223  11.542  22.721  0.00  0.00    +0.000 OA
ATOM      9  C   UNL     1      -0.863  11.885  21.700  0.00  0.00    +0.000 C 
ATOM     10  N   UNL     1      -2.095  12.527  21.826  0.00  0.00    +0.000 N 
ATOM     11  C   UNL     1      -2.650  12.828  23.136  0.00  0.00    +0.000 C 
ATOM     12  C   UNL     1      -4.148  12.733  22.925  0.00  0.00    +0.000 C 
ATOM     13  C   UNL     1      -4.331  13.315  21.529  0.00  0.00    +0.000 C 
ATOM     14  C   UNL     1      -3.053  12.921  20.781  0.00  0.00    +0.000 C 
ENDBRANCH   1   9
BRANCH   3  15
ATOM     15  N   UNL     1       1.751   8.889  18.627  0.00  0.00    +0.000 N 
ATOM     16  C   UNL     1       1.889   7.858  19.519  0.00  0.00    +0.000 A 
ATOM     17  C   UNL     1       2.667   6.921  18.885  0.00  0.00    +0.000 A 
ATOM     18  N   UNL     1       3.053   7.448  17.664  0.00  0.00    +0.000 NA
ATOM     19  N   UNL     1       2.464   8.640  17.514  0.00  0.00    +0.000 NA
BRANCH  17  20
ATOM     20  C   UNL     1       3.101   5.554  19.391  0.00  0.00    +0.000 C 
BRANCH  20  21
ATOM     21  N   UNL     1       3.932   4.822  18.407  0.00  0.00    +0.000 NA
ATOM     22  C   UNL     1       5.008   3.986  18.973  0.00  0.00    +0.000 C 
ATOM     23  C   UNL     1       4.617   2.589  19.514  0.00  0.00    +0.000 C 
ATOM     24  N   UNL     1       3.695   1.812  18.677  0.00  0.00    +0.000 NA
ATOM     25  C   UNL     1       2.682   2.604  17.976  0.00  0.00    +0.000 C 
ATOM     26  C   UNL     1       3.167   3.982  17.460  0.00  0.00    +0.000 C 
ATOM     27  H   UNL     1       3.253   1.073  19.227  0.00  0.00    +0.000 HD
ENDBRANCH  20  21
ENDBRANCH  17  20
ENDBRANCH   3  15
BRANCH   6  28
ATOM     28  C   UNL     1       1.117  14.289  21.029  0.00  0.00    +0.000 C 
BRANCH  28  29
ATOM     29  C   UNL     1       1.245  15.777  20.760  0.00  0.00    +0.000 C 
BRANCH  29  30
ATOM     30  C   UNL     1      -0.084  16.379  20.308  0.00  0.00    +0.000 C 
BRANCH  30  31
ATOM     31  C   UNL     1       0.056  17.133  19.014  0.00  0.00    +0.000 A 
ATOM     32  C   UNL     1       1.301  17.269  18.380  0.00  0.00    +0.000 A 
ATOM     33  C   UNL     1       1.413  18.019  17.209  0.00  0.00    +0.000 A 
ATOM     34  C   UNL     1       0.288  18.629  16.660  0.00  0.00    +0.000 A 
ATOM     35  C   UNL     1      -0.955  18.481  17.274  0.00  0.00    +0.000 A 
ATOM     36  C   UNL     1      -1.070  17.738  18.445  0.00  0.00    +0.000 A 
ENDBRANCH  30  31
ENDBRANCH  29  30
ENDBRANCH  28  29
ENDBRANCH   6  28
TORSDOF 8
ENDMDL
MODEL 4
REMARK VINA RESULT:      -7.7      3.742      9.326
REMARK  Name = 
REMARK  8 active torsions:
REMARK  status: ('A' for Active; 'I' for Inactive)
REMARK    1  A    between atoms: C_2  and  C_3
REMARK    2  A    between atoms: C_5  and  N_6
REMARK    3  A    between atoms: C_8  and  C_9
REMARK    4  A    between atoms: C_9  and  N_10
REMARK    5  A    between atoms: C_20  and  C_22
REMARK    6  A    between atoms: C_22  and  C_23
REMARK    7  A    between atoms: C_23  and  C_24
REMARK    8  A    between atoms: C_24  and  C_25
REMARK                            x       y       z     vdW  Elec       q    Type
REMARK                         _______ _______ _______ _____ _____    ______ ____
ROOT
ATOM      1  C   UNL     1       0.144  10.983  19.931  0.00  0.00    +0.000 C 
ATOM      2  C   UNL     1       0.681   9.521  19.949  0.00  0.00    +0.000 C 
ATOM      3  C   UNL     1       1.242   9.308  18.539  0.00  0.00    +0.000 C 
ATOM      4  C   UNL     1       1.653  10.707  18.087  0.00  0.00    +0.000 C 
ATOM      5  N   UNL     1       1.237  11.614  19.152  0.00  0.00    +0.000 N 
ATOM      6  C   UNL     1       1.409  12.954  18.906  0.00  0.00    +0.000 C 
ATOM      7  O   UNL     1       1.874  13.367  17.834  0.00  0.00    +0.000 OA
ENDROOT
BRANCH   1   9
ATOM      8  O   UNL     1       0.433  11.033  22.359  0.00  0.00    +0.000 OA
ATOM      9  C   UNL     1      -0.259  11.413  21.387  0.00  0.00    +0.000 C 
ATOM     10  N   UNL     1      -1.373  12.227  21.591  0.00  0.00    +0.000 N 
ATOM     11  C   UNL     1      -1.741  12.667  22.928  0.00  0.00    +0.000 C 
ATOM     12  C   UNL     1      -3.252  12.774  22.871  0.00  0.00    +0.000 C 
ATOM     13  C   UNL     1      -3.501  13.307  21.466  0.00  0.00    +0.000 C 
ATOM     14  C   UNL     1      -2.373  12.702  20.622  0.00  0.00    +0.000 C 
ENDBRANCH   1   9
BRANCH   3  15
ATOM     15  N   UNL     1       2.284   8.327  18.343  0.00  0.00    +0.000 N 
ATOM     16  C   UNL     1       2.368   7.161  19.057  0.00  0.00    +0.000 A 
ATOM     17  C   UNL     1       3.334   6.411  18.432  0.00  0.00    +0.000 A 
ATOM     18  N   UNL     1       3.869   7.178  17.412  0.00  0.00    +0.000 NA
ATOM     19  N   UNL     1       3.199   8.336  17.357  0.00  0.00    +0.000 NA
BRANCH  17  20
ATOM     20  C   UNL     1       3.808   5.007  18.772  0.00  0.00    +0.000 C 
BRANCH  20  21
ATOM     21  N   UNL     1       3.509   4.031  17.698  0.00  0.00    +0.000 NA
ATOM     22  C   UNL     1       4.063   2.677  17.891  0.00  0.00    +0.000 C 
ATOM     23  C   UNL     1       3.288   1.716  18.825  0.00  0.00    +0.000 C 
ATOM     24  N   UNL     1       1.830   1.699  18.663  0.00  0.00    +0.000 NA
ATOM     25  C   UNL     1       1.231   2.995  18.334  0.00  0.00    +0.000 C 
ATOM     26  C   UNL     1       2.071   3.885  17.383  0.00  0.00    +0.000 C 
ATOM     27  H   UNL     1       1.385   1.300  19.491  0.00  0.00    +0.000 HD
ENDBRANCH  20  21
ENDBRANCH  17  20
ENDBRANCH   3  15
BRANCH   6  28
ATOM     28  C   UNL     1       1.174  13.916  20.034  0.00  0.00    +0.000 C 
BRANCH  28  29
ATOM     29  C   UNL     1       2.208  15.027  20.057  0.00  0.00    +0.000 C 
BRANCH  29  30
ATOM     30  C   UNL     1       1.575  16.370  20.416  0.00  0.00    +0.000 C 
BRANCH  30  31
ATOM     31  C   UNL     1       0.930  17.020  19.223  0.00  0.00    +0.000 A 
ATOM     32  C   UNL     1       1.700  17.547  18.174  0.00  0.00    +0.000 A 
ATOM     33  C   UNL     1       1.080  18.193  17.104  0.00  0.00    +0.000 A 
ATOM     34  C   UNL     1      -0.307  18.312  17.069  0.00  0.00    +0.000 A 
ATOM     35  C   UNL     1      -1.078  17.774  18.098  0.00  0.00    +0.000 A 
ATOM     36  C   UNL     1      -0.464  17.133  19.170  0.00  0.00    +0.000 A 
ENDBRANCH  30  31
ENDBRANCH  29  30
ENDBRANCH  28  29
ENDBRANCH   6  28
TORSDOF 8
ENDMDL
MODEL 5
REMARK VINA RESULT:      -7.6      4.005      8.549
REMARK  Name = 
REMARK  8 active torsions:
REMARK  status: ('A' for Active; 'I' for Inactive)
REMARK    1  A    between atoms: C_2  and  C_3
REMARK    2  A    between atoms: C_5  and  N_6
REMARK    3  A    between atoms: C_8  and  C_9
REMARK    4  A    between atoms: C_9  and  N_10
REMARK    5  A    between atoms: C_20  and  C_22
REMARK    6  A    between atoms: C_22  and  C_23
REMARK    7  A    between atoms: C_23  and  C_24
REMARK    8  A    between atoms: C_24  and  C_25
REMARK                            x       y       z     vdW  Elec       q    Type
REMARK                         _______ _______ _______ _____ _____    ______ ____
ROOT
ATOM      1  C   UNL     1       0.168  11.402  19.660  0.00  0.00    +0.000 C 
ATOM      2  C   UNL     1       0.270   9.889  20.014  0.00  0.00    +0.000 C 
ATOM      3  C   UNL     1       0.989   9.268  18.812  0.00  0.00    +0.000 C 
ATOM      4  C   UNL     1       1.842  10.407  18.260  0.00  0.00    +0.000 C 
ATOM      5  N   UNL     1       1.511  11.583  19.059  0.00  0.00    +0.000 N 
ATOM      6  C   UNL     1       2.086  12.765  18.661  0.00  0.00    +0.000 C 
ATOM      7  O   UNL     1       2.827  12.830  17.670  0.00  0.00    +0.000 OA
ENDROOT
BRANCH   1   9
ATOM      8  O   UNL     1       0.409  12.380  21.889  0.00  0.00    +0.000 OA
ATOM      9  C   UNL     1      -0.350  12.200  20.910  0.00  0.00    +0.000 C 
ATOM     10  N   UNL     1      -1.646  12.718  20.920  0.00  0.00    +0.000 N 
ATOM     11  C   UNL     1      -2.132  13.491  22.052  0.00  0.00    +0.000 C 
ATOM     12  C   UNL     1      -3.615  13.178  22.094  0.00  0.00    +0.000 C 
ATOM     13  C   UNL     1      -3.985  13.096  20.618  0.00  0.00    +0.000 C 
ATOM     14  C   UNL     1      -2.728  12.544  19.938  0.00  0.00    +0.000 C 
ENDBRANCH   1   9
BRANCH   3  15
ATOM     15  N   UNL     1       1.739   8.047  19.000  0.00  0.00    +0.000 N 
ATOM     16  C   UNL     1       2.553   7.505  18.040  0.00  0.00    +0.000 A 
ATOM     17  C   UNL     1       3.250   6.502  18.667  0.00  0.00    +0.000 A 
ATOM     18  N   UNL     1       2.775   6.406  19.964  0.00  0.00    +0.000 NA
ATOM     19  N   UNL     1       1.870   7.374  20.156  0.00  0.00    +0.000 NA
BRANCH  17  20
ATOM     20  C   UNL     1       4.326   5.596  18.091  0.00  0.00    +0.000 C 
BRANCH  20  21
ATOM     21  N   UNL     1       5.428   6.356  17.456  0.00  0.00    +0.000 NA
ATOM     22  C   UNL     1       6.783   6.056  17.955  0.00  0.00    +0.000 C 
ATOM     23  C   UNL     1       7.486   4.793  17.401  0.00  0.00    +0.000 C 
ATOM     24  N   UNL     1       7.369   4.577  15.954  0.00  0.00    +0.000 NA
ATOM     25  C   UNL     1       6.088   4.983  15.371  0.00  0.00    +0.000 C 
ATOM     26  C   UNL     1       5.466   6.265  15.980  0.00  0.00    +0.000 C 
ATOM     27  H   UNL     1       7.573   3.603  15.723  0.00  0.00    +0.000 HD
ENDBRANCH  20  21
ENDBRANCH  17  20
ENDBRANCH   3  15
BRANCH   6  28
ATOM     28  C   UNL     1       1.930  13.962  19.553  0.00  0.00    +0.000 C 
BRANCH  28  29
ATOM     29  C   UNL     1       2.757  15.141  19.070  0.00  0.00    +0.000 C 
BRANCH  29  30
ATOM     30  C   UNL     1       2.247  16.456  19.656  0.00  0.00    +0.000 C 
BRANCH  30  31
ATOM     31  C   UNL     1       1.272  17.136  18.736  0.00  0.00    +0.000 A 
ATOM     32  C   UNL     1      -0.107  17.124  18.997  0.00  0.00    +0.000 A 
ATOM     33  C   UNL     1      -0.997  17.716  18.099  0.00  0.00    +0.000 A 
ATOM     34  C   UNL     1      -0.518  18.329  16.943  0.00  0.00    +0.000 A 
ATOM     35  C   UNL     1       0.852  18.362  16.689  0.00  0.00    +0.000 A 
ATOM     36  C   UNL     1       1.742  17.768  17.579  0.00  0.00    +0.000 A 
ENDBRANCH  30  31
ENDBRANCH  29  30
ENDBRANCH  28  29
ENDBRANCH   6  28
TORSDOF 8
ENDMDL
MODEL 6
REMARK VINA RESULT:      -7.6      4.566      8.712
REMARK  Name = 
REMARK  8 active torsions:
REMARK  status: ('A' for Active; 'I' for Inactive)
REMARK    1  A    between atoms: C_2  and  C_3
REMARK    2  A    between atoms: C_5  and  N_6
REMARK    3  A    between atoms: C_8  and  C_9
REMARK    4  A    between atoms: C_9  and  N_10
REMARK    5  A    between atoms: C_20  and  C_22
REMARK    6  A    between atoms: C_22  and  C_23
REMARK    7  A    between atoms: C_23  and  C_24
REMARK    8  A    between atoms: C_24  and  C_25
REMARK                            x       y       z     vdW  Elec       q    Type
REMARK                         _______ _______ _______ _____ _____    ______ ____
ROOT
ATOM      1  C   UNL     1       0.174  11.341  19.475  0.00  0.00    +0.000 C 
ATOM      2  C   UNL     1       0.755  10.023  18.883  0.00  0.00    +0.000 C 
ATOM      3  C   UNL     1       1.558   9.413  20.037  0.00  0.00    +0.000 C 
ATOM      4  C   UNL     1       0.859   9.931  21.291  0.00  0.00    +0.000 C 
ATOM      5  N   UNL     1      -0.182  10.843  20.825  0.00  0.00    +0.000 N 
ATOM      6  C   UNL     1      -0.873  11.519  21.800  0.00  0.00    +0.000 C 
ATOM      7  O   UNL     1      -0.613  11.377  23.003  0.00  0.00    +0.000 OA
ENDROOT
BRANCH   1   9
ATOM      8  O   UNL     1      -0.752  13.161  18.129  0.00  0.00    +0.000 OA
ATOM      9  C   UNL     1      -0.858  11.959  18.466  0.00  0.00    +0.000 C 
ATOM     10  N   UNL     1      -1.877  11.168  17.936  0.00  0.00    +0.000 N 
ATOM     11  C   UNL     1      -2.821  11.712  16.972  0.00  0.00    +0.000 C 
ATOM     12  C   UNL     1      -4.103  10.954  17.253  0.00  0.00    +0.000 C 
ATOM     13  C   UNL     1      -3.603   9.554  17.583  0.00  0.00    +0.000 C 
ATOM     14  C   UNL     1      -2.248   9.782  18.262  0.00  0.00    +0.000 C 
ENDBRANCH   1   9
BRANCH   3  15
ATOM     15  N   UNL     1       1.768   7.983  20.063  0.00  0.00    +0.000 N 
ATOM     16  C   UNL     1       2.634   7.332  19.225  0.00  0.00    +0.000 A 
ATOM     17  C   UNL     1       2.721   6.048  19.706  0.00  0.00    +0.000 A 
ATOM     18  N   UNL     1       1.839   5.934  20.766  0.00  0.00    +0.000 NA
ATOM     19  N   UNL     1       1.283   7.133  20.986  0.00  0.00    +0.000 NA
BRANCH  17  20
ATOM     20  C   UNL     1       3.576   4.902  19.190  0.00  0.00    +0.000 C 
BRANCH  20  21
ATOM     21  N   UNL     1       3.023   4.291  17.959  0.00  0.00    +0.000 NA
ATOM     22  C   UNL     1       3.677   3.046  17.513  0.00  0.00    +0.000 C 
ATOM     23  C   UNL     1       3.263   1.730  18.216  0.00  0.00    +0.000 C 
ATOM     24  N   UNL     1       1.825   1.549  18.444  0.00  0.00    +0.000 NA
ATOM     25  C   UNL     1       1.091   2.776  18.759  0.00  0.00    +0.000 C 
ATOM     26  C   UNL     1       1.566   4.040  17.998  0.00  0.00    +0.000 C 
ATOM     27  H   UNL     1       1.665   0.843  19.164  0.00  0.00    +0.000 HD
ENDBRANCH  20  21
ENDBRANCH  17  20
ENDBRANCH   3  15
BRANCH   6  28
ATOM     28  C   UNL     1      -2.072  12.322  21.388  0.00  0.00    +0.000 C 
BRANCH  28  29
ATOM     29  C   UNL     1      -2.668  13.091  22.554  0.00  0.00    +0.000 C 
BRANCH  29  30
ATOM     30  C   UNL     1      -4.158  12.799  22.712  0.00  0.00    +0.000 C 
BRANCH  30  31
ATOM     31  C   UNL     1      -4.942  13.226  21.502  0.00  0.00    +0.000 A 
ATOM     32  C   UNL     1      -4.985  14.570  21.097  0.00  0.00    +0.000 A 
ATOM     33  C   UNL     1      -5.763  14.949  20.003  0.00  0.00    +0.000 A 
ATOM     34  C   UNL     1      -6.496  13.994  19.302  0.00  0.00    +0.000 A 
ATOM     35  C   UNL     1      -6.442  12.655  19.687  0.00  0.00    +0.000 A 
ATOM     36  C   UNL     1      -5.671  12.273  20.781  0.00  0.00    +0.000 A 
ENDBRANCH  30  31
ENDBRANCH  29  30
ENDBRANCH  28  29
ENDBRANCH   6  28
TORSDOF 8
ENDMDL
MODEL 7
REMARK VINA RESULT:      -7.5      4.531      8.252
REMARK  Name = 
REMARK  8 active torsions:
REMARK  status: ('A' for Active; 'I' for Inactive)
REMARK    1  A    between atoms: C_2  and  C_3
REMARK    2  A    between atoms: C_5  and  N_6
REMARK    3  A    between atoms: C_8  and  C_9
REMARK    4  A    between atoms: C_9  and  N_10
REMARK    5  A    between atoms: C_20  and  C_22
REMARK    6  A    between atoms: C_22  and  C_23
REMARK    7  A    between atoms: C_23  and  C_24
REMARK    8  A    between atoms: C_24  and  C_25
REMARK                            x       y       z     vdW  Elec       q    Type
REMARK                         _______ _______ _______ _____ _____    ______ ____
ROOT
ATOM      1  C   UNL     1       1.064  10.460  19.906  0.00  0.00    +0.000 C 
ATOM      2  C   UNL     1       1.385   9.225  19.013  0.00  0.00    +0.000 C 
ATOM      3  C   UNL     1       2.019   8.217  19.978  0.00  0.00    +0.000 C 
ATOM      4  C   UNL     1       1.406   8.561  21.332  0.00  0.00    +0.000 C 
ATOM      5  N   UNL     1       0.580   9.746  21.113  0.00  0.00    +0.000 N 
ATOM      6  C   UNL     1       0.014  10.303  22.232  0.00  0.00    +0.000 C 
ATOM      7  O   UNL     1       0.209   9.838  23.364  0.00  0.00    +0.000 OA
ENDROOT
BRANCH   1   9
ATOM      8  O   UNL     1       0.565  12.686  19.025  0.00  0.00    +0.000 OA
ATOM      9  C   UNL     1       0.203  11.489  19.090  0.00  0.00    +0.000 C 
ATOM     10  N   UNL     1      -0.950  11.065  18.429  0.00  0.00    +0.000 N 
ATOM     11  C   UNL     1      -1.740  11.995  17.637  0.00  0.00    +0.000 C 
ATOM     12  C   UNL     1      -3.158  11.477  17.781  0.00  0.00    +0.000 C 
ATOM     13  C   UNL     1      -2.969   9.965  17.778  0.00  0.00    +0.000 C 
ATOM     14  C   UNL     1      -1.608   9.750  18.450  0.00  0.00    +0.000 C 
ENDBRANCH   1   9
BRANCH   3  15
ATOM     15  N   UNL     1       1.938   6.808  19.669  0.00  0.00    +0.000 N 
ATOM     16  C   UNL     1       2.284   6.281  18.452  0.00  0.00    +0.000 A 
ATOM     17  C   UNL     1       2.289   4.918  18.626  0.00  0.00    +0.000 A 
ATOM     18  N   UNL     1       1.861   4.656  19.916  0.00  0.00    +0.000 NA
ATOM     19  N   UNL     1       1.675   5.823  20.546  0.00  0.00    +0.000 NA
BRANCH  17  20
ATOM     20  C   UNL     1       2.647   3.838  17.618  0.00  0.00    +0.000 C 
BRANCH  20  21
ATOM     21  N   UNL     1       4.067   3.426  17.706  0.00  0.00    +0.000 NA
ATOM     22  C   UNL     1       4.942   3.902  16.618  0.00  0.00    +0.000 C 
ATOM     23  C   UNL     1       5.475   5.353  16.714  0.00  0.00    +0.000 C 
ATOM     24  N   UNL     1       5.955   5.775  18.035  0.00  0.00    +0.000 NA
ATOM     25  C   UNL     1       5.208   5.223  19.168  0.00  0.00    +0.000 C 
ATOM     26  C   UNL     1       4.725   3.762  18.988  0.00  0.00    +0.000 C 
ATOM     27  H   UNL     1       5.989   6.794  18.092  0.00  0.00    +0.000 HD
ENDBRANCH  20  21
ENDBRANCH  17  20
ENDBRANCH   3  15
BRANCH   6  28
ATOM     28  C   UNL     1      -0.989  11.404  22.043  0.00  0.00    +0.000 C 
BRANCH  28  29
ATOM     29  C   UNL     1      -1.933  11.520  23.226  0.00  0.00    +0.000 C 
BRANCH  29  30
ATOM     30  C   UNL     1      -2.603  12.892  23.272  0.00  0.00    +0.000 C 
BRANCH  30  31
ATOM     31  C   UNL     1      -4.089  12.794  23.066  0.00  0.00    +0.000 A 
ATOM     32  C   UNL     1      -4.647  12.774  21.778  0.00  0.00    +0.000 A 
ATOM     33  C   UNL     1      -6.032  12.737  21.613  0.00  0.00    +0.000 A 
ATOM     34  C   UNL     1      -6.867  12.713  22.727  0.00  0.00    +0.000 A 
ATOM     35  C   UNL     1      -6.319  12.713  24.009  0.00  0.00    +0.000 A 
ATOM     36  C   UNL     1      -4.938  12.755  24.178  0.00  0.00    +0.000 A 
ENDBRANCH  30  31
ENDBRANCH  29  30
ENDBRANCH  28  29
ENDBRANCH   6  28
TORSDOF 8
ENDMDL
MODEL 8
REMARK VINA RESULT:      -7.5      0.975      1.356
REMARK  Name = 
REMARK  8 active torsions:
REMARK  status: ('A' for Active; 'I' for Inactive)
REMARK    1  A    between atoms: C_2  and  C_3
REMARK    2  A    between atoms: C_5  and  N_6
REMARK    3  A    between atoms: C_8  and  C_9
REMARK    4  A    between atoms: C_9  and  N_10
REMARK    5  A    between atoms: C_20  and  C_22
REMARK    6  A    between atoms: C_22  and  C_23
REMARK    7  A    between atoms: C_23  and  C_24
REMARK    8  A    between atoms: C_24  and  C_25
REMARK                            x       y       z     vdW  Elec       q    Type
REMARK                         _______ _______ _______ _____ _____    ______ ____
ROOT
ATOM      1  C   UNL     1      -0.432  11.696  19.316  0.00  0.00    +0.000 C 
ATOM      2  C   UNL     1       0.197  12.904  18.560  0.00  0.00    +0.000 C 
ATOM      3  C   UNL     1       0.953  13.676  19.647  0.00  0.00    +0.000 C 
ATOM      4  C   UNL     1       1.323  12.609  20.673  0.00  0.00    +0.000 C 
ATOM      5  N   UNL     1       0.707  11.369  20.206  0.00  0.00    +0.000 N 
ATOM      6  C   UNL     1       0.818  10.287  21.043  0.00  0.00    +0.000 C 
ATOM      7  O   UNL     1       1.391  10.365  22.139  0.00  0.00    +0.000 OA
ENDROOT
BRANCH   1   9
ATOM      8  O   UNL     1      -0.319   9.850  17.716  0.00  0.00    +0.000 OA
ATOM      9  C   UNL     1      -1.053  10.694  18.279  0.00  0.00    +0.000 C 
ATOM     10  N   UNL     1      -2.419  10.735  17.999  0.00  0.00    +0.000 N 
ATOM     11  C   UNL     1      -3.020   9.791  17.070  0.00  0.00    +0.000 C 
ATOM     12  C   UNL     1      -4.155  10.574  16.440  0.00  0.00    +0.000 C 
ATOM     13  C   UNL     1      -4.679  11.405  17.605  0.00  0.00    +0.000 C 
ATOM     14  C   UNL     1      -3.438  11.692  18.458  0.00  0.00    +0.000 C 
ENDBRANCH   1   9
BRANCH   3  15
ATOM     15  N   UNL     1       2.077  14.500  19.265  0.00  0.00    +0.000 N 
ATOM     16  C   UNL     1       3.294  13.991  18.895  0.00  0.00    +0.000 A 
ATOM     17  C   UNL     1       4.004  15.055  18.395  0.00  0.00    +0.000 A 
ATOM     18  N   UNL     1       3.231  16.192  18.559  0.00  0.00    +0.000 NA
ATOM     19  N   UNL     1       2.048  15.830  19.069  0.00  0.00    +0.000 NA
BRANCH  17  20
ATOM     20  C   UNL     1       5.402  15.062  17.798  0.00  0.00    +0.000 C 
BRANCH  20  21
ATOM     21  N   UNL     1       6.460  14.936  18.827  0.00  0.00    +0.000 NA
ATOM     22  C   UNL     1       7.827  14.715  18.316  0.00  0.00    +0.000 C 
ATOM     23  C   UNL     1       8.613  15.954  17.822  0.00  0.00    +0.000 C 
ATOM     24  N   UNL     1       8.524  17.150  18.667  0.00  0.00    +0.000 NA
ATOM     25  C   UNL     1       7.227  17.353  19.315  0.00  0.00    +0.000 C 
ATOM     26  C   UNL     1       6.519  16.059  19.788  0.00  0.00    +0.000 C 
ATOM     27  H   UNL     1       8.792  17.981  18.136  0.00  0.00    +0.000 HD
ENDBRANCH  20  21
ENDBRANCH  17  20
ENDBRANCH   3  15
BRANCH   6  28
ATOM     28  C   UNL     1       0.370   8.949  20.532  0.00  0.00    +0.000 C 
BRANCH  28  29
ATOM     29  C   UNL     1       1.261   7.825  21.029  0.00  0.00    +0.000 C 
BRANCH  29  30
ATOM     30  C   UNL     1       2.076   7.214  19.890  0.00  0.00    +0.000 C 
BRANCH  30  31
ATOM     31  C   UNL     1       2.215   5.724  20.039  0.00  0.00    +0.000 A 
ATOM     32  C   UNL     1       1.161   4.939  20.531  0.00  0.00    +0.000 A 
ATOM     33  C   UNL     1       1.333   3.566  20.711  0.00  0.00    +0.000 A 
ATOM     34  C   UNL     1       2.550   2.968  20.395  0.00  0.00    +0.000 A 
ATOM     35  C   UNL     1       3.594   3.739  19.887  0.00  0.00    +0.000 A 
ATOM     36  C   UNL     1       3.428   5.110  19.711  0.00  0.00    +0.000 A 
ENDBRANCH  30  31
ENDBRANCH  29  30
ENDBRANCH  28  29
ENDBRANCH   6  28
TORSDOF 8
ENDMDL
MODEL 9
REMARK VINA RESULT:      -7.4      4.306      8.881
REMARK  Name = 
REMARK  8 active torsions:
REMARK  status: ('A' for Active; 'I' for Inactive)
REMARK    1  A    between atoms: C_2  and  C_3
REMARK    2  A    between atoms: C_5  and  N_6
REMARK    3  A    between atoms: C_8  and  C_9
REMARK    4  A    between atoms: C_9  and  N_10
REMARK    5  A    between atoms: C_20  and  C_22
REMARK    6  A    between atoms: C_22  and  C_23
REMARK    7  A    between atoms: C_23  and  C_24
REMARK    8  A    between atoms: C_24  and  C_25
REMARK                            x       y       z     vdW  Elec       q    Type
REMARK                         _______ _______ _______ _____ _____    ______ ____
ROOT
ATOM      1  C   UNL     1      -0.849  11.868  20.800  0.00  0.00    +0.000 C 
ATOM      2  C   UNL     1      -0.450  10.406  20.442  0.00  0.00    +0.000 C 
ATOM      3  C   UNL     1       0.335  10.539  19.132  0.00  0.00    +0.000 C 
ATOM      4  C   UNL     1       0.938  11.940  19.200  0.00  0.00    +0.000 C 
ATOM      5  N   UNL     1       0.415  12.545  20.422  0.00  0.00    +0.000 N 
ATOM      6  C   UNL     1       0.742  13.862  20.631  0.00  0.00    +0.000 C 
ATOM      7  O   UNL     1       1.424  14.503  19.820  0.00  0.00    +0.000 OA
ENDROOT
BRANCH   1   9
ATOM      8  O   UNL     1      -0.899  11.297  23.177  0.00  0.00    +0.000 OA
ATOM      9  C   UNL     1      -1.469  11.905  22.242  0.00  0.00    +0.000 C 
ATOM     10  N   UNL     1      -2.640  12.624  22.481  0.00  0.00    +0.000 N 
ATOM     11  C   UNL     1      -3.209  12.701  23.817  0.00  0.00    +0.000 C 
ATOM     12  C   UNL     1      -4.702  12.799  23.570  0.00  0.00    +0.000 C 
ATOM     13  C   UNL     1      -4.782  13.672  22.323  0.00  0.00    +0.000 C 
ATOM     14  C   UNL     1      -3.520  13.318  21.528  0.00  0.00    +0.000 C 
ENDBRANCH   1   9
BRANCH   3  15
ATOM     15  N   UNL     1       1.309   9.526  18.794  0.00  0.00    +0.000 N 
ATOM     16  C   UNL     1       1.597   8.458  19.602  0.00  0.00    +0.000 A 
ATOM     17  C   UNL     1       2.381   7.622  18.845  0.00  0.00    +0.000 A 
ATOM     18  N   UNL     1       2.619   8.249  17.633  0.00  0.00    +0.000 NA
ATOM     19  N   UNL     1       1.936   9.400  17.611  0.00  0.00    +0.000 NA
BRANCH  17  20
ATOM     20  C   UNL     1       2.954   6.265  19.221  0.00  0.00    +0.000 C 
BRANCH  20  21
ATOM     21  N   UNL     1       3.694   5.631  18.105  0.00  0.00    +0.000 NA
ATOM     22  C   UNL     1       5.158   5.801  18.130  0.00  0.00    +0.000 C 
ATOM     23  C   UNL     1       5.971   4.860  19.053  0.00  0.00    +0.000 C 
ATOM     24  N   UNL     1       5.578   3.447  19.035  0.00  0.00    +0.000 NA
ATOM     25  C   UNL     1       4.142   3.207  18.875  0.00  0.00    +0.000 C 
ATOM     26  C   UNL     1       3.414   4.189  17.923  0.00  0.00    +0.000 C 
ATOM     27  H   UNL     1       5.929   2.970  19.868  0.00  0.00    +0.000 HD
ENDBRANCH  20  21
ENDBRANCH  17  20
ENDBRANCH   3  15
BRANCH   6  28
ATOM     28  C   UNL     1       0.390  14.475  21.956  0.00  0.00    +0.000 C 
BRANCH  28  29
ATOM     29  C   UNL     1      -0.296  15.820  21.793  0.00  0.00    +0.000 C 
BRANCH  29  30
ATOM     30  C   UNL     1      -1.407  16.007  22.824  0.00  0.00    +0.000 C 
BRANCH  30  31
ATOM     31  C   UNL     1      -0.855  16.268  24.198  0.00  0.00    +0.000 A 
ATOM     32  C   UNL     1      -1.333  15.573  25.320  0.00  0.00    +0.000 A 
ATOM     33  C   UNL     1      -0.843  15.872  26.592  0.00  0.00    +0.000 A 
ATOM     34  C   UNL     1       0.130  16.857  26.752  0.00  0.00    +0.000 A 
ATOM     35  C   UNL     1       0.623  17.536  25.639  0.00  0.00    +0.000 A 
ATOM     36  C   UNL     1       0.132  17.245  24.370  0.00  0.00    +0.000 A 
ENDBRANCH  30  31
ENDBRANCH  29  30
ENDBRANCH  28  29
ENDBRANCH   6  28
TORSDOF 8
ENDMDL
