MODEL 1
REMARK VINA RESULT:      -7.4      0.000      0.000
REMARK  Name = 
REMARK  10 active torsions:
REMARK  status: ('A' for Active; 'I' for Inactive)
REMARK    1  A    between atoms: C_1  and  C_2
REMARK    2  A    between atoms: C_7  and  N_8
REMARK    3  A    between atoms: C_12  and  C_13
REMARK    4  A    between atoms: N_21  and  C_22
REMARK    5  A    between atoms: C_22  and  C_23
REMARK    6  A    between atoms: C_22  and  C_24
REMARK    7  A    between atoms: C_24  and  C_25
REMARK    8  A    between atoms: C_25  and  C_26
REMARK    9  A    between atoms: C_26  and  C_27
REMARK   10  A    between atoms: C_26  and  C_28
REMARK                            x       y       z     vdW  Elec       q    Type
REMARK                         _______ _______ _______ _____ _____    ______ ____
ROOT
ATOM      1  N   UNL     1       4.373   5.582  18.801  0.00  0.00    +0.000 NA
ATOM      2  C   UNL     1       3.368   6.385  18.703  0.00  0.00    +0.000 A 
ATOM      3  S   UNL     1       2.951   7.340  17.278  0.00  0.00    +0.000 S 
ATOM      4  C   UNL     1       2.301   8.572  18.302  0.00  0.00    +0.000 A 
ATOM      5  C   UNL     1       1.958   8.086  19.510  0.00  0.00    +0.000 A 
ATOM      6  N   UNL     1       2.477   6.772  19.744  0.00  0.00    +0.000 N 
ENDROOT
BRANCH   5   7
ATOM      7  C   UNL     1       1.126   8.884  20.456  0.00  0.00    +0.000 A 
ATOM      8  C   UNL     1       1.284   8.738  21.848  0.00  0.00    +0.000 A 
ATOM      9  C   UNL     1       0.445   9.404  22.756  0.00  0.00    +0.000 A 
ATOM     10  C   UNL     1      -0.520  10.290  22.293  0.00  0.00    +0.000 A 
ATOM     11 CL   UNL     1      -1.550  11.113  23.397  0.00  0.00    +0.000 Cl
ATOM     12  C   UNL     1      -0.669  10.503  20.932  0.00  0.00    +0.000 A 
ATOM     13  C   UNL     1       0.119   9.787  20.021  0.00  0.00    +0.000 A 
ATOM     14 CL   UNL     1      -0.303  10.057  18.357  0.00  0.00    +0.000 Cl
ENDBRANCH   5   7
BRANCH   1  21
ATOM     15  C   UNL     1       7.530   5.726  19.268  0.00  0.00    +0.000 C 
ATOM     16  C   UNL     1       6.789   5.218  18.065  0.00  0.00    +0.000 A 
ATOM     17  C   UNL     1       7.611   4.702  17.037  0.00  0.00    +0.000 A 
ATOM     18  C   UNL     1       7.079   4.077  15.916  0.00  0.00    +0.000 A 
ATOM     19  C   UNL     1       5.706   3.974  15.787  0.00  0.00    +0.000 A 
ATOM     20  C   UNL     1       4.882   4.549  16.758  0.00  0.00    +0.000 A 
ATOM     21  C   UNL     1       5.386   5.210  17.899  0.00  0.00    +0.000 A 
ENDBRANCH   1  21
BRANCH   6  22
ATOM     22  C   UNL     1       1.877   5.813  20.706  0.00  0.00    +0.000 C 
ATOM     23  C   UNL     1       0.492   5.366  20.181  0.00  0.00    +0.000 C 
BRANCH  22  24
ATOM     24  C   UNL     1       2.690   4.549  21.049  0.00  0.00    +0.000 C 
BRANCH  24  25
ATOM     25  C   UNL     1       1.993   3.198  20.817  0.00  0.00    +0.000 C 
BRANCH  25  26
ATOM     26  C   UNL     1       2.611   2.271  19.762  0.00  0.00    +0.000 C 
ATOM     27  C   UNL     1       2.168   2.640  18.351  0.00  0.00    +0.000 C 
ATOM     28  C   UNL     1       4.137   2.341  19.882  0.00  0.00    +0.000 C 
ENDBRANCH  25  26
ENDBRANCH  24  25
ENDBRANCH  22  24
ENDBRANCH   6  22
TORSDOF 6
ENDMDL
MODEL 2
REMARK VINA RESULT:      -7.2      0.584      1.414
REMARK  Name = 
REMARK  10 active torsions:
REMARK  status: ('A' for Active; 'I' for Inactive)
REMARK    1  A    between atoms: C_1  and  C_2
REMARK    2  A    between atoms: C_7  and  N_8
REMARK    3  A    between atoms: C_12  and  C_13
REMARK    4  A    between atoms: N_21  and  C_22
REMARK    5  A    between atoms: C_22  and  C_23
REMARK    6  A    between atoms: C_22  and  C_24
REMARK    7  A    between atoms: C_24  and  C_25
REMARK    8  A    between atoms: C_25  and  C_26
REMARK    9  A    between atoms: C_26  and  C_27
REMARK   10  A    between atoms: C_26  and  C_28
REMARK                            x       y       z     vdW  Elec       q    Type
REMARK                         _______ _______ _______ _____ _____    ______ ____
ROOT
ATOM      1  N   UNL     1       4.237   5.479  19.257  0.00  0.00    +0.000 NA
ATOM      2  C   UNL     1       3.280   6.324  19.075  0.00  0.00    +0.000 A 
ATOM      3  S   UNL     1       3.014   7.277  17.614  0.00  0.00    +0.000 S 
ATOM      4  C   UNL     1       2.347   8.552  18.573  0.00  0.00    +0.000 A 
ATOM      5  C   UNL     1       1.894   8.099  19.757  0.00  0.00    +0.000 A 
ATOM      6  N   UNL     1       2.334   6.766  20.044  0.00  0.00    +0.000 N 
ENDROOT
BRANCH   5   7
ATOM      7  C   UNL     1       1.032   8.946  20.631  0.00  0.00    +0.000 A 
ATOM      8  C   UNL     1       1.133   8.865  22.033  0.00  0.00    +0.000 A 
ATOM      9  C   UNL     1       0.264   9.580  22.874  0.00  0.00    +0.000 A 
ATOM     10  C   UNL     1      -0.673  10.450  22.331  0.00  0.00    +0.000 A 
ATOM     11 CL   UNL     1      -1.738  11.332  23.352  0.00  0.00    +0.000 Cl
ATOM     12  C   UNL     1      -0.765  10.599  20.957  0.00  0.00    +0.000 A 
ATOM     13  C   UNL     1       0.053   9.836  20.114  0.00  0.00    +0.000 A 
ATOM     14 CL   UNL     1      -0.300  10.030  18.423  0.00  0.00    +0.000 Cl
ENDBRANCH   5   7
BRANCH   1  21
ATOM     15  C   UNL     1       4.029   3.785  16.556  0.00  0.00    +0.000 C 
ATOM     16  C   UNL     1       5.260   4.333  17.219  0.00  0.00    +0.000 A 
ATOM     17  C   UNL     1       6.465   4.093  16.520  0.00  0.00    +0.000 A 
ATOM     18  C   UNL     1       7.674   4.644  16.932  0.00  0.00    +0.000 A 
ATOM     19  C   UNL     1       7.706   5.429  18.069  0.00  0.00    +0.000 A 
ATOM     20  C   UNL     1       6.536   5.609  18.811  0.00  0.00    +0.000 A 
ATOM     21  C   UNL     1       5.295   5.048  18.437  0.00  0.00    +0.000 A 
ENDBRANCH   1  21
BRANCH   6  22
ATOM     22  C   UNL     1       1.621   5.849  20.969  0.00  0.00    +0.000 C 
ATOM     23  C   UNL     1       0.189   5.600  20.436  0.00  0.00    +0.000 C 
BRANCH  22  24
ATOM     24  C   UNL     1       2.271   4.480  21.252  0.00  0.00    +0.000 C 
BRANCH  24  25
ATOM     25  C   UNL     1       1.361   3.246  21.122  0.00  0.00    +0.000 C 
BRANCH  25  26
ATOM     26  C   UNL     1       1.734   2.220  20.045  0.00  0.00    +0.000 C 
ATOM     27  C   UNL     1       0.997   2.477  18.735  0.00  0.00    +0.000 C 
ATOM     28  C   UNL     1       3.250   2.267  19.826  0.00  0.00    +0.000 C 
ENDBRANCH  25  26
ENDBRANCH  24  25
ENDBRANCH  22  24
ENDBRANCH   6  22
TORSDOF 6
ENDMDL
MODEL 3
REMARK VINA RESULT:      -7.0      2.556      5.649
REMARK  Name = 
REMARK  10 active torsions:
REMARK  status: ('A' for Active; 'I' for Inactive)
REMARK    1  A    between atoms: C_1  and  C_2
REMARK    2  A    between atoms: C_7  and  N_8
REMARK    3  A    between atoms: C_12  and  C_13
REMARK    4  A    between atoms: N_21  and  C_22
REMARK    5  A    between atoms: C_22  and  C_23
REMARK    6  A    between atoms: C_22  and  C_24
REMARK    7  A    between atoms: C_24  and  C_25
REMARK    8  A    between atoms: C_25  and  C_26
REMARK    9  A    between atoms: C_26  and  C_27
REMARK   10  A    between atoms: C_26  and  C_28
REMARK                            x       y       z     vdW  Elec       q    Type
REMARK                         _______ _______ _______ _____ _____    ______ ____
ROOT
ATOM      1  N   UNL     1       2.040   7.197  20.241  0.00  0.00    +0.000 NA
ATOM      2  C   UNL     1       1.637   8.166  19.491  0.00  0.00    +0.000 A 
ATOM      3  S   UNL     1       1.883   8.287  17.748  0.00  0.00    +0.000 S 
ATOM      4  C   UNL     1       1.949  10.010  17.883  0.00  0.00    +0.000 A 
ATOM      5  C   UNL     1       1.333  10.446  18.997  0.00  0.00    +0.000 A 
ATOM      6  N   UNL     1       1.043   9.388  19.918  0.00  0.00    +0.000 N 
ENDROOT
BRANCH   5   7
ATOM      7  C   UNL     1       1.015  11.890  19.189  0.00  0.00    +0.000 A 
ATOM      8  C   UNL     1       1.980  12.773  19.711  0.00  0.00    +0.000 A 
ATOM      9  C   UNL     1       1.672  14.114  19.993  0.00  0.00    +0.000 A 
ATOM     10  C   UNL     1       0.415  14.620  19.687  0.00  0.00    +0.000 A 
ATOM     11 CL   UNL     1       0.030  16.261  20.024  0.00  0.00    +0.000 Cl
ATOM     12  C   UNL     1      -0.544  13.796  19.120  0.00  0.00    +0.000 A 
ATOM     13  C   UNL     1      -0.263  12.441  18.902  0.00  0.00    +0.000 A 
ATOM     14 CL   UNL     1      -1.622  11.520  18.334  0.00  0.00    +0.000 Cl
ENDBRANCH   5   7
BRANCH   1  21
ATOM     15  C   UNL     1       0.925   4.209  20.441  0.00  0.00    +0.000 C 
ATOM     16  C   UNL     1       2.286   4.669  20.002  0.00  0.00    +0.000 A 
ATOM     17  C   UNL     1       3.155   3.633  19.589  0.00  0.00    +0.000 A 
ATOM     18  C   UNL     1       4.402   3.899  19.034  0.00  0.00    +0.000 A 
ATOM     19  C   UNL     1       4.816   5.211  18.902  0.00  0.00    +0.000 A 
ATOM     20  C   UNL     1       3.999   6.239  19.378  0.00  0.00    +0.000 A 
ATOM     21  C   UNL     1       2.737   6.007  19.967  0.00  0.00    +0.000 A 
ENDBRANCH   1  21
BRANCH   6  22
ATOM     22  C   UNL     1      -0.033   9.462  20.939  0.00  0.00    +0.000 C 
ATOM     23  C   UNL     1      -0.428   8.029  21.367  0.00  0.00    +0.000 C 
BRANCH  22  24
ATOM     24  C   UNL     1       0.255  10.280  22.214  0.00  0.00    +0.000 C 
BRANCH  24  25
ATOM     25  C   UNL     1      -0.965  10.705  23.048  0.00  0.00    +0.000 C 
BRANCH  25  26
ATOM     26  C   UNL     1      -1.717  11.960  22.587  0.00  0.00    +0.000 C 
ATOM     27  C   UNL     1      -3.029  12.147  23.341  0.00  0.00    +0.000 C 
ATOM     28  C   UNL     1      -0.807  13.178  22.783  0.00  0.00    +0.000 C 
ENDBRANCH  25  26
ENDBRANCH  24  25
ENDBRANCH  22  24
ENDBRANCH   6  22
TORSDOF 6
ENDMDL
MODEL 4
REMARK VINA RESULT:      -6.8      3.014      7.137
REMARK  Name = 
REMARK  10 active torsions:
REMARK  status: ('A' for Active; 'I' for Inactive)
REMARK    1  A    between atoms: C_1  and  C_2
REMARK    2  A    between atoms: C_7  and  N_8
REMARK    3  A    between atoms: C_12  and  C_13
REMARK    4  A    between atoms: N_21  and  C_22
REMARK    5  A    between atoms: C_22  and  C_23
REMARK    6  A    between atoms: C_22  and  C_24
REMARK    7  A    between atoms: C_24  and  C_25
REMARK    8  A    between atoms: C_25  and  C_26
REMARK    9  A    between atoms: C_26  and  C_27
REMARK   10  A    between atoms: C_26  and  C_28
REMARK                            x       y       z     vdW  Elec       q    Type
REMARK                         _______ _______ _______ _____ _____    ______ ____
ROOT
ATOM      1  N   UNL     1       0.618   9.600  19.454  0.00  0.00    +0.000 NA
ATOM      2  C   UNL     1       1.616   8.923  18.996  0.00  0.00    +0.000 A 
ATOM      3  S   UNL     1       2.737   9.463  17.744  0.00  0.00    +0.000 S 
ATOM      4  C   UNL     1       2.931   7.826  17.220  0.00  0.00    +0.000 A 
ATOM      5  C   UNL     1       2.619   6.951  18.194  0.00  0.00    +0.000 A 
ATOM      6  N   UNL     1       1.939   7.569  19.294  0.00  0.00    +0.000 N 
ENDROOT
BRANCH   5   7
ATOM      7  C   UNL     1       2.971   5.507  18.078  0.00  0.00    +0.000 A 
ATOM      8  C   UNL     1       2.034   4.577  17.586  0.00  0.00    +0.000 A 
ATOM      9  C   UNL     1       2.309   3.201  17.560  0.00  0.00    +0.000 A 
ATOM     10  C   UNL     1       3.556   2.732  17.955  0.00  0.00    +0.000 A 
ATOM     11 CL   UNL     1       3.904   1.048  17.924  0.00  0.00    +0.000 Cl
ATOM     12  C   UNL     1       4.524   3.621  18.393  0.00  0.00    +0.000 A 
ATOM     13  C   UNL     1       4.229   4.987  18.485  0.00  0.00    +0.000 A 
ATOM     14 CL   UNL     1       5.497   5.937  19.199  0.00  0.00    +0.000 Cl
ENDBRANCH   5   7
BRANCH   1  21
ATOM     15  C   UNL     1      -1.833  10.339  17.542  0.00  0.00    +0.000 C 
ATOM     16  C   UNL     1      -0.974  11.264  18.355  0.00  0.00    +0.000 A 
ATOM     17  C   UNL     1      -1.341  12.628  18.283  0.00  0.00    +0.000 A 
ATOM     18  C   UNL     1      -0.730  13.594  19.074  0.00  0.00    +0.000 A 
ATOM     19  C   UNL     1       0.280  13.219  19.940  0.00  0.00    +0.000 A 
ATOM     20  C   UNL     1       0.705  11.889  19.962  0.00  0.00    +0.000 A 
ATOM     21  C   UNL     1       0.123  10.883  19.159  0.00  0.00    +0.000 A 
ENDBRANCH   1  21
BRANCH   6  22
ATOM     22  C   UNL     1       1.928   7.008  20.669  0.00  0.00    +0.000 C 
ATOM     23  C   UNL     1       1.130   7.955  21.598  0.00  0.00    +0.000 C 
BRANCH  22  24
ATOM     24  C   UNL     1       1.374   5.581  20.850  0.00  0.00    +0.000 C 
BRANCH  24  25
ATOM     25  C   UNL     1       2.312   4.557  21.511  0.00  0.00    +0.000 C 
BRANCH  25  26
ATOM     26  C   UNL     1       1.809   3.110  21.596  0.00  0.00    +0.000 C 
ATOM     27  C   UNL     1       0.765   2.807  20.527  0.00  0.00    +0.000 C 
ATOM     28  C   UNL     1       3.008   2.165  21.459  0.00  0.00    +0.000 C 
ENDBRANCH  25  26
ENDBRANCH  24  25
ENDBRANCH  22  24
ENDBRANCH   6  22
TORSDOF 6
ENDMDL
MODEL 5
REMARK VINA RESULT:      -6.5      3.844      6.690
REMARK  Name = 
REMARK  10 active torsions:
REMARK  status: ('A' for Active; 'I' for Inactive)
REMARK    1  A    between atoms: C_1  and  C_2
REMARK    2  A    between atoms: C_7  and  N_8
REMARK    3  A    between atoms: C_12  and  C_13
REMARK    4  A    between atoms: N_21  and  C_22
REMARK    5  A    between atoms: C_22  and  C_23
REMARK    6  A    between atoms: C_22  and  C_24
REMARK    7  A    between atoms: C_24  and  C_25
REMARK    8  A    between atoms: C_25  and  C_26
REMARK    9  A    between atoms: C_26  and  C_27
REMARK   10  A    between atoms: C_26  and  C_28
REMARK                            x       y       z     vdW  Elec       q    Type
REMARK                         _______ _______ _______ _____ _____    ______ ____
ROOT
ATOM      1  N   UNL     1       0.416   9.447  19.188  0.00  0.00    +0.000 NA
ATOM      2  C   UNL     1       0.275  10.584  19.779  0.00  0.00    +0.000 A 
ATOM      3  S   UNL     1       1.545  11.462  20.635  0.00  0.00    +0.000 S 
ATOM      4  C   UNL     1       0.360  12.108  21.717  0.00  0.00    +0.000 A 
ATOM      5  C   UNL     1      -0.871  12.093  21.174  0.00  0.00    +0.000 A 
ATOM      6  N   UNL     1      -0.941  11.296  19.985  0.00  0.00    +0.000 N 
ENDROOT
BRANCH   5   7
ATOM      7  C   UNL     1      -1.999  12.846  21.794  0.00  0.00    +0.000 A 
ATOM      8  C   UNL     1      -2.851  12.223  22.727  0.00  0.00    +0.000 A 
ATOM      9  C   UNL     1      -3.976  12.882  23.248  0.00  0.00    +0.000 A 
ATOM     10  C   UNL     1      -4.230  14.204  22.906  0.00  0.00    +0.000 A 
ATOM     11 CL   UNL     1      -5.603  15.021  23.541  0.00  0.00    +0.000 Cl
ATOM     12  C   UNL     1      -3.383  14.869  22.034  0.00  0.00    +0.000 A 
ATOM     13  C   UNL     1      -2.300  14.193  21.458  0.00  0.00    +0.000 A 
ATOM     14 CL   UNL     1      -1.436  15.124  20.272  0.00  0.00    +0.000 Cl
ENDBRANCH   5   7
BRANCH   1  21
ATOM     15  C   UNL     1       1.313   7.044  21.094  0.00  0.00    +0.000 C 
ATOM     16  C   UNL     1       1.940   7.496  19.807  0.00  0.00    +0.000 A 
ATOM     17  C   UNL     1       3.042   6.718  19.381  0.00  0.00    +0.000 A 
ATOM     18  C   UNL     1       3.652   6.924  18.149  0.00  0.00    +0.000 A 
ATOM     19  C   UNL     1       3.187   7.931  17.323  0.00  0.00    +0.000 A 
ATOM     20  C   UNL     1       2.151   8.756  17.767  0.00  0.00    +0.000 A 
ATOM     21  C   UNL     1       1.520   8.591  19.020  0.00  0.00    +0.000 A 
ENDBRANCH   1  21
BRANCH   6  22
ATOM     22  C   UNL     1      -1.965  11.489  18.928  0.00  0.00    +0.000 C 
ATOM     23  C   UNL     1      -1.380  12.384  17.810  0.00  0.00    +0.000 C 
BRANCH  22  24
ATOM     24  C   UNL     1      -2.553  10.225  18.270  0.00  0.00    +0.000 C 
BRANCH  24  25
ATOM     25  C   UNL     1      -2.260  10.028  16.773  0.00  0.00    +0.000 C 
BRANCH  25  26
ATOM     26  C   UNL     1      -3.465  10.033  15.824  0.00  0.00    +0.000 C 
ATOM     27  C   UNL     1      -4.409  11.196  16.109  0.00  0.00    +0.000 C 
ATOM     28  C   UNL     1      -2.952  10.099  14.381  0.00  0.00    +0.000 C 
ENDBRANCH  25  26
ENDBRANCH  24  25
ENDBRANCH  22  24
ENDBRANCH   6  22
TORSDOF 6
ENDMDL
MODEL 6
REMARK VINA RESULT:      -6.4      4.113      7.238
REMARK  Name = 
REMARK  10 active torsions:
REMARK  status: ('A' for Active; 'I' for Inactive)
REMARK    1  A    between atoms: C_1  and  C_2
REMARK    2  A    between atoms: C_7  and  N_8
REMARK    3  A    between atoms: C_12  and  C_13
REMARK    4  A    between atoms: N_21  and  C_22
REMARK    5  A    between atoms: C_22  and  C_23
REMARK    6  A    between atoms: C_22  and  C_24
REMARK    7  A    between atoms: C_24  and  C_25
REMARK    8  A    between atoms: C_25  and  C_26
REMARK    9  A    between atoms: C_26  and  C_27
REMARK   10  A    between atoms: C_26  and  C_28
REMARK                            x       y       z     vdW  Elec       q    Type
REMARK                         _______ _______ _______ _____ _____    ______ ____
ROOT
ATOM      1  N   UNL     1       0.036  10.266  19.343  0.00  0.00    +0.000 NA
ATOM      2  C   UNL     1      -0.165  11.192  20.219  0.00  0.00    +0.000 A 
ATOM      3  S   UNL     1       0.831  11.489  21.646  0.00  0.00    +0.000 S 
ATOM      4  C   UNL     1      -0.568  12.047  22.497  0.00  0.00    +0.000 A 
ATOM      5  C   UNL     1      -1.533  12.458  21.654  0.00  0.00    +0.000 A 
ATOM      6  N   UNL     1      -1.286  12.065  20.298  0.00  0.00    +0.000 N 
ENDROOT
BRANCH   5   7
ATOM      7  C   UNL     1      -2.708  13.234  22.143  0.00  0.00    +0.000 A 
ATOM      8  C   UNL     1      -3.859  12.573  22.615  0.00  0.00    +0.000 A 
ATOM      9  C   UNL     1      -5.012  13.281  22.987  0.00  0.00    +0.000 A 
ATOM     10  C   UNL     1      -5.013  14.670  22.969  0.00  0.00    +0.000 A 
ATOM     11 CL   UNL     1      -6.419  15.547  23.427  0.00  0.00    +0.000 Cl
ATOM     12  C   UNL     1      -3.881  15.359  22.565  0.00  0.00    +0.000 A 
ATOM     13  C   UNL     1      -2.753  14.654  22.126  0.00  0.00    +0.000 A 
ATOM     14 CL   UNL     1      -1.483  15.667  21.508  0.00  0.00    +0.000 Cl
ENDBRANCH   5   7
BRANCH   1  21
ATOM     15  C   UNL     1       0.741   7.960  21.439  0.00  0.00    +0.000 C 
ATOM     16  C   UNL     1       1.351   8.212  20.091  0.00  0.00    +0.000 A 
ATOM     17  C   UNL     1       2.332   7.270  19.701  0.00  0.00    +0.000 A 
ATOM     18  C   UNL     1       2.900   7.286  18.432  0.00  0.00    +0.000 A 
ATOM     19  C   UNL     1       2.515   8.261  17.531  0.00  0.00    +0.000 A 
ATOM     20  C   UNL     1       1.605   9.242  17.931  0.00  0.00    +0.000 A 
ATOM     21  C   UNL     1       1.023   9.272  19.217  0.00  0.00    +0.000 A 
ENDBRANCH   1  21
BRANCH   6  22
ATOM     22  C   UNL     1      -1.859  12.771  19.124  0.00  0.00    +0.000 C 
ATOM     23  C   UNL     1      -0.707  13.268  18.217  0.00  0.00    +0.000 C 
BRANCH  22  24
ATOM     24  C   UNL     1      -2.856  11.991  18.245  0.00  0.00    +0.000 C 
BRANCH  24  25
ATOM     25  C   UNL     1      -2.328  11.475  16.895  0.00  0.00    +0.000 C 
BRANCH  25  26
ATOM     26  C   UNL     1      -2.519   9.982  16.600  0.00  0.00    +0.000 C 
ATOM     27  C   UNL     1      -3.517   9.336  17.555  0.00  0.00    +0.000 C 
ATOM     28  C   UNL     1      -2.986   9.824  15.148  0.00  0.00    +0.000 C 
ENDBRANCH  25  26
ENDBRANCH  24  25
ENDBRANCH  22  24
ENDBRANCH   6  22
TORSDOF 6
ENDMDL
MODEL 7
REMARK VINA RESULT:      -6.4      4.379      7.814
REMARK  Name = 
REMARK  10 active torsions:
REMARK  status: ('A' for Active; 'I' for Inactive)
REMARK    1  A    between atoms: C_1  and  C_2
REMARK    2  A    between atoms: C_7  and  N_8
REMARK    3  A    between atoms: C_12  and  C_13
REMARK    4  A    between atoms: N_21  and  C_22
REMARK    5  A    between atoms: C_22  and  C_23
REMARK    6  A    between atoms: C_22  and  C_24
REMARK    7  A    between atoms: C_24  and  C_25
REMARK    8  A    between atoms: C_25  and  C_26
REMARK    9  A    between atoms: C_26  and  C_27
REMARK   10  A    between atoms: C_26  and  C_28
REMARK                            x       y       z     vdW  Elec       q    Type
REMARK                         _______ _______ _______ _____ _____    ______ ____
ROOT
ATOM      1  N   UNL     1      -0.168  10.095  19.371  0.00  0.00    +0.000 NA
ATOM      2  C   UNL     1      -0.340  11.146  20.099  0.00  0.00    +0.000 A 
ATOM      3  S   UNL     1       0.840  11.817  21.228  0.00  0.00    +0.000 S 
ATOM      4  C   UNL     1      -0.451  12.378  22.234  0.00  0.00    +0.000 A 
ATOM      5  C   UNL     1      -1.598  12.514  21.542  0.00  0.00    +0.000 A 
ATOM      6  N   UNL     1      -1.541  11.895  20.250  0.00  0.00    +0.000 N 
ENDROOT
BRANCH   5   7
ATOM      7  C   UNL     1      -2.766  13.242  22.116  0.00  0.00    +0.000 A 
ATOM      8  C   UNL     1      -3.668  12.585  22.976  0.00  0.00    +0.000 A 
ATOM      9  C   UNL     1      -4.827  13.222  23.449  0.00  0.00    +0.000 A 
ATOM     10  C   UNL     1      -5.068  14.553  23.135  0.00  0.00    +0.000 A 
ATOM     11 CL   UNL     1      -6.482  15.342  23.712  0.00  0.00    +0.000 Cl
ATOM     12  C   UNL     1      -4.175  15.250  22.337  0.00  0.00    +0.000 A 
ATOM     13  C   UNL     1      -3.054  14.598  21.807  0.00  0.00    +0.000 A 
ATOM     14 CL   UNL     1      -2.126  15.571  20.705  0.00  0.00    +0.000 Cl
ENDBRANCH   5   7
BRANCH   1  21
ATOM     15  C   UNL     1       0.847   7.913  21.472  0.00  0.00    +0.000 C 
ATOM     16  C   UNL     1       1.378   8.201  20.098  0.00  0.00    +0.000 A 
ATOM     17  C   UNL     1       2.436   7.358  19.685  0.00  0.00    +0.000 A 
ATOM     18  C   UNL     1       2.953   7.408  18.395  0.00  0.00    +0.000 A 
ATOM     19  C   UNL     1       2.436   8.321  17.495  0.00  0.00    +0.000 A 
ATOM     20  C   UNL     1       1.445   9.212  17.915  0.00  0.00    +0.000 A 
ATOM     21  C   UNL     1       0.911   9.205  19.222  0.00  0.00    +0.000 A 
ENDBRANCH   1  21
BRANCH   6  22
ATOM     22  C   UNL     1      -2.404  12.296  19.111  0.00  0.00    +0.000 C 
ATOM     23  C   UNL     1      -1.596  12.185  17.796  0.00  0.00    +0.000 C 
BRANCH  22  24
ATOM     24  C   UNL     1      -3.730  11.533  18.924  0.00  0.00    +0.000 C 
BRANCH  24  25
ATOM     25  C   UNL     1      -5.004  12.229  19.433  0.00  0.00    +0.000 C 
BRANCH  25  26
ATOM     26  C   UNL     1      -6.235  12.176  18.521  0.00  0.00    +0.000 C 
ATOM     27  C   UNL     1      -5.885  12.501  17.073  0.00  0.00    +0.000 C 
ATOM     28  C   UNL     1      -6.862  10.781  18.622  0.00  0.00    +0.000 C 
ENDBRANCH  25  26
ENDBRANCH  24  25
ENDBRANCH  22  24
ENDBRANCH   6  22
TORSDOF 6
ENDMDL
MODEL 8
REMARK VINA RESULT:      -6.4      5.665      9.636
REMARK  Name = 
REMARK  10 active torsions:
REMARK  status: ('A' for Active; 'I' for Inactive)
REMARK    1  A    between atoms: C_1  and  C_2
REMARK    2  A    between atoms: C_7  and  N_8
REMARK    3  A    between atoms: C_12  and  C_13
REMARK    4  A    between atoms: N_21  and  C_22
REMARK    5  A    between atoms: C_22  and  C_23
REMARK    6  A    between atoms: C_22  and  C_24
REMARK    7  A    between atoms: C_24  and  C_25
REMARK    8  A    between atoms: C_25  and  C_26
REMARK    9  A    between atoms: C_26  and  C_27
REMARK   10  A    between atoms: C_26  and  C_28
REMARK                            x       y       z     vdW  Elec       q    Type
REMARK                         _______ _______ _______ _____ _____    ______ ____
ROOT
ATOM      1  N   UNL     1      -3.261  12.168  19.985  0.00  0.00    +0.000 NA
ATOM      2  C   UNL     1      -2.472  13.060  20.481  0.00  0.00    +0.000 A 
ATOM      3  S   UNL     1      -2.872  14.761  20.732  0.00  0.00    +0.000 S 
ATOM      4  C   UNL     1      -1.220  15.185  20.449  0.00  0.00    +0.000 A 
ATOM      5  C   UNL     1      -0.394  14.146  20.671  0.00  0.00    +0.000 A 
ATOM      6  N   UNL     1      -1.092  12.901  20.796  0.00  0.00    +0.000 N 
ENDROOT
BRANCH   5   7
ATOM      7  C   UNL     1       1.082  14.338  20.767  0.00  0.00    +0.000 A 
ATOM      8  C   UNL     1       1.659  14.908  21.918  0.00  0.00    +0.000 A 
ATOM      9  C   UNL     1       3.033  15.188  21.990  0.00  0.00    +0.000 A 
ATOM     10  C   UNL     1       3.872  14.835  20.941  0.00  0.00    +0.000 A 
ATOM     11 CL   UNL     1       5.556  15.170  21.021  0.00  0.00    +0.000 Cl
ATOM     12  C   UNL     1       3.351  14.221  19.813  0.00  0.00    +0.000 A 
ATOM     13  C   UNL     1       1.971  14.003  19.710  0.00  0.00    +0.000 A 
ATOM     14 CL   UNL     1       1.469  13.371  18.171  0.00  0.00    +0.000 Cl
ENDBRANCH   5   7
BRANCH   1  21
ATOM     15  C   UNL     1      -4.308  11.607  17.019  0.00  0.00    +0.000 C 
ATOM     16  C   UNL     1      -5.110  11.949  18.241  0.00  0.00    +0.000 A 
ATOM     17  C   UNL     1      -6.510  11.980  18.040  0.00  0.00    +0.000 A 
ATOM     18  C   UNL     1      -7.399  12.153  19.095  0.00  0.00    +0.000 A 
ATOM     19  C   UNL     1      -6.904  12.322  20.375  0.00  0.00    +0.000 A 
ATOM     20  C   UNL     1      -5.522  12.372  20.574  0.00  0.00    +0.000 A 
ATOM     21  C   UNL     1      -4.589  12.222  19.525  0.00  0.00    +0.000 A 
ENDBRANCH   1  21
BRANCH   6  22
ATOM     22  C   UNL     1      -0.548  11.725  21.520  0.00  0.00    +0.000 C 
ATOM     23  C   UNL     1      -1.321  11.544  22.849  0.00  0.00    +0.000 C 
BRANCH  22  24
ATOM     24  C   UNL     1      -0.547  10.374  20.779  0.00  0.00    +0.000 C 
BRANCH  24  25
ATOM     25  C   UNL     1       0.757   9.981  20.064  0.00  0.00    +0.000 C 
BRANCH  25  26
ATOM     26  C   UNL     1       0.787  10.141  18.539  0.00  0.00    +0.000 C 
ATOM     27  C   UNL     1       1.600   9.041  17.867  0.00  0.00    +0.000 C 
ATOM     28  C   UNL     1      -0.655  10.139  18.017  0.00  0.00    +0.000 C 
ENDBRANCH  25  26
ENDBRANCH  24  25
ENDBRANCH  22  24
ENDBRANCH   6  22
TORSDOF 6
ENDMDL
MODEL 9
REMARK VINA RESULT:      -6.3      2.380      5.434
REMARK  Name = 
REMARK  10 active torsions:
REMARK  status: ('A' for Active; 'I' for Inactive)
REMARK    1  A    between atoms: C_1  and  C_2
REMARK    2  A    between atoms: C_7  and  N_8
REMARK    3  A    between atoms: C_12  and  C_13
REMARK    4  A    between atoms: N_21  and  C_22
REMARK    5  A    between atoms: C_22  and  C_23
REMARK    6  A    between atoms: C_22  and  C_24
REMARK    7  A    between atoms: C_24  and  C_25
REMARK    8  A    between atoms: C_25  and  C_26
REMARK    9  A    between atoms: C_26  and  C_27
REMARK   10  A    between atoms: C_26  and  C_28
REMARK                            x       y       z     vdW  Elec       q    Type
REMARK                         _______ _______ _______ _____ _____    ______ ____
ROOT
ATOM      1  N   UNL     1       2.457   7.034  19.778  0.00  0.00    +0.000 NA
ATOM      2  C   UNL     1       1.912   8.069  19.234  0.00  0.00    +0.000 A 
ATOM      3  S   UNL     1       1.883   8.426  17.506  0.00  0.00    +0.000 S 
ATOM      4  C   UNL     1       1.913  10.118  17.861  0.00  0.00    +0.000 A 
ATOM      5  C   UNL     1       1.461  10.374  19.102  0.00  0.00    +0.000 A 
ATOM      6  N   UNL     1       1.351   9.193  19.905  0.00  0.00    +0.000 N 
ENDROOT
BRANCH   5   7
ATOM      7  C   UNL     1       1.130  11.763  19.533  0.00  0.00    +0.000 A 
ATOM      8  C   UNL     1       1.934  12.433  20.476  0.00  0.00    +0.000 A 
ATOM      9  C   UNL     1       1.587  13.701  20.969  0.00  0.00    +0.000 A 
ATOM     10  C   UNL     1       0.468  14.359  20.473  0.00  0.00    +0.000 A 
ATOM     11 CL   UNL     1       0.036  15.913  21.068  0.00  0.00    +0.000 Cl
ATOM     12  C   UNL     1      -0.318  13.756  19.504  0.00  0.00    +0.000 A 
ATOM     13  C   UNL     1      -0.013  12.463  19.061  0.00  0.00    +0.000 A 
ATOM     14 CL   UNL     1      -1.186  11.797  17.964  0.00  0.00    +0.000 Cl
ENDBRANCH   5   7
BRANCH   1  21
ATOM     15  C   UNL     1       1.269   4.746  17.891  0.00  0.00    +0.000 C 
ATOM     16  C   UNL     1       2.679   4.912  18.381  0.00  0.00    +0.000 A 
ATOM     17  C   UNL     1       3.590   3.943  17.898  0.00  0.00    +0.000 A 
ATOM     18  C   UNL     1       4.954   4.029  18.152  0.00  0.00    +0.000 A 
ATOM     19  C   UNL     1       5.435   5.076  18.916  0.00  0.00    +0.000 A 
ATOM     20  C   UNL     1       4.536   5.994  19.463  0.00  0.00    +0.000 A 
ATOM     21  C   UNL     1       3.142   5.928  19.245  0.00  0.00    +0.000 A 
ENDBRANCH   1  21
BRANCH   6  22
ATOM     22  C   UNL     1       0.444   9.078  21.074  0.00  0.00    +0.000 C 
ATOM     23  C   UNL     1       1.286   9.062  22.372  0.00  0.00    +0.000 C 
BRANCH  22  24
ATOM     24  C   UNL     1      -0.653  10.150  21.229  0.00  0.00    +0.000 C 
BRANCH  24  25
ATOM     25  C   UNL     1      -0.675  10.926  22.557  0.00  0.00    +0.000 C 
BRANCH  25  26
ATOM     26  C   UNL     1      -1.857  11.877  22.785  0.00  0.00    +0.000 C 
ATOM     27  C   UNL     1      -1.408  13.218  23.354  0.00  0.00    +0.000 C 
ATOM     28  C   UNL     1      -2.590  12.077  21.454  0.00  0.00    +0.000 C 
ENDBRANCH  25  26
ENDBRANCH  24  25
ENDBRANCH  22  24
ENDBRANCH   6  22
TORSDOF 6
ENDMDL
