MODEL 1
REMARK VINA RESULT:      -7.9      0.000      0.000
REMARK  Name = 
REMARK  5 active torsions:
REMARK  status: ('A' for Active; 'I' for Inactive)
REMARK    1  A    between atoms: C_1  and  C_2
REMARK    2  A    between atoms: C_4  and  C_5
REMARK    3  A    between atoms: N_6  and  C_7
REMARK    4  A    between atoms: C_17  and  N_18
REMARK    5  A    between atoms: N_21  and  C_22
REMARK                            x       y       z     vdW  Elec       q    Type
REMARK                         _______ _______ _______ _____ _____    ______ ____
ROOT
ATOM      1  C   UNL     1      -0.269  12.599  18.586  0.00  0.00    +0.000 A 
ATOM      2  N   UNL     1      -0.302  13.959  18.474  0.00  0.00    +0.000 NA
ATOM      3  C   UNL     1       0.699  14.637  19.039  0.00  0.00    +0.000 A 
ATOM      4  C   UNL     1       0.645  16.024  19.023  0.00  0.00    +0.000 A 
ATOM      5  C   UNL     1       1.654  16.778  19.610  0.00  0.00    +0.000 A 
ATOM      6 CL   UNL     1       1.544  18.496  19.608  0.00  0.00    +0.000 Cl
ATOM      7  C   UNL     1       2.738  16.151  20.202  0.00  0.00    +0.000 A 
ATOM      8  C   UNL     1       2.795  14.750  20.219  0.00  0.00    +0.000 A 
ATOM      9  C   UNL     1       1.780  13.979  19.658  0.00  0.00    +0.000 A 
ATOM     10  N   UNL     1       1.849  12.630  19.701  0.00  0.00    +0.000 NA
ATOM     11  C   UNL     1       0.823  11.909  19.161  0.00  0.00    +0.000 A 
ENDROOT
BRANCH   1  17
ATOM     12  C   UNL     1      -3.233  10.013  15.759  0.00  0.00    +0.000 C 
ATOM     13  C   UNL     1      -2.779  10.727  16.979  0.00  0.00    +0.000 A 
ATOM     14  C   UNL     1      -3.512  11.044  18.132  0.00  0.00    +0.000 A 
ATOM     15  C   UNL     1      -2.655  11.786  18.922  0.00  0.00    +0.000 A 
ATOM     16  C   UNL     1      -2.944  12.455  20.216  0.00  0.00    +0.000 C 
ATOM     17  N   UNL     1      -1.467  11.911  18.202  0.00  0.00    +0.000 N 
ATOM     18  N   UNL     1      -1.538  11.204  17.048  0.00  0.00    +0.000 NA
ENDBRANCH   1  17
BRANCH  11  19
ATOM     19  N   UNL     1       0.969  10.541  19.167  0.00  0.00    +0.000 N 
ATOM     20  C   UNL     1       1.325   9.804  17.951  0.00  0.00    +0.000 C 
ATOM     21  C   UNL     1       2.331   8.677  18.324  0.00  0.00    +0.000 C 
ATOM     22  N   UNL     1       1.749   7.793  19.371  0.00  0.00    +0.000 N 
ATOM     23  C   UNL     1       1.360   8.558  20.584  0.00  0.00    +0.000 C 
ATOM     24  C   UNL     1       0.385   9.701  20.222  0.00  0.00    +0.000 C 
BRANCH  22  25
ATOM     25  C   UNL     1       2.336   6.544  19.630  0.00  0.00    +0.000 A 
ATOM     26  C   UNL     1       1.730   5.705  20.586  0.00  0.00    +0.000 A 
ATOM     27  C   UNL     1       2.187   4.410  20.843  0.00  0.00    +0.000 A 
ATOM     28  C   UNL     1       3.271   3.906  20.137  0.00  0.00    +0.000 A 
ATOM     29  C   UNL     1       3.908   4.711  19.197  0.00  0.00    +0.000 A 
ATOM     30  C   UNL     1       3.449   6.010  18.954  0.00  0.00    +0.000 A 
ATOM     31  F   UNL     1       4.125   6.735  18.049  0.00  0.00    +0.000 F 
ENDBRANCH  22  25
ENDBRANCH  11  19
TORSDOF 3
ENDMDL
MODEL 2
REMARK VINA RESULT:      -7.9      0.849      1.210
REMARK  Name = 
REMARK  5 active torsions:
REMARK  status: ('A' for Active; 'I' for Inactive)
REMARK    1  A    between atoms: C_1  and  C_2
REMARK    2  A    between atoms: C_4  and  C_5
REMARK    3  A    between atoms: N_6  and  C_7
REMARK    4  A    between atoms: C_17  and  N_18
REMARK    5  A    between atoms: N_21  and  C_22
REMARK                            x       y       z     vdW  Elec       q    Type
REMARK                         _______ _______ _______ _____ _____    ______ ____
ROOT
ATOM      1  C   UNL     1      -0.204  12.617  18.610  0.00  0.00    +0.000 A 
ATOM      2  N   UNL     1      -0.246  13.981  18.561  0.00  0.00    +0.000 NA
ATOM      3  C   UNL     1       0.780  14.638  19.107  0.00  0.00    +0.000 A 
ATOM      4  C   UNL     1       0.721  16.024  19.157  0.00  0.00    +0.000 A 
ATOM      5  C   UNL     1       1.755  16.756  19.728  0.00  0.00    +0.000 A 
ATOM      6 CL   UNL     1       1.641  18.471  19.808  0.00  0.00    +0.000 Cl
ATOM      7  C   UNL     1       2.868  16.108  20.239  0.00  0.00    +0.000 A 
ATOM      8  C   UNL     1       2.929  14.708  20.190  0.00  0.00    +0.000 A 
ATOM      9  C   UNL     1       1.891  13.958  19.644  0.00  0.00    +0.000 A 
ATOM     10  N   UNL     1       1.966  12.609  19.622  0.00  0.00    +0.000 NA
ATOM     11  C   UNL     1       0.917  11.907  19.099  0.00  0.00    +0.000 A 
ENDROOT
BRANCH   1  17
ATOM     12  C   UNL     1      -3.291  10.145  15.814  0.00  0.00    +0.000 C 
ATOM     13  C   UNL     1      -2.782  10.806  17.042  0.00  0.00    +0.000 A 
ATOM     14  C   UNL     1      -3.460  11.070  18.240  0.00  0.00    +0.000 A 
ATOM     15  C   UNL     1      -2.569  11.780  19.021  0.00  0.00    +0.000 A 
ATOM     16  C   UNL     1      -2.798  12.391  20.356  0.00  0.00    +0.000 C 
ATOM     17  N   UNL     1      -1.417  11.942  18.252  0.00  0.00    +0.000 N 
ATOM     18  N   UNL     1      -1.540  11.286  17.073  0.00  0.00    +0.000 NA
ENDBRANCH   1  17
BRANCH  11  19
ATOM     19  N   UNL     1       1.067  10.542  19.037  0.00  0.00    +0.000 N 
ATOM     20  C   UNL     1       1.322   9.857  17.766  0.00  0.00    +0.000 C 
ATOM     21  C   UNL     1       2.359   8.722  18.007  0.00  0.00    +0.000 C 
ATOM     22  N   UNL     1       1.869   7.792  19.062  0.00  0.00    +0.000 N 
ATOM     23  C   UNL     1       1.580   8.504  20.334  0.00  0.00    +0.000 C 
ATOM     24  C   UNL     1       0.575   9.656  20.101  0.00  0.00    +0.000 C 
BRANCH  22  25
ATOM     25  C   UNL     1       2.479   6.538  19.219  0.00  0.00    +0.000 A 
ATOM     26  C   UNL     1       3.671   6.280  18.511  0.00  0.00    +0.000 A 
ATOM     27  C   UNL     1       4.398   5.099  18.675  0.00  0.00    +0.000 A 
ATOM     28  C   UNL     1       3.956   4.132  19.569  0.00  0.00    +0.000 A 
ATOM     29  C   UNL     1       2.774   4.343  20.274  0.00  0.00    +0.000 A 
ATOM     30  C   UNL     1       2.048   5.525  20.095  0.00  0.00    +0.000 A 
ATOM     31  F   UNL     1       0.907   5.649  20.791  0.00  0.00    +0.000 F 
ENDBRANCH  22  25
ENDBRANCH  11  19
TORSDOF 3
ENDMDL
MODEL 3
REMARK VINA RESULT:      -7.6      3.752      7.051
REMARK  Name = 
REMARK  5 active torsions:
REMARK  status: ('A' for Active; 'I' for Inactive)
REMARK    1  A    between atoms: C_1  and  C_2
REMARK    2  A    between atoms: C_4  and  C_5
REMARK    3  A    between atoms: N_6  and  C_7
REMARK    4  A    between atoms: C_17  and  N_18
REMARK    5  A    between atoms: N_21  and  C_22
REMARK                            x       y       z     vdW  Elec       q    Type
REMARK                         _______ _______ _______ _____ _____    ______ ____
ROOT
ATOM      1  C   UNL     1       1.117  12.942  20.189  0.00  0.00    +0.000 A 
ATOM      2  N   UNL     1       2.457  13.181  20.075  0.00  0.00    +0.000 NA
ATOM      3  C   UNL     1       2.821  14.291  19.430  0.00  0.00    +0.000 A 
ATOM      4  C   UNL     1       4.174  14.514  19.216  0.00  0.00    +0.000 A 
ATOM      5  C   UNL     1       4.606  15.646  18.537  0.00  0.00    +0.000 A 
ATOM      6 CL   UNL     1       6.288  15.879  18.254  0.00  0.00    +0.000 Cl
ATOM      7  C   UNL     1       3.688  16.579  18.082  0.00  0.00    +0.000 A 
ATOM      8  C   UNL     1       2.320  16.356  18.298  0.00  0.00    +0.000 A 
ATOM      9  C   UNL     1       1.869  15.214  18.953  0.00  0.00    +0.000 A 
ATOM     10  N   UNL     1       0.545  15.014  19.135  0.00  0.00    +0.000 NA
ATOM     11  C   UNL     1       0.140  13.871  19.762  0.00  0.00    +0.000 A 
ENDROOT
BRANCH   1  17
ATOM     12  C   UNL     1      -0.194   9.525  23.362  0.00  0.00    +0.000 C 
ATOM     13  C   UNL     1       0.127  10.116  22.038  0.00  0.00    +0.000 A 
ATOM     14  C   UNL     1       0.289   9.468  20.805  0.00  0.00    +0.000 A 
ATOM     15  C   UNL     1       0.668  10.455  19.916  0.00  0.00    +0.000 A 
ATOM     16  C   UNL     1       1.057  10.308  18.490  0.00  0.00    +0.000 C 
ATOM     17  N   UNL     1       0.753  11.635  20.653  0.00  0.00    +0.000 N 
ATOM     18  N   UNL     1       0.357  11.423  21.931  0.00  0.00    +0.000 NA
ENDBRANCH   1  17
BRANCH  11  19
ATOM     19  N   UNL     1      -1.211  13.742  19.985  0.00  0.00    +0.000 N 
ATOM     20  C   UNL     1      -2.025  12.792  19.222  0.00  0.00    +0.000 C 
ATOM     21  C   UNL     1      -3.055  12.129  20.183  0.00  0.00    +0.000 C 
ATOM     22  N   UNL     1      -3.882  13.173  20.851  0.00  0.00    +0.000 N 
ATOM     23  C   UNL     1      -3.042  14.151  21.591  0.00  0.00    +0.000 C 
ATOM     24  C   UNL     1      -1.993  14.792  20.654  0.00  0.00    +0.000 C 
BRANCH  22  25
ATOM     25  C   UNL     1      -5.066  12.804  21.507  0.00  0.00    +0.000 A 
ATOM     26  C   UNL     1      -5.192  13.102  22.879  0.00  0.00    +0.000 A 
ATOM     27  C   UNL     1      -6.367  12.858  23.593  0.00  0.00    +0.000 A 
ATOM     28  C   UNL     1      -7.470  12.313  22.948  0.00  0.00    +0.000 A 
ATOM     29  C   UNL     1      -7.378  11.989  21.597  0.00  0.00    +0.000 A 
ATOM     30  C   UNL     1      -6.194  12.227  20.893  0.00  0.00    +0.000 A 
ATOM     31  F   UNL     1      -6.172  11.870  19.599  0.00  0.00    +0.000 F 
ENDBRANCH  22  25
ENDBRANCH  11  19
TORSDOF 3
ENDMDL
MODEL 4
REMARK VINA RESULT:      -7.6      3.423      6.588
REMARK  Name = 
REMARK  5 active torsions:
REMARK  status: ('A' for Active; 'I' for Inactive)
REMARK    1  A    between atoms: C_1  and  C_2
REMARK    2  A    between atoms: C_4  and  C_5
REMARK    3  A    between atoms: N_6  and  C_7
REMARK    4  A    between atoms: C_17  and  N_18
REMARK    5  A    between atoms: N_21  and  C_22
REMARK                            x       y       z     vdW  Elec       q    Type
REMARK                         _______ _______ _______ _____ _____    ______ ____
ROOT
ATOM      1  C   UNL     1       1.326  12.866  20.319  0.00  0.00    +0.000 A 
ATOM      2  N   UNL     1       2.618  13.219  20.584  0.00  0.00    +0.000 NA
ATOM      3  C   UNL     1       3.073  14.332  20.003  0.00  0.00    +0.000 A 
ATOM      4  C   UNL     1       4.408  14.666  20.178  0.00  0.00    +0.000 A 
ATOM      5  C   UNL     1       4.936  15.805  19.584  0.00  0.00    +0.000 A 
ATOM      6 CL   UNL     1       6.604  16.178  19.788  0.00  0.00    +0.000 Cl
ATOM      7  C   UNL     1       4.126  16.632  18.822  0.00  0.00    +0.000 A 
ATOM      8  C   UNL     1       2.777  16.297  18.644  0.00  0.00    +0.000 A 
ATOM      9  C   UNL     1       2.237  15.146  19.212  0.00  0.00    +0.000 A 
ATOM     10  N   UNL     1       0.938  14.834  19.013  0.00  0.00    +0.000 NA
ATOM     11  C   UNL     1       0.452  13.685  19.567  0.00  0.00    +0.000 A 
ENDROOT
BRANCH   1  17
ATOM     12  C   UNL     1      -0.187   9.402  23.348  0.00  0.00    +0.000 C 
ATOM     13  C   UNL     1       0.226  10.011  22.059  0.00  0.00    +0.000 A 
ATOM     14  C   UNL     1       0.482   9.379  20.833  0.00  0.00    +0.000 A 
ATOM     15  C   UNL     1       0.918  10.379  19.985  0.00  0.00    +0.000 A 
ATOM     16  C   UNL     1       1.412  10.252  18.590  0.00  0.00    +0.000 C 
ATOM     17  N   UNL     1       0.939  11.551  20.740  0.00  0.00    +0.000 N 
ATOM     18  N   UNL     1       0.452  11.321  21.983  0.00  0.00    +0.000 NA
ENDBRANCH   1  17
BRANCH  11  19
ATOM     19  N   UNL     1      -0.891  13.444  19.395  0.00  0.00    +0.000 N 
ATOM     20  C   UNL     1      -1.389  12.666  18.257  0.00  0.00    +0.000 C 
ATOM     21  C   UNL     1      -2.546  11.746  18.746  0.00  0.00    +0.000 C 
ATOM     22  N   UNL     1      -3.616  12.560  19.386  0.00  0.00    +0.000 N 
ATOM     23  C   UNL     1      -3.091  13.372  20.514  0.00  0.00    +0.000 C 
ATOM     24  C   UNL     1      -1.919  14.266  20.048  0.00  0.00    +0.000 C 
BRANCH  22  25
ATOM     25  C   UNL     1      -4.879  11.992  19.612  0.00  0.00    +0.000 A 
ATOM     26  C   UNL     1      -5.543  12.294  20.818  0.00  0.00    +0.000 A 
ATOM     27  C   UNL     1      -6.839  11.851  21.090  0.00  0.00    +0.000 A 
ATOM     28  C   UNL     1      -7.523  11.091  20.149  0.00  0.00    +0.000 A 
ATOM     29  C   UNL     1      -6.894  10.756  18.954  0.00  0.00    +0.000 A 
ATOM     30  C   UNL     1      -5.592  11.197  18.695  0.00  0.00    +0.000 A 
ATOM     31  F   UNL     1      -5.041  10.817  17.531  0.00  0.00    +0.000 F 
ENDBRANCH  22  25
ENDBRANCH  11  19
TORSDOF 3
ENDMDL
MODEL 5
REMARK VINA RESULT:      -7.6      3.778      6.835
REMARK  Name = 
REMARK  5 active torsions:
REMARK  status: ('A' for Active; 'I' for Inactive)
REMARK    1  A    between atoms: C_1  and  C_2
REMARK    2  A    between atoms: C_4  and  C_5
REMARK    3  A    between atoms: N_6  and  C_7
REMARK    4  A    between atoms: C_17  and  N_18
REMARK    5  A    between atoms: N_21  and  C_22
REMARK                            x       y       z     vdW  Elec       q    Type
REMARK                         _______ _______ _______ _____ _____    ______ ____
ROOT
ATOM      1  C   UNL     1       0.224  12.844  19.264  0.00  0.00    +0.000 A 
ATOM      2  N   UNL     1       1.464  12.827  18.692  0.00  0.00    +0.000 NA
ATOM      3  C   UNL     1       2.281  13.839  18.988  0.00  0.00    +0.000 A 
ATOM      4  C   UNL     1       3.512  13.900  18.349  0.00  0.00    +0.000 A 
ATOM      5  C   UNL     1       4.394  14.940  18.610  0.00  0.00    +0.000 A 
ATOM      6 CL   UNL     1       5.899  15.010  17.777  0.00  0.00    +0.000 Cl
ATOM      7  C   UNL     1       4.061  15.922  19.529  0.00  0.00    +0.000 A 
ATOM      8  C   UNL     1       2.819  15.864  20.176  0.00  0.00    +0.000 A 
ATOM      9  C   UNL     1       1.912  14.842  19.908  0.00  0.00    +0.000 A 
ATOM     10  N   UNL     1       0.714  14.815  20.531  0.00  0.00    +0.000 NA
ATOM     11  C   UNL     1      -0.157  13.810  20.225  0.00  0.00    +0.000 A 
ENDROOT
BRANCH   1  17
ATOM     12  C   UNL     1      -3.430  11.210  16.536  0.00  0.00    +0.000 C 
ATOM     13  C   UNL     1      -2.308  11.145  17.507  0.00  0.00    +0.000 A 
ATOM     14  C   UNL     1      -1.918  10.075  18.326  0.00  0.00    +0.000 A 
ATOM     15  C   UNL     1      -0.882  10.561  19.100  0.00  0.00    +0.000 A 
ATOM     16  C   UNL     1      -0.158   9.876  20.201  0.00  0.00    +0.000 C 
ATOM     17  N   UNL     1      -0.718  11.898  18.742  0.00  0.00    +0.000 N 
ATOM     18  N   UNL     1      -1.552  12.220  17.723  0.00  0.00    +0.000 NA
ENDBRANCH   1  17
BRANCH  11  19
ATOM     19  N   UNL     1      -1.336  13.785  20.933  0.00  0.00    +0.000 N 
ATOM     20  C   UNL     1      -2.328  14.856  20.806  0.00  0.00    +0.000 C 
ATOM     21  C   UNL     1      -3.750  14.224  20.804  0.00  0.00    +0.000 C 
ATOM     22  N   UNL     1      -3.953  13.409  22.034  0.00  0.00    +0.000 N 
ATOM     23  C   UNL     1      -2.920  12.351  22.170  0.00  0.00    +0.000 C 
ATOM     24  C   UNL     1      -1.501  12.963  22.140  0.00  0.00    +0.000 C 
BRANCH  22  25
ATOM     25  C   UNL     1      -5.250  13.012  22.396  0.00  0.00    +0.000 A 
ATOM     26  C   UNL     1      -5.724  13.364  23.677  0.00  0.00    +0.000 A 
ATOM     27  C   UNL     1      -7.030  13.094  24.091  0.00  0.00    +0.000 A 
ATOM     28  C   UNL     1      -7.916  12.465  23.225  0.00  0.00    +0.000 A 
ATOM     29  C   UNL     1      -7.479  12.086  21.958  0.00  0.00    +0.000 A 
ATOM     30  C   UNL     1      -6.166  12.352  21.557  0.00  0.00    +0.000 A 
ATOM     31  F   UNL     1      -5.809  11.939  20.330  0.00  0.00    +0.000 F 
ENDBRANCH  22  25
ENDBRANCH  11  19
TORSDOF 3
ENDMDL
MODEL 6
REMARK VINA RESULT:      -7.5      2.847      4.773
REMARK  Name = 
REMARK  5 active torsions:
REMARK  status: ('A' for Active; 'I' for Inactive)
REMARK    1  A    between atoms: C_1  and  C_2
REMARK    2  A    between atoms: C_4  and  C_5
REMARK    3  A    between atoms: N_6  and  C_7
REMARK    4  A    between atoms: C_17  and  N_18
REMARK    5  A    between atoms: N_21  and  C_22
REMARK                            x       y       z     vdW  Elec       q    Type
REMARK                         _______ _______ _______ _____ _____    ______ ____
ROOT
ATOM      1  C   UNL     1      -0.202  13.101  21.443  0.00  0.00    +0.000 A 
ATOM      2  N   UNL     1      -0.658  14.183  22.139  0.00  0.00    +0.000 NA
ATOM      3  C   UNL     1      -1.758  14.011  22.875  0.00  0.00    +0.000 A 
ATOM      4  C   UNL     1      -2.300  15.115  23.518  0.00  0.00    +0.000 A 
ATOM      5  C   UNL     1      -3.451  14.993  24.285  0.00  0.00    +0.000 A 
ATOM      6 CL   UNL     1      -4.122  16.386  25.043  0.00  0.00    +0.000 Cl
ATOM      7  C   UNL     1      -4.064  13.759  24.431  0.00  0.00    +0.000 A 
ATOM      8  C   UNL     1      -3.519  12.641  23.782  0.00  0.00    +0.000 A 
ATOM      9  C   UNL     1      -2.379  12.751  22.990  0.00  0.00    +0.000 A 
ATOM     10  N   UNL     1      -1.882  11.663  22.361  0.00  0.00    +0.000 NA
ATOM     11  C   UNL     1      -0.776  11.815  21.574  0.00  0.00    +0.000 A 
ENDROOT
BRANCH   1  17
ATOM     12  C   UNL     1       4.231  14.101  19.767  0.00  0.00    +0.000 C 
ATOM     13  C   UNL     1       2.786  13.766  19.707  0.00  0.00    +0.000 A 
ATOM     14  C   UNL     1       1.939  13.737  18.589  0.00  0.00    +0.000 A 
ATOM     15  C   UNL     1       0.680  13.458  19.086  0.00  0.00    +0.000 A 
ATOM     16  C   UNL     1      -0.608  13.399  18.349  0.00  0.00    +0.000 C 
ATOM     17  N   UNL     1       0.817  13.367  20.471  0.00  0.00    +0.000 N 
ATOM     18  N   UNL     1       2.119  13.493  20.826  0.00  0.00    +0.000 NA
ENDBRANCH   1  17
BRANCH  11  19
ATOM     19  N   UNL     1      -0.266  10.669  21.010  0.00  0.00    +0.000 N 
ATOM     20  C   UNL     1      -0.641  10.251  19.656  0.00  0.00    +0.000 C 
ATOM     21  C   UNL     1       0.621   9.692  18.936  0.00  0.00    +0.000 C 
ATOM     22  N   UNL     1       1.214   8.578  19.728  0.00  0.00    +0.000 N 
ATOM     23  C   UNL     1       1.556   9.006  21.110  0.00  0.00    +0.000 C 
ATOM     24  C   UNL     1       0.317   9.594  21.824  0.00  0.00    +0.000 C 
BRANCH  22  25
ATOM     25  C   UNL     1       2.155   7.726  19.130  0.00  0.00    +0.000 A 
ATOM     26  C   UNL     1       2.828   8.177  17.976  0.00  0.00    +0.000 A 
ATOM     27  C   UNL     1       3.845   7.439  17.366  0.00  0.00    +0.000 A 
ATOM     28  C   UNL     1       4.231   6.218  17.903  0.00  0.00    +0.000 A 
ATOM     29  C   UNL     1       3.578   5.730  19.031  0.00  0.00    +0.000 A 
ATOM     30  C   UNL     1       2.554   6.472  19.628  0.00  0.00    +0.000 A 
ATOM     31  F   UNL     1       1.955   5.930  20.701  0.00  0.00    +0.000 F 
ENDBRANCH  22  25
ENDBRANCH  11  19
TORSDOF 3
ENDMDL
MODEL 7
REMARK VINA RESULT:      -7.5      2.897      4.922
REMARK  Name = 
REMARK  5 active torsions:
REMARK  status: ('A' for Active; 'I' for Inactive)
REMARK    1  A    between atoms: C_1  and  C_2
REMARK    2  A    between atoms: C_4  and  C_5
REMARK    3  A    between atoms: N_6  and  C_7
REMARK    4  A    between atoms: C_17  and  N_18
REMARK    5  A    between atoms: N_21  and  C_22
REMARK                            x       y       z     vdW  Elec       q    Type
REMARK                         _______ _______ _______ _____ _____    ______ ____
ROOT
ATOM      1  C   UNL     1       0.089  13.311  21.688  0.00  0.00    +0.000 A 
ATOM      2  N   UNL     1      -0.649  14.294  22.282  0.00  0.00    +0.000 NA
ATOM      3  C   UNL     1      -1.817  13.933  22.819  0.00  0.00    +0.000 A 
ATOM      4  C   UNL     1      -2.633  14.925  23.347  0.00  0.00    +0.000 A 
ATOM      5  C   UNL     1      -3.864  14.605  23.904  0.00  0.00    +0.000 A 
ATOM      6 CL   UNL     1      -4.871  15.858  24.519  0.00  0.00    +0.000 Cl
ATOM      7  C   UNL     1      -4.284  13.286  23.956  0.00  0.00    +0.000 A 
ATOM      8  C   UNL     1      -3.462  12.282  23.424  0.00  0.00    +0.000 A 
ATOM      9  C   UNL     1      -2.236  12.588  22.839  0.00  0.00    +0.000 A 
ATOM     10  N   UNL     1      -1.468  11.606  22.318  0.00  0.00    +0.000 NA
ATOM     11  C   UNL     1      -0.283  11.948  21.733  0.00  0.00    +0.000 A 
ENDROOT
BRANCH   1  17
ATOM     12  C   UNL     1       4.661  14.597  20.734  0.00  0.00    +0.000 C 
ATOM     13  C   UNL     1       3.237  14.286  20.452  0.00  0.00    +0.000 A 
ATOM     14  C   UNL     1       2.518  14.475  19.263  0.00  0.00    +0.000 A 
ATOM     15  C   UNL     1       1.217  14.111  19.554  0.00  0.00    +0.000 A 
ATOM     16  C   UNL     1       0.019  14.201  18.682  0.00  0.00    +0.000 C 
ATOM     17  N   UNL     1       1.204  13.756  20.903  0.00  0.00    +0.000 N 
ATOM     18  N   UNL     1       2.456  13.805  21.417  0.00  0.00    +0.000 NA
ENDBRANCH   1  17
BRANCH  11  19
ATOM     19  N   UNL     1       0.495  10.909  21.278  0.00  0.00    +0.000 N 
ATOM     20  C   UNL     1       1.296  10.094  22.195  0.00  0.00    +0.000 C 
ATOM     21  C   UNL     1       1.219   8.607  21.743  0.00  0.00    +0.000 C 
ATOM     22  N   UNL     1       1.669   8.474  20.329  0.00  0.00    +0.000 N 
ATOM     23  C   UNL     1       0.873   9.333  19.415  0.00  0.00    +0.000 C 
ATOM     24  C   UNL     1       0.915  10.809  19.873  0.00  0.00    +0.000 C 
BRANCH  22  25
ATOM     25  C   UNL     1       1.982   7.206  19.817  0.00  0.00    +0.000 A 
ATOM     26  C   UNL     1       1.557   6.070  20.536  0.00  0.00    +0.000 A 
ATOM     27  C   UNL     1       1.740   4.770  20.058  0.00  0.00    +0.000 A 
ATOM     28  C   UNL     1       2.352   4.564  18.828  0.00  0.00    +0.000 A 
ATOM     29  C   UNL     1       2.801   5.660  18.097  0.00  0.00    +0.000 A 
ATOM     30  C   UNL     1       2.622   6.957  18.589  0.00  0.00    +0.000 A 
ATOM     31  F   UNL     1       3.100   7.963  17.839  0.00  0.00    +0.000 F 
ENDBRANCH  22  25
ENDBRANCH  11  19
TORSDOF 3
ENDMDL
MODEL 8
REMARK VINA RESULT:      -7.4      2.999      5.114
REMARK  Name = 
REMARK  5 active torsions:
REMARK  status: ('A' for Active; 'I' for Inactive)
REMARK    1  A    between atoms: C_1  and  C_2
REMARK    2  A    between atoms: C_4  and  C_5
REMARK    3  A    between atoms: N_6  and  C_7
REMARK    4  A    between atoms: C_17  and  N_18
REMARK    5  A    between atoms: N_21  and  C_22
REMARK                            x       y       z     vdW  Elec       q    Type
REMARK                         _______ _______ _______ _____ _____    ______ ____
ROOT
ATOM      1  C   UNL     1      -0.600  13.554  21.853  0.00  0.00    +0.000 A 
ATOM      2  N   UNL     1      -1.125  14.606  22.548  0.00  0.00    +0.000 NA
ATOM      3  C   UNL     1      -2.375  14.472  22.995  0.00  0.00    +0.000 A 
ATOM      4  C   UNL     1      -2.969  15.559  23.622  0.00  0.00    +0.000 A 
ATOM      5  C   UNL     1      -4.273  15.477  24.093  0.00  0.00    +0.000 A 
ATOM      6 CL   UNL     1      -4.998  16.851  24.835  0.00  0.00    +0.000 Cl
ATOM      7  C   UNL     1      -4.991  14.300  23.958  0.00  0.00    +0.000 A 
ATOM      8  C   UNL     1      -4.394  13.201  23.325  0.00  0.00    +0.000 A 
ATOM      9  C   UNL     1      -3.096  13.273  22.825  0.00  0.00    +0.000 A 
ATOM     10  N   UNL     1      -2.547  12.207  22.204  0.00  0.00    +0.000 NA
ATOM     11  C   UNL     1      -1.281  12.323  21.706  0.00  0.00    +0.000 A 
ENDROOT
BRANCH   1  17
ATOM     12  C   UNL     1       4.164  14.257  21.332  0.00  0.00    +0.000 C 
ATOM     13  C   UNL     1       2.751  14.080  20.914  0.00  0.00    +0.000 A 
ATOM     14  C   UNL     1       2.186  14.250  19.642  0.00  0.00    +0.000 A 
ATOM     15  C   UNL     1       0.829  14.053  19.810  0.00  0.00    +0.000 A 
ATOM     16  C   UNL     1      -0.254  14.201  18.805  0.00  0.00    +0.000 C 
ATOM     17  N   UNL     1       0.634  13.811  21.170  0.00  0.00    +0.000 N 
ATOM     18  N   UNL     1       1.824  13.766  21.817  0.00  0.00    +0.000 NA
ENDBRANCH   1  17
BRANCH  11  19
ATOM     19  N   UNL     1      -0.739  11.192  21.143  0.00  0.00    +0.000 N 
ATOM     20  C   UNL     1      -1.045  10.801  19.765  0.00  0.00    +0.000 C 
ATOM     21  C   UNL     1       0.253  10.261  19.096  0.00  0.00    +0.000 C 
ATOM     22  N   UNL     1       0.812   9.134  19.892  0.00  0.00    +0.000 N 
ATOM     23  C   UNL     1       1.084   9.534  21.297  0.00  0.00    +0.000 C 
ATOM     24  C   UNL     1      -0.190  10.102  21.962  0.00  0.00    +0.000 C 
BRANCH  22  25
ATOM     25  C   UNL     1       1.785   8.298  19.322  0.00  0.00    +0.000 A 
ATOM     26  C   UNL     1       2.138   7.118  20.009  0.00  0.00    +0.000 A 
ATOM     27  C   UNL     1       3.026   6.180  19.476  0.00  0.00    +0.000 A 
ATOM     28  C   UNL     1       3.586   6.391  18.223  0.00  0.00    +0.000 A 
ATOM     29  C   UNL     1       3.276   7.553  17.522  0.00  0.00    +0.000 A 
ATOM     30  C   UNL     1       2.394   8.490  18.069  0.00  0.00    +0.000 A 
ATOM     31  F   UNL     1       2.158   9.597  17.346  0.00  0.00    +0.000 F 
ENDBRANCH  22  25
ENDBRANCH  11  19
TORSDOF 3
ENDMDL
MODEL 9
REMARK VINA RESULT:      -7.4      2.894      3.880
REMARK  Name = 
REMARK  5 active torsions:
REMARK  status: ('A' for Active; 'I' for Inactive)
REMARK    1  A    between atoms: C_1  and  C_2
REMARK    2  A    between atoms: C_4  and  C_5
REMARK    3  A    between atoms: N_6  and  C_7
REMARK    4  A    between atoms: C_17  and  N_18
REMARK    5  A    between atoms: N_21  and  C_22
REMARK                            x       y       z     vdW  Elec       q    Type
REMARK                         _______ _______ _______ _____ _____    ______ ____
ROOT
ATOM      1  C   UNL     1      -1.967  12.717  20.725  0.00  0.00    +0.000 A 
ATOM      2  N   UNL     1      -2.736  13.821  20.958  0.00  0.00    +0.000 NA
ATOM      3  C   UNL     1      -2.892  14.192  22.231  0.00  0.00    +0.000 A 
ATOM      4  C   UNL     1      -3.743  15.253  22.507  0.00  0.00    +0.000 A 
ATOM      5  C   UNL     1      -3.952  15.670  23.816  0.00  0.00    +0.000 A 
ATOM      6 CL   UNL     1      -5.040  16.966  24.133  0.00  0.00    +0.000 Cl
ATOM      7  C   UNL     1      -3.297  15.040  24.861  0.00  0.00    +0.000 A 
ATOM      8  C   UNL     1      -2.436  13.968  24.585  0.00  0.00    +0.000 A 
ATOM      9  C   UNL     1      -2.234  13.521  23.282  0.00  0.00    +0.000 A 
ATOM     10  N   UNL     1      -1.414  12.476  23.041  0.00  0.00    +0.000 NA
ATOM     11  C   UNL     1      -1.259  12.052  21.752  0.00  0.00    +0.000 A 
ENDROOT
BRANCH   1  17
ATOM     12  C   UNL     1      -3.356   9.795  17.120  0.00  0.00    +0.000 C 
ATOM     13  C   UNL     1      -2.658  10.932  17.771  0.00  0.00    +0.000 A 
ATOM     14  C   UNL     1      -1.690  11.791  17.232  0.00  0.00    +0.000 A 
ATOM     15  C   UNL     1      -1.301  12.612  18.273  0.00  0.00    +0.000 A 
ATOM     16  C   UNL     1      -0.236  13.647  18.281  0.00  0.00    +0.000 C 
ATOM     17  N   UNL     1      -2.019  12.191  19.392  0.00  0.00    +0.000 N 
ATOM     18  N   UNL     1      -2.890  11.209  19.053  0.00  0.00    +0.000 NA
ENDBRANCH   1  17
BRANCH  11  19
ATOM     19  N   UNL     1      -0.362  11.029  21.549  0.00  0.00    +0.000 N 
ATOM     20  C   UNL     1      -0.313   9.866  22.439  0.00  0.00    +0.000 C 
ATOM     21  C   UNL     1      -0.080   8.588  21.582  0.00  0.00    +0.000 C 
ATOM     22  N   UNL     1       1.160   8.731  20.770  0.00  0.00    +0.000 N 
ATOM     23  C   UNL     1       1.113   9.934  19.899  0.00  0.00    +0.000 C 
ATOM     24  C   UNL     1       0.849  11.207  20.735  0.00  0.00    +0.000 C 
BRANCH  22  25
ATOM     25  C   UNL     1       1.733   7.598  20.172  0.00  0.00    +0.000 A 
ATOM     26  C   UNL     1       1.590   6.354  20.821  0.00  0.00    +0.000 A 
ATOM     27  C   UNL     1       2.044   5.160  20.258  0.00  0.00    +0.000 A 
ATOM     28  C   UNL     1       2.653   5.170  19.009  0.00  0.00    +0.000 A 
ATOM     29  C   UNL     1       2.829   6.381  18.345  0.00  0.00    +0.000 A 
ATOM     30  C   UNL     1       2.379   7.573  18.923  0.00  0.00    +0.000 A 
ATOM     31  F   UNL     1       2.602   8.704  18.234  0.00  0.00    +0.000 F 
ENDBRANCH  22  25
ENDBRANCH  11  19
TORSDOF 3
ENDMDL
