MODEL 1
REMARK VINA RESULT:      -8.6      0.000      0.000
REMARK  Name = 
REMARK  6 active torsions:
REMARK  status: ('A' for Active; 'I' for Inactive)
REMARK    1  A    between atoms: C_1  and  C_2
REMARK    2  A    between atoms: C_2  and  C_3
REMARK    3  A    between atoms: C_3  and  C_4
REMARK    4  A    between atoms: C_7  and  C_8
REMARK    5  A    between atoms: N_10  and  C_11
REMARK    6  A    between atoms: C_13  and  C_14
REMARK                            x       y       z     vdW  Elec       q    Type
REMARK                         _______ _______ _______ _____ _____    ______ ____
ROOT
ATOM      1  C   UNL     1       2.001   6.598  19.725  0.00  0.00    +0.000 C 
ATOM      2  N   UNL     1       3.437   6.563  19.448  0.00  0.00    +0.000 NA
ATOM      3  C   UNL     1       4.095   5.506  19.066  0.00  0.00    +0.000 C 
ATOM      4  C   UNL     1       3.596   4.035  18.873  0.00  0.00    +0.000 A 
ATOM      5  C   UNL     1       4.498   3.004  18.536  0.00  0.00    +0.000 A 
ATOM      6  C   UNL     1       4.085   1.738  18.100  0.00  0.00    +0.000 A 
ATOM      7  C   UNL     1       2.740   1.467  17.938  0.00  0.00    +0.000 A 
ATOM      8  C   UNL     1       1.815   2.427  18.315  0.00  0.00    +0.000 A 
ATOM      9  C   UNL     1       2.237   3.655  18.851  0.00  0.00    +0.000 A 
ATOM     10  N   UNL     1       1.210   4.366  19.489  0.00  0.00    +0.000 N 
ATOM     11  C   UNL     1       1.602   5.302  20.402  0.00  0.00    +0.000 C 
ATOM     12  O   UNL     1       1.779   5.050  21.593  0.00  0.00    +0.000 OA
ATOM     13  H   UNL     1       0.448   4.630  18.871  0.00  0.00    +0.000 HD
ENDROOT
BRANCH   3  14
ATOM     14  C   UNL     1       5.474   5.814  18.497  0.00  0.00    +0.000 A 
ATOM     15  C   UNL     1       5.696   6.578  17.347  0.00  0.00    +0.000 A 
ATOM     16  C   UNL     1       6.944   7.183  17.144  0.00  0.00    +0.000 A 
ATOM     17  C   UNL     1       8.001   6.923  18.016  0.00  0.00    +0.000 A 
ATOM     18  C   UNL     1       7.825   6.028  19.068  0.00  0.00    +0.000 A 
ATOM     19  C   UNL     1       6.564   5.480  19.313  0.00  0.00    +0.000 A 
ENDBRANCH   3  14
BRANCH   1  22
ATOM     20  C   UNL     1       1.199   8.845  20.112  0.00  0.00    +0.000 C 
ATOM     21  O   UNL     1       1.405   9.155  18.949  0.00  0.00    +0.000 OA
ATOM     22  N   UNL     1       1.631   7.634  20.662  0.00  0.00    +0.000 N 
ATOM     23  H   UNL     1       1.111   7.287  21.455  0.00  0.00    +0.000 HD
BRANCH  20  27
ATOM     24  C   UNL     1      -1.116  11.411  22.702  0.00  0.00    +0.000 A 
ATOM     25  C   UNL     1      -0.655  10.167  23.161  0.00  0.00    +0.000 A 
ATOM     26  C   UNL     1       0.078   9.320  22.312  0.00  0.00    +0.000 A 
ATOM     27  C   UNL     1       0.355   9.710  20.991  0.00  0.00    +0.000 A 
ATOM     28  C   UNL     1      -0.144  10.926  20.522  0.00  0.00    +0.000 A 
ATOM     29  C   UNL     1      -0.871  11.767  21.367  0.00  0.00    +0.000 A 
BRANCH  24  30
ATOM     30  C   UNL     1      -1.893  12.358  23.590  0.00  0.00    +0.000 C 
BRANCH  30  32
ATOM     31  C   UNL     1      -4.225  12.501  24.547  0.00  0.00    +0.000 C 
ATOM     32  C   UNL     1      -3.392  12.401  23.276  0.00  0.00    +0.000 C 
ENDBRANCH  30  32
ENDBRANCH  24  30
ENDBRANCH  20  27
ENDBRANCH   1  22
TORSDOF 5
ENDMDL
MODEL 2
REMARK VINA RESULT:      -8.5      0.904      1.542
REMARK  Name = 
REMARK  6 active torsions:
REMARK  status: ('A' for Active; 'I' for Inactive)
REMARK    1  A    between atoms: C_1  and  C_2
REMARK    2  A    between atoms: C_2  and  C_3
REMARK    3  A    between atoms: C_3  and  C_4
REMARK    4  A    between atoms: C_7  and  C_8
REMARK    5  A    between atoms: N_10  and  C_11
REMARK    6  A    between atoms: C_13  and  C_14
REMARK                            x       y       z     vdW  Elec       q    Type
REMARK                         _______ _______ _______ _____ _____    ______ ____
ROOT
ATOM      1  C   UNL     1       1.952   6.704  19.605  0.00  0.00    +0.000 C 
ATOM      2  N   UNL     1       3.302   6.575  19.055  0.00  0.00    +0.000 NA
ATOM      3  C   UNL     1       3.852   5.453  18.693  0.00  0.00    +0.000 C 
ATOM      4  C   UNL     1       3.302   3.991  18.798  0.00  0.00    +0.000 A 
ATOM      5  C   UNL     1       4.101   2.888  18.428  0.00  0.00    +0.000 A 
ATOM      6  C   UNL     1       3.589   1.596  18.253  0.00  0.00    +0.000 A 
ATOM      7  C   UNL     1       2.235   1.363  18.399  0.00  0.00    +0.000 A 
ATOM      8  C   UNL     1       1.420   2.401  18.823  0.00  0.00    +0.000 A 
ATOM      9  C   UNL     1       1.960   3.668  19.097  0.00  0.00    +0.000 A 
ATOM     10  N   UNL     1       1.095   4.495  19.828  0.00  0.00    +0.000 N 
ATOM     11  C   UNL     1       1.679   5.522  20.514  0.00  0.00    +0.000 C 
ATOM     12  O   UNL     1       2.090   5.415  21.668  0.00  0.00    +0.000 OA
ATOM     13  H   UNL     1       0.229   4.711  19.344  0.00  0.00    +0.000 HD
ENDROOT
BRANCH   3  14
ATOM     14  C   UNL     1       5.091   5.628  17.825  0.00  0.00    +0.000 A 
ATOM     15  C   UNL     1       6.402   5.470  18.285  0.00  0.00    +0.000 A 
ATOM     16  C   UNL     1       7.433   5.205  17.373  0.00  0.00    +0.000 A 
ATOM     17  C   UNL     1       7.180   5.225  16.002  0.00  0.00    +0.000 A 
ATOM     18  C   UNL     1       5.907   5.549  15.538  0.00  0.00    +0.000 A 
ATOM     19  C   UNL     1       4.864   5.743  16.446  0.00  0.00    +0.000 A 
ENDBRANCH   3  14
BRANCH   1  22
ATOM     20  C   UNL     1       1.251   9.005  19.852  0.00  0.00    +0.000 C 
ATOM     21  O   UNL     1       1.195   9.153  18.641  0.00  0.00    +0.000 OA
ATOM     22  N   UNL     1       1.795   7.865  20.453  0.00  0.00    +0.000 N 
ATOM     23  H   UNL     1       1.463   7.640  21.379  0.00  0.00    +0.000 HD
BRANCH  20  27
ATOM     24  C   UNL     1      -0.697  11.872  22.426  0.00  0.00    +0.000 A 
ATOM     25  C   UNL     1       0.004  12.300  21.288  0.00  0.00    +0.000 A 
ATOM     26  C   UNL     1       0.659  11.371  20.463  0.00  0.00    +0.000 A 
ATOM     27  C   UNL     1       0.620  10.001  20.770  0.00  0.00    +0.000 A 
ATOM     28  C   UNL     1      -0.037   9.582  21.928  0.00  0.00    +0.000 A 
ATOM     29  C   UNL     1      -0.689  10.507  22.746  0.00  0.00    +0.000 A 
BRANCH  24  30
ATOM     30  C   UNL     1      -1.431  12.840  23.330  0.00  0.00    +0.000 C 
BRANCH  30  32
ATOM     31  C   UNL     1      -3.800  12.471  24.120  0.00  0.00    +0.000 C 
ATOM     32  C   UNL     1      -2.917  12.987  22.991  0.00  0.00    +0.000 C 
ENDBRANCH  30  32
ENDBRANCH  24  30
ENDBRANCH  20  27
ENDBRANCH   1  22
TORSDOF 5
ENDMDL
MODEL 3
REMARK VINA RESULT:      -8.1      2.110      4.140
REMARK  Name = 
REMARK  6 active torsions:
REMARK  status: ('A' for Active; 'I' for Inactive)
REMARK    1  A    between atoms: C_1  and  C_2
REMARK    2  A    between atoms: C_2  and  C_3
REMARK    3  A    between atoms: C_3  and  C_4
REMARK    4  A    between atoms: C_7  and  C_8
REMARK    5  A    between atoms: N_10  and  C_11
REMARK    6  A    between atoms: C_13  and  C_14
REMARK                            x       y       z     vdW  Elec       q    Type
REMARK                         _______ _______ _______ _____ _____    ______ ____
ROOT
ATOM      1  C   UNL     1       2.012   8.331  19.647  0.00  0.00    +0.000 C 
ATOM      2  N   UNL     1       1.759   6.914  19.908  0.00  0.00    +0.000 NA
ATOM      3  C   UNL     1       2.288   5.929  19.240  0.00  0.00    +0.000 C 
ATOM      4  C   UNL     1       3.234   5.963  17.993  0.00  0.00    +0.000 A 
ATOM      5  C   UNL     1       3.630   4.769  17.353  0.00  0.00    +0.000 A 
ATOM      6  C   UNL     1       4.664   4.713  16.409  0.00  0.00    +0.000 A 
ATOM      7  C   UNL     1       5.380   5.853  16.100  0.00  0.00    +0.000 A 
ATOM      8  C   UNL     1       4.988   7.061  16.656  0.00  0.00    +0.000 A 
ATOM      9  C   UNL     1       3.883   7.124  17.520  0.00  0.00    +0.000 A 
ATOM     10  N   UNL     1       3.409   8.429  17.723  0.00  0.00    +0.000 N 
ATOM     11  C   UNL     1       2.117   8.541  18.149  0.00  0.00    +0.000 C 
ATOM     12  O   UNL     1       1.158   8.618  17.383  0.00  0.00    +0.000 OA
ATOM     13  H   UNL     1       4.085   9.046  18.162  0.00  0.00    +0.000 HD
ENDROOT
BRANCH   3  14
ATOM     14  C   UNL     1       2.161   4.579  19.933  0.00  0.00    +0.000 A 
ATOM     15  C   UNL     1       2.796   4.249  21.134  0.00  0.00    +0.000 A 
ATOM     16  C   UNL     1       2.296   3.202  21.921  0.00  0.00    +0.000 A 
ATOM     17  C   UNL     1       1.249   2.409  21.452  0.00  0.00    +0.000 A 
ATOM     18  C   UNL     1       0.727   2.633  20.181  0.00  0.00    +0.000 A 
ATOM     19  C   UNL     1       1.176   3.719  19.426  0.00  0.00    +0.000 A 
ENDBRANCH   3  14
BRANCH   1  22
ATOM     20  C   UNL     1       0.879   9.517  21.423  0.00  0.00    +0.000 C 
ATOM     21  O   UNL     1       1.500   8.902  22.275  0.00  0.00    +0.000 OA
ATOM     22  N   UNL     1       0.923   9.185  20.065  0.00  0.00    +0.000 N 
ATOM     23  H   UNL     1       0.727   9.930  19.411  0.00  0.00    +0.000 HD
BRANCH  20  27
ATOM     24  C   UNL     1      -1.218  13.118  22.557  0.00  0.00    +0.000 A 
ATOM     25  C   UNL     1      -1.536  11.890  23.159  0.00  0.00    +0.000 A 
ATOM     26  C   UNL     1      -0.871  10.714  22.774  0.00  0.00    +0.000 A 
ATOM     27  C   UNL     1       0.119  10.753  21.779  0.00  0.00    +0.000 A 
ATOM     28  C   UNL     1       0.401  11.966  21.148  0.00  0.00    +0.000 A 
ATOM     29  C   UNL     1      -0.259  13.135  21.533  0.00  0.00    +0.000 A 
BRANCH  24  30
ATOM     30  C   UNL     1      -1.897  14.410  22.957  0.00  0.00    +0.000 C 
BRANCH  30  32
ATOM     31  C   UNL     1      -2.880  14.846  25.241  0.00  0.00    +0.000 C 
ATOM     32  C   UNL     1      -1.609  14.831  24.401  0.00  0.00    +0.000 C 
ENDBRANCH  30  32
ENDBRANCH  24  30
ENDBRANCH  20  27
ENDBRANCH   1  22
TORSDOF 5
ENDMDL
MODEL 4
REMARK VINA RESULT:      -8.1      2.044      4.053
REMARK  Name = 
REMARK  6 active torsions:
REMARK  status: ('A' for Active; 'I' for Inactive)
REMARK    1  A    between atoms: C_1  and  C_2
REMARK    2  A    between atoms: C_2  and  C_3
REMARK    3  A    between atoms: C_3  and  C_4
REMARK    4  A    between atoms: C_7  and  C_8
REMARK    5  A    between atoms: N_10  and  C_11
REMARK    6  A    between atoms: C_13  and  C_14
REMARK                            x       y       z     vdW  Elec       q    Type
REMARK                         _______ _______ _______ _____ _____    ______ ____
ROOT
ATOM      1  C   UNL     1       2.045   8.075  19.676  0.00  0.00    +0.000 C 
ATOM      2  N   UNL     1       1.846   6.641  19.887  0.00  0.00    +0.000 NA
ATOM      3  C   UNL     1       2.405   5.701  19.181  0.00  0.00    +0.000 C 
ATOM      4  C   UNL     1       3.340   5.814  17.930  0.00  0.00    +0.000 A 
ATOM      5  C   UNL     1       3.774   4.660  17.244  0.00  0.00    +0.000 A 
ATOM      6  C   UNL     1       4.803   4.676  16.293  0.00  0.00    +0.000 A 
ATOM      7  C   UNL     1       5.475   5.851  16.023  0.00  0.00    +0.000 A 
ATOM      8  C   UNL     1       5.044   7.023  16.625  0.00  0.00    +0.000 A 
ATOM      9  C   UNL     1       3.943   7.014  17.497  0.00  0.00    +0.000 A 
ATOM     10  N   UNL     1       3.425   8.293  17.750  0.00  0.00    +0.000 N 
ATOM     11  C   UNL     1       2.132   8.343  18.187  0.00  0.00    +0.000 C 
ATOM     12  O   UNL     1       1.166   8.413  17.430  0.00  0.00    +0.000 OA
ATOM     13  H   UNL     1       4.081   8.918  18.208  0.00  0.00    +0.000 HD
ENDROOT
BRANCH   3  14
ATOM     14  C   UNL     1       2.331   4.322  19.824  0.00  0.00    +0.000 A 
ATOM     15  C   UNL     1       3.440   3.503  20.057  0.00  0.00    +0.000 A 
ATOM     16  C   UNL     1       3.367   2.492  21.024  0.00  0.00    +0.000 A 
ATOM     17  C   UNL     1       2.158   2.217  21.664  0.00  0.00    +0.000 A 
ATOM     18  C   UNL     1       1.011   2.924  21.309  0.00  0.00    +0.000 A 
ATOM     19  C   UNL     1       1.098   3.978  20.398  0.00  0.00    +0.000 A 
ENDBRANCH   3  14
BRANCH   1  22
ATOM     20  C   UNL     1       0.984   9.322  21.455  0.00  0.00    +0.000 C 
ATOM     21  O   UNL     1       1.736   8.838  22.288  0.00  0.00    +0.000 OA
ATOM     22  N   UNL     1       0.930   8.873  20.132  0.00  0.00    +0.000 N 
ATOM     23  H   UNL     1       0.608   9.538  19.443  0.00  0.00    +0.000 HD
BRANCH  20  27
ATOM     24  C   UNL     1      -1.516  12.736  22.313  0.00  0.00    +0.000 A 
ATOM     25  C   UNL     1      -0.570  12.790  21.278  0.00  0.00    +0.000 A 
ATOM     26  C   UNL     1       0.261  11.688  21.013  0.00  0.00    +0.000 A 
ATOM     27  C   UNL     1       0.155  10.520  21.784  0.00  0.00    +0.000 A 
ATOM     28  C   UNL     1      -0.753  10.485  22.844  0.00  0.00    +0.000 A 
ATOM     29  C   UNL     1      -1.580  11.580  23.105  0.00  0.00    +0.000 A 
BRANCH  24  30
ATOM     30  C   UNL     1      -2.442  13.894  22.619  0.00  0.00    +0.000 C 
BRANCH  30  32
ATOM     31  C   UNL     1      -1.779  15.028  24.775  0.00  0.00    +0.000 C 
ATOM     32  C   UNL     1      -2.747  14.056  24.111  0.00  0.00    +0.000 C 
ENDBRANCH  30  32
ENDBRANCH  24  30
ENDBRANCH  20  27
ENDBRANCH   1  22
TORSDOF 5
ENDMDL
MODEL 5
REMARK VINA RESULT:      -8.0      1.435      1.878
REMARK  Name = 
REMARK  6 active torsions:
REMARK  status: ('A' for Active; 'I' for Inactive)
REMARK    1  A    between atoms: C_1  and  C_2
REMARK    2  A    between atoms: C_2  and  C_3
REMARK    3  A    between atoms: C_3  and  C_4
REMARK    4  A    between atoms: C_7  and  C_8
REMARK    5  A    between atoms: N_10  and  C_11
REMARK    6  A    between atoms: C_13  and  C_14
REMARK                            x       y       z     vdW  Elec       q    Type
REMARK                         _______ _______ _______ _____ _____    ______ ____
ROOT
ATOM      1  C   UNL     1       2.119   6.860  19.042  0.00  0.00    +0.000 C 
ATOM      2  N   UNL     1       3.453   6.577  18.510  0.00  0.00    +0.000 NA
ATOM      3  C   UNL     1       3.936   5.385  18.310  0.00  0.00    +0.000 C 
ATOM      4  C   UNL     1       3.307   3.987  18.625  0.00  0.00    +0.000 A 
ATOM      5  C   UNL     1       4.039   2.799  18.414  0.00  0.00    +0.000 A 
ATOM      6  C   UNL     1       3.454   1.526  18.428  0.00  0.00    +0.000 A 
ATOM      7  C   UNL     1       2.091   1.394  18.611  0.00  0.00    +0.000 A 
ATOM      8  C   UNL     1       1.340   2.526  18.885  0.00  0.00    +0.000 A 
ATOM      9  C   UNL     1       1.953   3.786  18.973  0.00  0.00    +0.000 A 
ATOM     10  N   UNL     1       1.144   4.757  19.581  0.00  0.00    +0.000 N 
ATOM     11  C   UNL     1       1.792   5.836  20.111  0.00  0.00    +0.000 C 
ATOM     12  O   UNL     1       2.210   5.872  21.267  0.00  0.00    +0.000 OA
ATOM     13  H   UNL     1       0.285   4.950  19.076  0.00  0.00    +0.000 HD
ENDROOT
BRANCH   3  14
ATOM     14  C   UNL     1       5.172   5.365  17.421  0.00  0.00    +0.000 A 
ATOM     15  C   UNL     1       6.460   5.057  17.872  0.00  0.00    +0.000 A 
ATOM     16  C   UNL     1       7.432   4.625  16.959  0.00  0.00    +0.000 A 
ATOM     17  C   UNL     1       7.160   4.623  15.591  0.00  0.00    +0.000 A 
ATOM     18  C   UNL     1       5.932   5.090  15.130  0.00  0.00    +0.000 A 
ATOM     19  C   UNL     1       4.938   5.453  16.041  0.00  0.00    +0.000 A 
ENDBRANCH   3  14
BRANCH   1  22
ATOM     20  C   UNL     1       1.455   9.184  18.994  0.00  0.00    +0.000 C 
ATOM     21  O   UNL     1       1.305   9.151  17.782  0.00  0.00    +0.000 OA
ATOM     22  N   UNL     1       2.037   8.136  19.714  0.00  0.00    +0.000 N 
ATOM     23  H   UNL     1       1.778   8.058  20.687  0.00  0.00    +0.000 HD
BRANCH  20  27
ATOM     24  C   UNL     1      -0.008  12.464  21.391  0.00  0.00    +0.000 A 
ATOM     25  C   UNL     1      -0.224  11.136  21.794  0.00  0.00    +0.000 A 
ATOM     26  C   UNL     1       0.230  10.068  21.003  0.00  0.00    +0.000 A 
ATOM     27  C   UNL     1       0.905  10.317  19.797  0.00  0.00    +0.000 A 
ATOM     28  C   UNL     1       1.078  11.636  19.375  0.00  0.00    +0.000 A 
ATOM     29  C   UNL     1       0.627  12.697  20.163  0.00  0.00    +0.000 A 
BRANCH  24  30
ATOM     30  C   UNL     1      -0.465  13.642  22.224  0.00  0.00    +0.000 C 
BRANCH  30  32
ATOM     31  C   UNL     1      -1.861  14.474  24.157  0.00  0.00    +0.000 C 
ATOM     32  C   UNL     1      -1.471  13.264  23.316  0.00  0.00    +0.000 C 
ENDBRANCH  30  32
ENDBRANCH  24  30
ENDBRANCH  20  27
ENDBRANCH   1  22
TORSDOF 5
ENDMDL
MODEL 6
REMARK VINA RESULT:      -7.9      2.099      3.981
REMARK  Name = 
REMARK  6 active torsions:
REMARK  status: ('A' for Active; 'I' for Inactive)
REMARK    1  A    between atoms: C_1  and  C_2
REMARK    2  A    between atoms: C_2  and  C_3
REMARK    3  A    between atoms: C_3  and  C_4
REMARK    4  A    between atoms: C_7  and  C_8
REMARK    5  A    between atoms: N_10  and  C_11
REMARK    6  A    between atoms: C_13  and  C_14
REMARK                            x       y       z     vdW  Elec       q    Type
REMARK                         _______ _______ _______ _____ _____    ______ ____
ROOT
ATOM      1  C   UNL     1       2.080   8.105  19.615  0.00  0.00    +0.000 C 
ATOM      2  N   UNL     1       1.870   6.674  19.835  0.00  0.00    +0.000 NA
ATOM      3  C   UNL     1       2.423   5.726  19.136  0.00  0.00    +0.000 C 
ATOM      4  C   UNL     1       3.359   5.823  17.885  0.00  0.00    +0.000 A 
ATOM      5  C   UNL     1       3.785   4.661  17.207  0.00  0.00    +0.000 A 
ATOM      6  C   UNL     1       4.815   4.663  16.257  0.00  0.00    +0.000 A 
ATOM      7  C   UNL     1       5.496   5.832  15.978  0.00  0.00    +0.000 A 
ATOM      8  C   UNL     1       5.073   7.011  16.572  0.00  0.00    +0.000 A 
ATOM      9  C   UNL     1       3.971   7.016  17.444  0.00  0.00    +0.000 A 
ATOM     10  N   UNL     1       3.462   8.300  17.688  0.00  0.00    +0.000 N 
ATOM     11  C   UNL     1       2.169   8.363  18.124  0.00  0.00    +0.000 C 
ATOM     12  O   UNL     1       1.204   8.435  17.365  0.00  0.00    +0.000 OA
ATOM     13  H   UNL     1       4.122   8.924  18.141  0.00  0.00    +0.000 HD
ENDROOT
BRANCH   3  14
ATOM     14  C   UNL     1       2.338   4.352  19.788  0.00  0.00    +0.000 A 
ATOM     15  C   UNL     1       3.446   3.551  20.080  0.00  0.00    +0.000 A 
ATOM     16  C   UNL     1       3.343   2.548  21.053  0.00  0.00    +0.000 A 
ATOM     17  C   UNL     1       2.110   2.261  21.639  0.00  0.00    +0.000 A 
ATOM     18  C   UNL     1       0.971   2.948  21.224  0.00  0.00    +0.000 A 
ATOM     19  C   UNL     1       1.085   3.995  20.308  0.00  0.00    +0.000 A 
ENDBRANCH   3  14
BRANCH   1  22
ATOM     20  C   UNL     1       0.971   9.278  21.414  0.00  0.00    +0.000 C 
ATOM     21  O   UNL     1       1.661   8.717  22.251  0.00  0.00    +0.000 OA
ATOM     22  N   UNL     1       0.970   8.915  20.064  0.00  0.00    +0.000 N 
ATOM     23  H   UNL     1       0.707   9.632  19.404  0.00  0.00    +0.000 HD
BRANCH  20  27
ATOM     24  C   UNL     1      -1.252  12.797  22.566  0.00  0.00    +0.000 A 
ATOM     25  C   UNL     1      -1.498  11.565  23.191  0.00  0.00    +0.000 A 
ATOM     26  C   UNL     1      -0.793  10.413  22.801  0.00  0.00    +0.000 A 
ATOM     27  C   UNL     1       0.166  10.484  21.778  0.00  0.00    +0.000 A 
ATOM     28  C   UNL     1       0.376  11.700  21.125  0.00  0.00    +0.000 A 
ATOM     29  C   UNL     1      -0.324  12.843  21.515  0.00  0.00    +0.000 A 
BRANCH  24  30
ATOM     30  C   UNL     1      -1.977  14.063  22.970  0.00  0.00    +0.000 C 
BRANCH  30  32
ATOM     31  C   UNL     1      -3.957  13.573  21.481  0.00  0.00    +0.000 C 
ATOM     32  C   UNL     1      -2.911  14.605  21.883  0.00  0.00    +0.000 C 
ENDBRANCH  30  32
ENDBRANCH  24  30
ENDBRANCH  20  27
ENDBRANCH   1  22
TORSDOF 5
ENDMDL
MODEL 7
REMARK VINA RESULT:      -7.7      3.291     11.031
REMARK  Name = 
REMARK  6 active torsions:
REMARK  status: ('A' for Active; 'I' for Inactive)
REMARK    1  A    between atoms: C_1  and  C_2
REMARK    2  A    between atoms: C_2  and  C_3
REMARK    3  A    between atoms: C_3  and  C_4
REMARK    4  A    between atoms: C_7  and  C_8
REMARK    5  A    between atoms: N_10  and  C_11
REMARK    6  A    between atoms: C_13  and  C_14
REMARK                            x       y       z     vdW  Elec       q    Type
REMARK                         _______ _______ _______ _____ _____    ______ ____
ROOT
ATOM      1  C   UNL     1      -1.364  12.290  20.985  0.00  0.00    +0.000 C 
ATOM      2  N   UNL     1      -2.815  12.476  20.984  0.00  0.00    +0.000 NA
ATOM      3  C   UNL     1      -3.475  13.179  21.859  0.00  0.00    +0.000 C 
ATOM      4  C   UNL     1      -2.958  13.926  23.134  0.00  0.00    +0.000 A 
ATOM      5  C   UNL     1      -3.858  14.563  24.014  0.00  0.00    +0.000 A 
ATOM      6  C   UNL     1      -3.449  15.455  25.014  0.00  0.00    +0.000 A 
ATOM      7  C   UNL     1      -2.114  15.782  25.144  0.00  0.00    +0.000 A 
ATOM      8  C   UNL     1      -1.186  15.135  24.344  0.00  0.00    +0.000 A 
ATOM      9  C   UNL     1      -1.596  14.164  23.416  0.00  0.00    +0.000 A 
ATOM     10  N   UNL     1      -0.542  13.371  22.939  0.00  0.00    +0.000 N 
ATOM     11  C   UNL     1      -0.889  12.157  22.419  0.00  0.00    +0.000 C 
ATOM     12  O   UNL     1      -0.975  11.133  23.094  0.00  0.00    +0.000 OA
ATOM     13  H   UNL     1       0.167  13.892  22.433  0.00  0.00    +0.000 HD
ENDROOT
BRANCH   3  14
ATOM     14  C   UNL     1      -4.897  13.516  21.430  0.00  0.00    +0.000 A 
ATOM     15  C   UNL     1      -5.225  14.524  20.519  0.00  0.00    +0.000 A 
ATOM     16  C   UNL     1      -6.454  14.482  19.847  0.00  0.00    +0.000 A 
ATOM     17  C   UNL     1      -7.401  13.513  20.175  0.00  0.00    +0.000 A 
ATOM     18  C   UNL     1      -7.140  12.610  21.203  0.00  0.00    +0.000 A 
ATOM     19  C   UNL     1      -5.889  12.606  21.824  0.00  0.00    +0.000 A 
ENDBRANCH   3  14
BRANCH   1  22
ATOM     20  C   UNL     1       0.229  11.116  19.596  0.00  0.00    +0.000 C 
ATOM     21  O   UNL     1       0.730  12.166  19.225  0.00  0.00    +0.000 OA
ATOM     22  N   UNL     1      -0.952  11.062  20.344  0.00  0.00    +0.000 N 
ATOM     23  H   UNL     1      -1.081  10.246  20.925  0.00  0.00    +0.000 HD
BRANCH  20  27
ATOM     24  C   UNL     1       2.381   7.426  18.964  0.00  0.00    +0.000 A 
ATOM     25  C   UNL     1       2.155   8.309  17.896  0.00  0.00    +0.000 A 
ATOM     26  C   UNL     1       1.434   9.498  18.095  0.00  0.00    +0.000 A 
ATOM     27  C   UNL     1       0.929   9.816  19.366  0.00  0.00    +0.000 A 
ATOM     28  C   UNL     1       1.114   8.915  20.416  0.00  0.00    +0.000 A 
ATOM     29  C   UNL     1       1.832   7.734  20.217  0.00  0.00    +0.000 A 
BRANCH  24  30
ATOM     30  C   UNL     1       3.168   6.144  18.795  0.00  0.00    +0.000 C 
BRANCH  30  32
ATOM     31  C   UNL     1       1.563   4.196  18.715  0.00  0.00    +0.000 C 
ATOM     32  C   UNL     1       2.471   5.112  17.903  0.00  0.00    +0.000 C 
ENDBRANCH  30  32
ENDBRANCH  24  30
ENDBRANCH  20  27
ENDBRANCH   1  22
TORSDOF 5
ENDMDL
MODEL 8
REMARK VINA RESULT:      -7.7      2.041      2.830
REMARK  Name = 
REMARK  6 active torsions:
REMARK  status: ('A' for Active; 'I' for Inactive)
REMARK    1  A    between atoms: C_1  and  C_2
REMARK    2  A    between atoms: C_2  and  C_3
REMARK    3  A    between atoms: C_3  and  C_4
REMARK    4  A    between atoms: C_7  and  C_8
REMARK    5  A    between atoms: N_10  and  C_11
REMARK    6  A    between atoms: C_13  and  C_14
REMARK                            x       y       z     vdW  Elec       q    Type
REMARK                         _______ _______ _______ _____ _____    ______ ____
ROOT
ATOM      1  C   UNL     1       2.104   6.930  18.762  0.00  0.00    +0.000 C 
ATOM      2  N   UNL     1       3.453   6.633  18.278  0.00  0.00    +0.000 NA
ATOM      3  C   UNL     1       3.958   5.437  18.170  0.00  0.00    +0.000 C 
ATOM      4  C   UNL     1       3.342   4.054  18.569  0.00  0.00    +0.000 A 
ATOM      5  C   UNL     1       4.096   2.867  18.455  0.00  0.00    +0.000 A 
ATOM      6  C   UNL     1       3.529   1.589  18.546  0.00  0.00    +0.000 A 
ATOM      7  C   UNL     1       2.165   1.448  18.711  0.00  0.00    +0.000 A 
ATOM      8  C   UNL     1       1.392   2.584  18.891  0.00  0.00    +0.000 A 
ATOM      9  C   UNL     1       1.985   3.857  18.904  0.00  0.00    +0.000 A 
ATOM     10  N   UNL     1       1.149   4.854  19.427  0.00  0.00    +0.000 N 
ATOM     11  C   UNL     1       1.771   5.977  19.893  0.00  0.00    +0.000 C 
ATOM     12  O   UNL     1       2.164   6.099  21.052  0.00  0.00    +0.000 OA
ATOM     13  H   UNL     1       0.298   4.998  18.892  0.00  0.00    +0.000 HD
ENDROOT
BRANCH   3  14
ATOM     14  C   UNL     1       5.212   5.376  17.309  0.00  0.00    +0.000 A 
ATOM     15  C   UNL     1       6.492   5.106  17.803  0.00  0.00    +0.000 A 
ATOM     16  C   UNL     1       7.486   4.629  16.938  0.00  0.00    +0.000 A 
ATOM     17  C   UNL     1       7.243   4.544  15.567  0.00  0.00    +0.000 A 
ATOM     18  C   UNL     1       6.021   4.973  15.054  0.00  0.00    +0.000 A 
ATOM     19  C   UNL     1       5.006   5.381  15.922  0.00  0.00    +0.000 A 
ENDBRANCH   3  14
BRANCH   1  22
ATOM     20  C   UNL     1       1.792   9.307  18.451  0.00  0.00    +0.000 C 
ATOM     21  O   UNL     1       2.010   9.212  17.253  0.00  0.00    +0.000 OA
ATOM     22  N   UNL     1       1.991   8.248  19.343  0.00  0.00    +0.000 N 
ATOM     23  H   UNL     1       1.443   8.264  20.191  0.00  0.00    +0.000 HD
BRANCH  20  27
ATOM     24  C   UNL     1      -0.075  12.892  19.969  0.00  0.00    +0.000 A 
ATOM     25  C   UNL     1       1.052  12.976  19.136  0.00  0.00    +0.000 A 
ATOM     26  C   UNL     1       1.676  11.809  18.661  0.00  0.00    +0.000 A 
ATOM     27  C   UNL     1       1.178  10.546  19.017  0.00  0.00    +0.000 A 
ATOM     28  C   UNL     1       0.086  10.464  19.882  0.00  0.00    +0.000 A 
ATOM     29  C   UNL     1      -0.533  11.624  20.353  0.00  0.00    +0.000 A 
BRANCH  24  30
ATOM     30  C   UNL     1      -0.785  14.124  20.487  0.00  0.00    +0.000 C 
BRANCH  30  32
ATOM     31  C   UNL     1      -0.789  16.340  19.275  0.00  0.00    +0.000 C 
ATOM     32  C   UNL     1      -0.022  15.426  20.223  0.00  0.00    +0.000 C 
ENDBRANCH  30  32
ENDBRANCH  24  30
ENDBRANCH  20  27
ENDBRANCH   1  22
TORSDOF 5
ENDMDL
MODEL 9
REMARK VINA RESULT:      -7.7      2.948      9.858
REMARK  Name = 
REMARK  6 active torsions:
REMARK  status: ('A' for Active; 'I' for Inactive)
REMARK    1  A    between atoms: C_1  and  C_2
REMARK    2  A    between atoms: C_2  and  C_3
REMARK    3  A    between atoms: C_3  and  C_4
REMARK    4  A    between atoms: C_7  and  C_8
REMARK    5  A    between atoms: N_10  and  C_11
REMARK    6  A    between atoms: C_13  and  C_14
REMARK                            x       y       z     vdW  Elec       q    Type
REMARK                         _______ _______ _______ _____ _____    ______ ____
ROOT
ATOM      1  C   UNL     1       0.722  10.507  19.350  0.00  0.00    +0.000 C 
ATOM      2  N   UNL     1      -0.695  10.690  19.034  0.00  0.00    +0.000 NA
ATOM      3  C   UNL     1      -1.407  11.723  19.383  0.00  0.00    +0.000 C 
ATOM      4  C   UNL     1      -1.008  12.964  20.249  0.00  0.00    +0.000 A 
ATOM      5  C   UNL     1      -1.963  13.945  20.593  0.00  0.00    +0.000 A 
ATOM      6  C   UNL     1      -1.620  15.190  21.136  0.00  0.00    +0.000 A 
ATOM      7  C   UNL     1      -0.293  15.524  21.315  0.00  0.00    +0.000 A 
ATOM      8  C   UNL     1       0.679  14.572  21.051  0.00  0.00    +0.000 A 
ATOM      9  C   UNL     1       0.319  13.289  20.607  0.00  0.00    +0.000 A 
ATOM     10  N   UNL     1       1.358  12.353  20.711  0.00  0.00    +0.000 N 
ATOM     11  C   UNL     1       0.985  11.040  20.745  0.00  0.00    +0.000 C 
ATOM     12  O   UNL     1       0.723  10.439  21.785  0.00  0.00    +0.000 OA
ATOM     13  H   UNL     1       2.170  12.577  20.145  0.00  0.00    +0.000 HD
ENDROOT
BRANCH   3  14
ATOM     14  C   UNL     1      -2.724  11.844  18.629  0.00  0.00    +0.000 A 
ATOM     15  C   UNL     1      -2.889  11.523  17.278  0.00  0.00    +0.000 A 
ATOM     16  C   UNL     1      -4.167  11.229  16.783  0.00  0.00    +0.000 A 
ATOM     17  C   UNL     1      -5.288  11.380  17.598  0.00  0.00    +0.000 A 
ATOM     18  C   UNL     1      -5.139  11.862  18.896  0.00  0.00    +0.000 A 
ATOM     19  C   UNL     1      -3.861  12.086  19.413  0.00  0.00    +0.000 A 
ENDBRANCH   3  14
BRANCH   1  22
ATOM     20  C   UNL     1       1.856   8.637  18.321  0.00  0.00    +0.000 C 
ATOM     21  O   UNL     1       1.918   9.220  17.250  0.00  0.00    +0.000 OA
ATOM     22  N   UNL     1       1.114   9.117  19.404  0.00  0.00    +0.000 N 
ATOM     23  H   UNL     1       1.413   8.823  20.323  0.00  0.00    +0.000 HD
BRANCH  20  27
ATOM     24  C   UNL     1       4.148   5.035  18.971  0.00  0.00    +0.000 A 
ATOM     25  C   UNL     1       3.167   5.430  19.894  0.00  0.00    +0.000 A 
ATOM     26  C   UNL     1       2.437   6.614  19.697  0.00  0.00    +0.000 A 
ATOM     27  C   UNL     1       2.684   7.418  18.572  0.00  0.00    +0.000 A 
ATOM     28  C   UNL     1       3.691   7.049  17.680  0.00  0.00    +0.000 A 
ATOM     29  C   UNL     1       4.415   5.870  17.876  0.00  0.00    +0.000 A 
BRANCH  24  30
ATOM     30  C   UNL     1       4.942   3.757  19.138  0.00  0.00    +0.000 C 
BRANCH  30  32
ATOM     31  C   UNL     1       3.425   1.997  18.151  0.00  0.00    +0.000 C 
ATOM     32  C   UNL     1       4.072   2.529  19.423  0.00  0.00    +0.000 C 
ENDBRANCH  30  32
ENDBRANCH  24  30
ENDBRANCH  20  27
ENDBRANCH   1  22
TORSDOF 5
ENDMDL
