MODEL 1
REMARK VINA RESULT:      -7.0      0.000      0.000
REMARK  Name = 
REMARK  1 active torsions:
REMARK  status: ('A' for Active; 'I' for Inactive)
REMARK    1  A    between atoms: C_6  and  C_7
REMARK                            x       y       z     vdW  Elec       q    Type
REMARK                         _______ _______ _______ _____ _____    ______ ____
ROOT
ATOM      1  O   UNL     1       7.728   7.011  16.686  0.00  0.00    +0.000 OA
ATOM      2  C   UNL     1       6.734   6.520  17.209  0.00  0.00    +0.000 A 
ATOM      3  N   UNL     1       5.513   7.114  17.142  0.00  0.00    +0.000 N 
ATOM      4  C   UNL     1       4.391   6.589  17.702  0.00  0.00    +0.000 A 
ATOM      5 CL   UNL     1       3.028   7.600  17.444  0.00  0.00    +0.000 Cl
ATOM      6  C   UNL     1       4.388   5.424  18.366  0.00  0.00    +0.000 A 
ATOM      7  C   UNL     1       5.705   4.731  18.490  0.00  0.00    +0.000 A 
ATOM      8  O   UNL     1       5.838   3.671  19.092  0.00  0.00    +0.000 OA
ATOM      9  N   UNL     1       6.776   5.343  17.896  0.00  0.00    +0.000 N 
ATOM     10  H   UNL     1       5.449   7.990  16.639  0.00  0.00    +0.000 HD
ATOM     11  H   UNL     1       7.670   4.883  17.969  0.00  0.00    +0.000 HD
ENDROOT
BRANCH   6  12
ATOM     12  C   UNL     1       3.174   4.833  18.946  0.00  0.00    +0.000 A 
ATOM     13  C   UNL     1       2.383   3.961  18.184  0.00  0.00    +0.000 A 
ATOM     14  C   UNL     1       1.208   3.428  18.717  0.00  0.00    +0.000 A 
ATOM     15  C   UNL     1       0.822   3.753  20.016  0.00  0.00    +0.000 A 
ATOM     16  C   UNL     1       1.610   4.607  20.786  0.00  0.00    +0.000 A 
ATOM     17  C   UNL     1       2.783   5.149  20.253  0.00  0.00    +0.000 A 
ENDBRANCH   6  12
TORSDOF 1
ENDMDL
MODEL 2
REMARK VINA RESULT:      -6.9      2.097      2.248
REMARK  Name = 
REMARK  1 active torsions:
REMARK  status: ('A' for Active; 'I' for Inactive)
REMARK    1  A    between atoms: C_6  and  C_7
REMARK                            x       y       z     vdW  Elec       q    Type
REMARK                         _______ _______ _______ _____ _____    ______ ____
ROOT
ATOM      1  O   UNL     1       7.481   4.721  15.411  0.00  0.00    +0.000 OA
ATOM      2  C   UNL     1       6.689   4.590  16.338  0.00  0.00    +0.000 A 
ATOM      3  N   UNL     1       5.430   4.112  16.152  0.00  0.00    +0.000 N 
ATOM      4  C   UNL     1       4.533   3.946  17.160  0.00  0.00    +0.000 A 
ATOM      5 CL   UNL     1       3.036   3.340  16.577  0.00  0.00    +0.000 Cl
ATOM      6  C   UNL     1       4.818   4.230  18.440  0.00  0.00    +0.000 A 
ATOM      7  C   UNL     1       6.182   4.777  18.706  0.00  0.00    +0.000 A 
ATOM      8  O   UNL     1       6.556   5.097  19.829  0.00  0.00    +0.000 OA
ATOM      9  N   UNL     1       7.009   4.912  17.624  0.00  0.00    +0.000 N 
ATOM     10  H   UNL     1       5.161   3.865  15.208  0.00  0.00    +0.000 HD
ATOM     11  H   UNL     1       7.934   5.276  17.791  0.00  0.00    +0.000 HD
ENDROOT
BRANCH   6  12
ATOM     12  C   UNL     1       3.866   4.023  19.540  0.00  0.00    +0.000 A 
ATOM     13  C   UNL     1       3.790   2.776  20.177  0.00  0.00    +0.000 A 
ATOM     14  C   UNL     1       2.861   2.562  21.197  0.00  0.00    +0.000 A 
ATOM     15  C   UNL     1       2.011   3.594  21.593  0.00  0.00    +0.000 A 
ATOM     16  C   UNL     1       2.091   4.840  20.975  0.00  0.00    +0.000 A 
ATOM     17  C   UNL     1       3.014   5.056  19.948  0.00  0.00    +0.000 A 
ENDBRANCH   6  12
TORSDOF 1
ENDMDL
MODEL 3
REMARK VINA RESULT:      -6.9      0.459      1.329
REMARK  Name = 
REMARK  1 active torsions:
REMARK  status: ('A' for Active; 'I' for Inactive)
REMARK    1  A    between atoms: C_6  and  C_7
REMARK                            x       y       z     vdW  Elec       q    Type
REMARK                         _______ _______ _______ _____ _____    ______ ____
ROOT
ATOM      1  O   UNL     1       7.205   7.321  16.812  0.00  0.00    +0.000 OA
ATOM      2  C   UNL     1       6.266   6.715  17.315  0.00  0.00    +0.000 A 
ATOM      3  N   UNL     1       4.998   7.204  17.300  0.00  0.00    +0.000 N 
ATOM      4  C   UNL     1       3.935   6.551  17.840  0.00  0.00    +0.000 A 
ATOM      5 CL   UNL     1       2.486   7.455  17.661  0.00  0.00    +0.000 Cl
ATOM      6  C   UNL     1       4.043   5.352  18.430  0.00  0.00    +0.000 A 
ATOM      7  C   UNL     1       5.417   4.769  18.494  0.00  0.00    +0.000 A 
ATOM      8  O   UNL     1       5.650   3.690  19.028  0.00  0.00    +0.000 OA
ATOM      9  N   UNL     1       6.420   5.506  17.927  0.00  0.00    +0.000 N 
ATOM     10  H   UNL     1       4.850   8.101  16.853  0.00  0.00    +0.000 HD
ATOM     11  H   UNL     1       7.352   5.122  17.960  0.00  0.00    +0.000 HD
ENDROOT
BRANCH   6  12
ATOM     12  C   UNL     1       2.894   4.624  18.987  0.00  0.00    +0.000 A 
ATOM     13  C   UNL     1       2.512   4.828  20.320  0.00  0.00    +0.000 A 
ATOM     14  C   UNL     1       1.446   4.110  20.866  0.00  0.00    +0.000 A 
ATOM     15  C   UNL     1       0.749   3.194  20.080  0.00  0.00    +0.000 A 
ATOM     16  C   UNL     1       1.113   2.996  18.750  0.00  0.00    +0.000 A 
ATOM     17  C   UNL     1       2.184   3.706  18.202  0.00  0.00    +0.000 A 
ENDBRANCH   6  12
TORSDOF 1
ENDMDL
MODEL 4
REMARK VINA RESULT:      -6.8      2.090      2.358
REMARK  Name = 
REMARK  1 active torsions:
REMARK  status: ('A' for Active; 'I' for Inactive)
REMARK    1  A    between atoms: C_6  and  C_7
REMARK                            x       y       z     vdW  Elec       q    Type
REMARK                         _______ _______ _______ _____ _____    ______ ____
ROOT
ATOM      1  O   UNL     1       7.489   4.743  15.391  0.00  0.00    +0.000 OA
ATOM      2  C   UNL     1       6.688   4.606  16.309  0.00  0.00    +0.000 A 
ATOM      3  N   UNL     1       5.436   4.117  16.110  0.00  0.00    +0.000 N 
ATOM      4  C   UNL     1       4.530   3.944  17.109  0.00  0.00    +0.000 A 
ATOM      5 CL   UNL     1       3.045   3.324  16.510  0.00  0.00    +0.000 Cl
ATOM      6  C   UNL     1       4.799   4.231  18.391  0.00  0.00    +0.000 A 
ATOM      7  C   UNL     1       6.155   4.790  18.671  0.00  0.00    +0.000 A 
ATOM      8  O   UNL     1       6.514   5.114  19.798  0.00  0.00    +0.000 OA
ATOM      9  N   UNL     1       6.993   4.931  17.598  0.00  0.00    +0.000 N 
ATOM     10  H   UNL     1       5.179   3.867  15.163  0.00  0.00    +0.000 HD
ATOM     11  H   UNL     1       7.913   5.304  17.774  0.00  0.00    +0.000 HD
ENDROOT
BRANCH   6  12
ATOM     12  C   UNL     1       3.838   4.016  19.482  0.00  0.00    +0.000 A 
ATOM     13  C   UNL     1       3.004   5.063  19.900  0.00  0.00    +0.000 A 
ATOM     14  C   UNL     1       2.117   4.875  20.962  0.00  0.00    +0.000 A 
ATOM     15  C   UNL     1       2.049   3.640  21.603  0.00  0.00    +0.000 A 
ATOM     16  C   UNL     1       2.864   2.590  21.183  0.00  0.00    +0.000 A 
ATOM     17  C   UNL     1       3.759   2.776  20.127  0.00  0.00    +0.000 A 
ENDBRANCH   6  12
TORSDOF 1
ENDMDL
MODEL 5
REMARK VINA RESULT:      -6.7      3.033      5.091
REMARK  Name = 
REMARK  1 active torsions:
REMARK  status: ('A' for Active; 'I' for Inactive)
REMARK    1  A    between atoms: C_6  and  C_7
REMARK                            x       y       z     vdW  Elec       q    Type
REMARK                         _______ _______ _______ _____ _____    ______ ____
ROOT
ATOM      1  O   UNL     1       1.300   2.496  21.619  0.00  0.00    +0.000 OA
ATOM      2  C   UNL     1       1.963   2.926  20.682  0.00  0.00    +0.000 A 
ATOM      3  N   UNL     1       1.389   3.505  19.594  0.00  0.00    +0.000 N 
ATOM      4  C   UNL     1       2.097   4.001  18.545  0.00  0.00    +0.000 A 
ATOM      5 CL   UNL     1       1.062   4.647  17.337  0.00  0.00    +0.000 Cl
ATOM      6  C   UNL     1       3.437   3.972  18.496  0.00  0.00    +0.000 A 
ATOM      7  C   UNL     1       4.127   3.330  19.655  0.00  0.00    +0.000 A 
ATOM      8  O   UNL     1       5.346   3.222  19.718  0.00  0.00    +0.000 OA
ATOM      9  N   UNL     1       3.325   2.858  20.659  0.00  0.00    +0.000 N 
ATOM     10  H   UNL     1       0.378   3.570  19.581  0.00  0.00    +0.000 HD
ATOM     11  H   UNL     1       3.778   2.426  21.449  0.00  0.00    +0.000 HD
ENDROOT
BRANCH   6  12
ATOM     12  C   UNL     1       4.213   4.535  17.382  0.00  0.00    +0.000 A 
ATOM     13  C   UNL     1       4.409   5.920  17.291  0.00  0.00    +0.000 A 
ATOM     14  C   UNL     1       5.112   6.463  16.214  0.00  0.00    +0.000 A 
ATOM     15  C   UNL     1       5.630   5.626  15.228  0.00  0.00    +0.000 A 
ATOM     16  C   UNL     1       5.451   4.247  15.318  0.00  0.00    +0.000 A 
ATOM     17  C   UNL     1       4.742   3.700  16.390  0.00  0.00    +0.000 A 
ENDBRANCH   6  12
TORSDOF 1
ENDMDL
MODEL 6
REMARK VINA RESULT:      -6.7      3.211      5.226
REMARK  Name = 
REMARK  1 active torsions:
REMARK  status: ('A' for Active; 'I' for Inactive)
REMARK    1  A    between atoms: C_6  and  C_7
REMARK                            x       y       z     vdW  Elec       q    Type
REMARK                         _______ _______ _______ _____ _____    ______ ____
ROOT
ATOM      1  O   UNL     1      -0.056   2.274  19.122  0.00  0.00    +0.000 OA
ATOM      2  C   UNL     1       1.044   2.637  18.719  0.00  0.00    +0.000 A 
ATOM      3  N   UNL     1       1.342   3.946  18.508  0.00  0.00    +0.000 N 
ATOM      4  C   UNL     1       2.555   4.379  18.073  0.00  0.00    +0.000 A 
ATOM      5 CL   UNL     1       2.587   6.087  17.899  0.00  0.00    +0.000 Cl
ATOM      6  C   UNL     1       3.576   3.547  17.822  0.00  0.00    +0.000 A 
ATOM      7  C   UNL     1       3.304   2.091  18.017  0.00  0.00    +0.000 A 
ATOM      8  O   UNL     1       4.148   1.229  17.800  0.00  0.00    +0.000 OA
ATOM      9  N   UNL     1       2.051   1.756  18.454  0.00  0.00    +0.000 N 
ATOM     10  H   UNL     1       0.615   4.625  18.696  0.00  0.00    +0.000 HD
ATOM     11  H   UNL     1       1.856   0.777  18.593  0.00  0.00    +0.000 HD
ENDROOT
BRANCH   6  12
ATOM     12  C   UNL     1       4.900   4.009  17.382  0.00  0.00    +0.000 A 
ATOM     13  C   UNL     1       5.218   4.034  16.017  0.00  0.00    +0.000 A 
ATOM     14  C   UNL     1       6.488   4.434  15.597  0.00  0.00    +0.000 A 
ATOM     15  C   UNL     1       7.442   4.823  16.536  0.00  0.00    +0.000 A 
ATOM     16  C   UNL     1       7.129   4.815  17.894  0.00  0.00    +0.000 A 
ATOM     17  C   UNL     1       5.862   4.407  18.319  0.00  0.00    +0.000 A 
ENDBRANCH   6  12
TORSDOF 1
ENDMDL
MODEL 7
REMARK VINA RESULT:      -6.7      3.224      5.364
REMARK  Name = 
REMARK  1 active torsions:
REMARK  status: ('A' for Active; 'I' for Inactive)
REMARK    1  A    between atoms: C_6  and  C_7
REMARK                            x       y       z     vdW  Elec       q    Type
REMARK                         _______ _______ _______ _____ _____    ______ ____
ROOT
ATOM      1  O   UNL     1      -0.098   2.287  19.105  0.00  0.00    +0.000 OA
ATOM      2  C   UNL     1       1.010   2.637  18.713  0.00  0.00    +0.000 A 
ATOM      3  N   UNL     1       1.323   3.941  18.494  0.00  0.00    +0.000 N 
ATOM      4  C   UNL     1       2.544   4.360  18.070  0.00  0.00    +0.000 A 
ATOM      5 CL   UNL     1       2.593   6.066  17.882  0.00  0.00    +0.000 Cl
ATOM      6  C   UNL     1       3.561   3.517  17.839  0.00  0.00    +0.000 A 
ATOM      7  C   UNL     1       3.274   2.065  18.043  0.00  0.00    +0.000 A 
ATOM      8  O   UNL     1       4.113   1.194  17.843  0.00  0.00    +0.000 OA
ATOM      9  N   UNL     1       2.013   1.745  18.467  0.00  0.00    +0.000 N 
ATOM     10  H   UNL     1       0.599   4.628  18.668  0.00  0.00    +0.000 HD
ATOM     11  H   UNL     1       1.807   0.769  18.613  0.00  0.00    +0.000 HD
ENDROOT
BRANCH   6  12
ATOM     12  C   UNL     1       4.894   3.964  17.411  0.00  0.00    +0.000 A 
ATOM     13  C   UNL     1       5.821   4.416  18.361  0.00  0.00    +0.000 A 
ATOM     14  C   UNL     1       7.075   4.879  17.957  0.00  0.00    +0.000 A 
ATOM     15  C   UNL     1       7.414   4.880  16.605  0.00  0.00    +0.000 A 
ATOM     16  C   UNL     1       6.503   4.418  15.656  0.00  0.00    +0.000 A 
ATOM     17  C   UNL     1       5.245   3.963  16.056  0.00  0.00    +0.000 A 
ENDBRANCH   6  12
TORSDOF 1
ENDMDL
MODEL 8
REMARK VINA RESULT:      -6.6      3.034      4.983
REMARK  Name = 
REMARK  1 active torsions:
REMARK  status: ('A' for Active; 'I' for Inactive)
REMARK    1  A    between atoms: C_6  and  C_7
REMARK                            x       y       z     vdW  Elec       q    Type
REMARK                         _______ _______ _______ _____ _____    ______ ____
ROOT
ATOM      1  O   UNL     1       1.328   2.492  21.619  0.00  0.00    +0.000 OA
ATOM      2  C   UNL     1       1.979   2.922  20.673  0.00  0.00    +0.000 A 
ATOM      3  N   UNL     1       1.390   3.484  19.585  0.00  0.00    +0.000 N 
ATOM      4  C   UNL     1       2.084   3.979  18.526  0.00  0.00    +0.000 A 
ATOM      5 CL   UNL     1       1.032   4.601  17.320  0.00  0.00    +0.000 Cl
ATOM      6  C   UNL     1       3.424   3.965  18.466  0.00  0.00    +0.000 A 
ATOM      7  C   UNL     1       4.130   3.342  19.626  0.00  0.00    +0.000 A 
ATOM      8  O   UNL     1       5.352   3.248  19.680  0.00  0.00    +0.000 OA
ATOM      9  N   UNL     1       3.342   2.869  20.640  0.00  0.00    +0.000 N 
ATOM     10  H   UNL     1       0.379   3.537  19.579  0.00  0.00    +0.000 HD
ATOM     11  H   UNL     1       3.806   2.450  21.430  0.00  0.00    +0.000 HD
ENDROOT
BRANCH   6  12
ATOM     12  C   UNL     1       4.184   4.527  17.341  0.00  0.00    +0.000 A 
ATOM     13  C   UNL     1       4.753   3.676  16.383  0.00  0.00    +0.000 A 
ATOM     14  C   UNL     1       5.509   4.202  15.334  0.00  0.00    +0.000 A 
ATOM     15  C   UNL     1       5.691   5.580  15.229  0.00  0.00    +0.000 A 
ATOM     16  C   UNL     1       5.116   6.433  16.169  0.00  0.00    +0.000 A 
ATOM     17  C   UNL     1       4.366   5.910  17.225  0.00  0.00    +0.000 A 
ENDBRANCH   6  12
TORSDOF 1
ENDMDL
MODEL 9
REMARK VINA RESULT:      -6.6      3.030      5.043
REMARK  Name = 
REMARK  1 active torsions:
REMARK  status: ('A' for Active; 'I' for Inactive)
REMARK    1  A    between atoms: C_6  and  C_7
REMARK                            x       y       z     vdW  Elec       q    Type
REMARK                         _______ _______ _______ _____ _____    ______ ____
ROOT
ATOM      1  O   UNL     1       1.078   2.885  21.819  0.00  0.00    +0.000 OA
ATOM      2  C   UNL     1       1.952   3.130  20.994  0.00  0.00    +0.000 A 
ATOM      3  N   UNL     1       1.821   4.122  20.074  0.00  0.00    +0.000 N 
ATOM      4  C   UNL     1       2.776   4.424  19.155  0.00  0.00    +0.000 A 
ATOM      5 CL   UNL     1       2.283   5.718  18.139  0.00  0.00    +0.000 Cl
ATOM      6  C   UNL     1       3.945   3.771  19.081  0.00  0.00    +0.000 A 
ATOM      7  C   UNL     1       4.141   2.656  20.055  0.00  0.00    +0.000 A 
ATOM      8  O   UNL     1       5.156   1.969  20.073  0.00  0.00    +0.000 OA
ATOM      9  N   UNL     1       3.119   2.427  20.936  0.00  0.00    +0.000 N 
ATOM     10  H   UNL     1       0.965   4.661  20.091  0.00  0.00    +0.000 HD
ATOM     11  H   UNL     1       3.241   1.680  21.601  0.00  0.00    +0.000 HD
ENDROOT
BRANCH   6  12
ATOM     12  C   UNL     1       4.996   4.113  18.112  0.00  0.00    +0.000 A 
ATOM     13  C   UNL     1       4.874   3.714  16.773  0.00  0.00    +0.000 A 
ATOM     14  C   UNL     1       5.887   4.001  15.857  0.00  0.00    +0.000 A 
ATOM     15  C   UNL     1       7.022   4.697  16.270  0.00  0.00    +0.000 A 
ATOM     16  C   UNL     1       7.145   5.109  17.596  0.00  0.00    +0.000 A 
ATOM     17  C   UNL     1       6.136   4.817  18.517  0.00  0.00    +0.000 A 
ENDBRANCH   6  12
TORSDOF 1
ENDMDL
