MODEL 1
REMARK VINA RESULT:      -7.7      0.000      0.000
REMARK  Name = 
REMARK  12 active torsions:
REMARK  status: ('A' for Active; 'I' for Inactive)
REMARK    1  A    between atoms: C_1  and  O_2
REMARK    2  A    between atoms: O_2  and  C_3
REMARK    3  A    between atoms: C_4  and  O_5
REMARK    4  A    between atoms: O_5  and  C_6
REMARK    5  A    between atoms: C_8  and  C_9
REMARK    6  A    between atoms: C_9  and  O_10
REMARK    7  A    between atoms: C_11  and  O_12
REMARK    8  A    between atoms: C_13  and  O_14
REMARK    9  A    between atoms: C_15  and  O_16
REMARK   10  A    between atoms: C_20  and  C_21
REMARK   11  A    between atoms: C_24  and  O_25
REMARK   12  A    between atoms: C_32  and  O_33
REMARK                            x       y       z     vdW  Elec       q    Type
REMARK                         _______ _______ _______ _____ _____    ______ ____
ROOT
ATOM      1  C   UNL     1       1.456   8.105  20.096  0.00  0.00    +0.000 A 
ATOM      2  C   UNL     1       1.677   8.884  18.942  0.00  0.00    +0.000 A 
ATOM      3  C   UNL     1       2.458   8.360  17.903  0.00  0.00    +0.000 A 
ATOM      4  C   UNL     1       3.053   7.106  18.025  0.00  0.00    +0.000 A 
ATOM      5  O   UNL     1       3.838   6.698  16.974  0.00  0.00    +0.000 OA
ATOM      6  C   UNL     1       4.464   5.473  17.074  0.00  0.00    +0.000 A 
ATOM      7  C   UNL     1       4.343   4.626  18.109  0.00  0.00    +0.000 A 
ATOM      8  C   UNL     1       3.496   5.023  19.241  0.00  0.00    +0.000 A 
ATOM      9  O   UNL     1       3.335   4.284  20.204  0.00  0.00    +0.000 OA
ATOM     10  C   UNL     1       2.849   6.340  19.166  0.00  0.00    +0.000 A 
ATOM     11  C   UNL     1       2.051   6.834  20.203  0.00  0.00    +0.000 A 
ENDROOT
BRANCH   6  12
ATOM     12  C   UNL     1       5.295   5.121  15.924  0.00  0.00    +0.000 A 
ATOM     13  C   UNL     1       6.629   5.546  15.868  0.00  0.00    +0.000 A 
ATOM     14  C   UNL     1       7.416   5.254  14.751  0.00  0.00    +0.000 A 
ATOM     15  C   UNL     1       6.863   4.535  13.696  0.00  0.00    +0.000 A 
ATOM     16  C   UNL     1       5.545   4.095  13.743  0.00  0.00    +0.000 A 
ATOM     17  C   UNL     1       4.758   4.387  14.859  0.00  0.00    +0.000 A 
BRANCH  15  18
ATOM     18  O   UNL     1       7.590   4.239  12.582  0.00  0.00    +0.000 OA
ATOM     19  H   UNL     1       8.079   5.034  12.309  0.00  0.00    +0.000 HD
ENDBRANCH  15  18
ENDBRANCH   6  12
BRANCH   1  21
ATOM     20  C   UNL     1       1.550   9.162  22.219  0.00  0.00    +0.000 C 
ATOM     21  O   UNL     1       0.771   8.532  21.209  0.00  0.00    +0.000 OA
ENDBRANCH   1  21
BRANCH  11  22
ATOM     22  O   UNL     1       1.817   6.097  21.341  0.00  0.00    +0.000 OA
ATOM     23  H   UNL     1       0.924   5.694  21.283  0.00  0.00    +0.000 HD
ENDBRANCH  11  22
BRANCH   2  24
ATOM     24  O   UNL     1       1.119  10.135  18.891  0.00  0.00    +0.000 OA
BRANCH  24  25
ATOM     25  C   UNL     1      -0.313  10.243  18.858  0.00  0.00    +0.000 C 
ATOM     26  O   UNL     1      -0.780  10.234  17.507  0.00  0.00    +0.000 OA
ATOM     27  C   UNL     1      -2.198  10.367  17.396  0.00  0.00    +0.000 C 
ATOM     28  C   UNL     1      -2.617  11.753  17.887  0.00  0.00    +0.000 C 
ATOM     29  C   UNL     1      -2.167  11.915  19.346  0.00  0.00    +0.000 C 
ATOM     30  C   UNL     1      -0.692  11.564  19.568  0.00  0.00    +0.000 C 
BRANCH  28  31
ATOM     31  O   UNL     1      -4.042  11.871  17.819  0.00  0.00    +0.000 OA
ATOM     32  H   UNL     1      -4.396  11.680  18.708  0.00  0.00    +0.000 HD
ENDBRANCH  28  31
BRANCH  29  33
ATOM     33  O   UNL     1      -2.458  13.253  19.788  0.00  0.00    +0.000 OA
ATOM     34  H   UNL     1      -3.110  13.203  20.514  0.00  0.00    +0.000 HD
ENDBRANCH  29  33
BRANCH  30  35
ATOM     35  O   UNL     1      -0.417  11.485  20.976  0.00  0.00    +0.000 OA
ATOM     36  H   UNL     1       0.008  12.311  21.278  0.00  0.00    +0.000 HD
ENDBRANCH  30  35
BRANCH  27  37
ATOM     37  C   UNL     1      -2.578  10.112  15.933  0.00  0.00    +0.000 C 
BRANCH  37  38
ATOM     38  O   UNL     1      -2.946  11.325  15.279  0.00  0.00    +0.000 OA
ATOM     39  H   UNL     1      -2.164  11.907  15.335  0.00  0.00    +0.000 HD
ENDBRANCH  37  38
ENDBRANCH  27  37
ENDBRANCH  24  25
ENDBRANCH   2  24
TORSDOF 11
ENDMDL
MODEL 2
REMARK VINA RESULT:      -7.0      3.358      6.086
REMARK  Name = 
REMARK  12 active torsions:
REMARK  status: ('A' for Active; 'I' for Inactive)
REMARK    1  A    between atoms: C_1  and  O_2
REMARK    2  A    between atoms: O_2  and  C_3
REMARK    3  A    between atoms: C_4  and  O_5
REMARK    4  A    between atoms: O_5  and  C_6
REMARK    5  A    between atoms: C_8  and  C_9
REMARK    6  A    between atoms: C_9  and  O_10
REMARK    7  A    between atoms: C_11  and  O_12
REMARK    8  A    between atoms: C_13  and  O_14
REMARK    9  A    between atoms: C_15  and  O_16
REMARK   10  A    between atoms: C_20  and  C_21
REMARK   11  A    between atoms: C_24  and  O_25
REMARK   12  A    between atoms: C_32  and  O_33
REMARK                            x       y       z     vdW  Elec       q    Type
REMARK                         _______ _______ _______ _____ _____    ______ ____
ROOT
ATOM      1  C   UNL     1      -0.894  12.956  21.228  0.00  0.00    +0.000 A 
ATOM      2  C   UNL     1      -0.656  12.867  19.842  0.00  0.00    +0.000 A 
ATOM      3  C   UNL     1      -0.060  11.708  19.325  0.00  0.00    +0.000 A 
ATOM      4  C   UNL     1       0.338  10.676  20.173  0.00  0.00    +0.000 A 
ATOM      5  O   UNL     1       0.955   9.602  19.578  0.00  0.00    +0.000 OA
ATOM      6  C   UNL     1       1.387   8.575  20.391  0.00  0.00    +0.000 A 
ATOM      7  C   UNL     1       1.225   8.524  21.723  0.00  0.00    +0.000 A 
ATOM      8  C   UNL     1       0.553   9.648  22.388  0.00  0.00    +0.000 A 
ATOM      9  O   UNL     1       0.362   9.649  23.598  0.00  0.00    +0.000 OA
ATOM     10  C   UNL     1       0.117  10.766  21.541  0.00  0.00    +0.000 A 
ATOM     11  C   UNL     1      -0.500  11.903  22.074  0.00  0.00    +0.000 A 
ENDROOT
BRANCH   6  12
ATOM     12  C   UNL     1       2.048   7.479  19.684  0.00  0.00    +0.000 A 
ATOM     13  C   UNL     1       2.647   7.710  18.438  0.00  0.00    +0.000 A 
ATOM     14  C   UNL     1       3.239   6.659  17.735  0.00  0.00    +0.000 A 
ATOM     15  C   UNL     1       3.232   5.381  18.285  0.00  0.00    +0.000 A 
ATOM     16  C   UNL     1       2.655   5.139  19.526  0.00  0.00    +0.000 A 
ATOM     17  C   UNL     1       2.062   6.189  20.230  0.00  0.00    +0.000 A 
BRANCH  15  18
ATOM     18  O   UNL     1       3.788   4.323  17.627  0.00  0.00    +0.000 OA
ATOM     19  H   UNL     1       3.105   3.644  17.499  0.00  0.00    +0.000 HD
ENDBRANCH  15  18
ENDBRANCH   6  12
BRANCH   1  21
ATOM     20  C   UNL     1      -2.820  14.191  21.860  0.00  0.00    +0.000 C 
ATOM     21  O   UNL     1      -1.404  14.064  21.865  0.00  0.00    +0.000 OA
ENDBRANCH   1  21
BRANCH  11  22
ATOM     22  O   UNL     1      -0.746  12.019  23.422  0.00  0.00    +0.000 OA
ATOM     23  H   UNL     1      -0.125  12.678  23.803  0.00  0.00    +0.000 HD
ENDBRANCH  11  22
BRANCH   2  24
ATOM     24  O   UNL     1      -1.012  13.930  19.054  0.00  0.00    +0.000 OA
BRANCH  24  25
ATOM     25  C   UNL     1       0.028  14.774  18.535  0.00  0.00    +0.000 C 
ATOM     26  O   UNL     1       1.312  14.239  18.867  0.00  0.00    +0.000 OA
ATOM     27  C   UNL     1       2.398  15.044  18.406  0.00  0.00    +0.000 C 
ATOM     28  C   UNL     1       2.389  16.381  19.147  0.00  0.00    +0.000 C 
ATOM     29  C   UNL     1       1.046  17.079  18.888  0.00  0.00    +0.000 C 
ATOM     30  C   UNL     1      -0.166  16.178  19.153  0.00  0.00    +0.000 C 
BRANCH  28  31
ATOM     31  O   UNL     1       3.450  17.206  18.653  0.00  0.00    +0.000 OA
ATOM     32  H   UNL     1       3.222  17.463  17.740  0.00  0.00    +0.000 HD
ENDBRANCH  28  31
BRANCH  29  33
ATOM     33  O   UNL     1       0.979  18.287  19.665  0.00  0.00    +0.000 OA
ATOM     34  H   UNL     1       1.853  18.723  19.633  0.00  0.00    +0.000 HD
ENDBRANCH  29  33
BRANCH  30  35
ATOM     35  O   UNL     1      -1.356  16.802  18.644  0.00  0.00    +0.000 OA
ATOM     36  H   UNL     1      -1.123  17.423  17.927  0.00  0.00    +0.000 HD
ENDBRANCH  30  35
BRANCH  27  37
ATOM     37  C   UNL     1       3.692  14.250  18.622  0.00  0.00    +0.000 C 
BRANCH  37  38
ATOM     38  O   UNL     1       4.656  14.557  17.617  0.00  0.00    +0.000 OA
ATOM     39  H   UNL     1       4.362  14.089  16.812  0.00  0.00    +0.000 HD
ENDBRANCH  37  38
ENDBRANCH  27  37
ENDBRANCH  24  25
ENDBRANCH   2  24
TORSDOF 11
ENDMDL
MODEL 3
REMARK VINA RESULT:      -7.0      2.994      4.411
REMARK  Name = 
REMARK  12 active torsions:
REMARK  status: ('A' for Active; 'I' for Inactive)
REMARK    1  A    between atoms: C_1  and  O_2
REMARK    2  A    between atoms: O_2  and  C_3
REMARK    3  A    between atoms: C_4  and  O_5
REMARK    4  A    between atoms: O_5  and  C_6
REMARK    5  A    between atoms: C_8  and  C_9
REMARK    6  A    between atoms: C_9  and  O_10
REMARK    7  A    between atoms: C_11  and  O_12
REMARK    8  A    between atoms: C_13  and  O_14
REMARK    9  A    between atoms: C_15  and  O_16
REMARK   10  A    between atoms: C_20  and  C_21
REMARK   11  A    between atoms: C_24  and  O_25
REMARK   12  A    between atoms: C_32  and  O_33
REMARK                            x       y       z     vdW  Elec       q    Type
REMARK                         _______ _______ _______ _____ _____    ______ ____
ROOT
ATOM      1  C   UNL     1       0.782  10.223  20.155  0.00  0.00    +0.000 A 
ATOM      2  C   UNL     1       1.358  10.731  18.973  0.00  0.00    +0.000 A 
ATOM      3  C   UNL     1       2.104   9.872  18.153  0.00  0.00    +0.000 A 
ATOM      4  C   UNL     1       2.319   8.546  18.524  0.00  0.00    +0.000 A 
ATOM      5  O   UNL     1       3.102   7.795  17.681  0.00  0.00    +0.000 OA
ATOM      6  C   UNL     1       3.357   6.487  18.032  0.00  0.00    +0.000 A 
ATOM      7  C   UNL     1       2.874   5.871  19.123  0.00  0.00    +0.000 A 
ATOM      8  C   UNL     1       2.018   6.640  20.037  0.00  0.00    +0.000 A 
ATOM      9  O   UNL     1       1.535   6.126  21.039  0.00  0.00    +0.000 OA
ATOM     10  C   UNL     1       1.764   8.046  19.696  0.00  0.00    +0.000 A 
ATOM     11  C   UNL     1       0.993   8.879  20.513  0.00  0.00    +0.000 A 
ENDROOT
BRANCH   6  12
ATOM     12  C   UNL     1       4.212   5.763  17.093  0.00  0.00    +0.000 A 
ATOM     13  C   UNL     1       4.947   6.466  16.130  0.00  0.00    +0.000 A 
ATOM     14  C   UNL     1       5.729   5.779  15.198  0.00  0.00    +0.000 A 
ATOM     15  C   UNL     1       5.773   4.389  15.238  0.00  0.00    +0.000 A 
ATOM     16  C   UNL     1       5.059   3.677  16.195  0.00  0.00    +0.000 A 
ATOM     17  C   UNL     1       4.277   4.364  17.126  0.00  0.00    +0.000 A 
BRANCH  15  18
ATOM     18  O   UNL     1       6.513   3.678  14.340  0.00  0.00    +0.000 OA
ATOM     19  H   UNL     1       6.193   3.879  13.444  0.00  0.00    +0.000 HD
ENDBRANCH  15  18
ENDBRANCH   6  12
BRANCH   1  21
ATOM     20  C   UNL     1      -1.232  11.351  20.710  0.00  0.00    +0.000 C 
ATOM     21  O   UNL     1       0.091  10.978  21.074  0.00  0.00    +0.000 OA
ENDBRANCH   1  21
BRANCH  11  22
ATOM     22  O   UNL     1       0.419   8.413  21.673  0.00  0.00    +0.000 OA
ATOM     23  H   UNL     1       0.872   7.585  21.943  0.00  0.00    +0.000 HD
ENDBRANCH  11  22
BRANCH   2  24
ATOM     24  O   UNL     1       1.167  12.055  18.677  0.00  0.00    +0.000 OA
BRANCH  24  25
ATOM     25  C   UNL     1       1.940  13.032  19.394  0.00  0.00    +0.000 C 
ATOM     26  O   UNL     1       1.085  13.848  20.197  0.00  0.00    +0.000 OA
ATOM     27  C   UNL     1       1.784  14.864  20.918  0.00  0.00    +0.000 C 
ATOM     28  C   UNL     1       2.378  15.870  19.931  0.00  0.00    +0.000 C 
ATOM     29  C   UNL     1       3.326  15.125  18.981  0.00  0.00    +0.000 C 
ATOM     30  C   UNL     1       2.695  13.882  18.344  0.00  0.00    +0.000 C 
BRANCH  28  31
ATOM     31  O   UNL     1       3.117  16.862  20.650  0.00  0.00    +0.000 OA
ATOM     32  H   UNL     1       4.041  16.824  20.339  0.00  0.00    +0.000 HD
ENDBRANCH  28  31
BRANCH  29  33
ATOM     33  O   UNL     1       3.809  16.037  17.979  0.00  0.00    +0.000 OA
ATOM     34  H   UNL     1       3.698  16.949  18.312  0.00  0.00    +0.000 HD
ENDBRANCH  29  33
BRANCH  30  35
ATOM     35  O   UNL     1       3.708  13.104  17.687  0.00  0.00    +0.000 OA
ATOM     36  H   UNL     1       4.390  13.695  17.314  0.00  0.00    +0.000 HD
ENDBRANCH  30  35
BRANCH  27  37
ATOM     37  C   UNL     1       0.796  15.503  21.900  0.00  0.00    +0.000 C 
BRANCH  37  38
ATOM     38  O   UNL     1       1.467  15.987  23.062  0.00  0.00    +0.000 OA
ATOM     39  H   UNL     1       2.361  15.595  23.037  0.00  0.00    +0.000 HD
ENDBRANCH  37  38
ENDBRANCH  27  37
ENDBRANCH  24  25
ENDBRANCH   2  24
TORSDOF 11
ENDMDL
MODEL 4
REMARK VINA RESULT:      -6.9      3.159      4.649
REMARK  Name = 
REMARK  12 active torsions:
REMARK  status: ('A' for Active; 'I' for Inactive)
REMARK    1  A    between atoms: C_1  and  O_2
REMARK    2  A    between atoms: O_2  and  C_3
REMARK    3  A    between atoms: C_4  and  O_5
REMARK    4  A    between atoms: O_5  and  C_6
REMARK    5  A    between atoms: C_8  and  C_9
REMARK    6  A    between atoms: C_9  and  O_10
REMARK    7  A    between atoms: C_11  and  O_12
REMARK    8  A    between atoms: C_13  and  O_14
REMARK    9  A    between atoms: C_15  and  O_16
REMARK   10  A    between atoms: C_20  and  C_21
REMARK   11  A    between atoms: C_24  and  O_25
REMARK   12  A    between atoms: C_32  and  O_33
REMARK                            x       y       z     vdW  Elec       q    Type
REMARK                         _______ _______ _______ _____ _____    ______ ____
ROOT
ATOM      1  C   UNL     1       0.349  10.790  20.131  0.00  0.00    +0.000 A 
ATOM      2  C   UNL     1       0.861  11.161  18.872  0.00  0.00    +0.000 A 
ATOM      3  C   UNL     1       1.595  10.225  18.130  0.00  0.00    +0.000 A 
ATOM      4  C   UNL     1       1.860   8.958  18.648  0.00  0.00    +0.000 A 
ATOM      5  O   UNL     1       2.626   8.128  17.867  0.00  0.00    +0.000 OA
ATOM      6  C   UNL     1       2.931   6.877  18.361  0.00  0.00    +0.000 A 
ATOM      7  C   UNL     1       2.511   6.389  19.540  0.00  0.00    +0.000 A 
ATOM      8  C   UNL     1       1.674   7.245  20.391  0.00  0.00    +0.000 A 
ATOM      9  O   UNL     1       1.248   6.848  21.469  0.00  0.00    +0.000 OA
ATOM     10  C   UNL     1       1.368   8.593  19.895  0.00  0.00    +0.000 A 
ATOM     11  C   UNL     1       0.611   9.504  20.639  0.00  0.00    +0.000 A 
ENDROOT
BRANCH   6  12
ATOM     12  C   UNL     1       3.763   6.062  17.479  0.00  0.00    +0.000 A 
ATOM     13  C   UNL     1       3.625   4.668  17.477  0.00  0.00    +0.000 A 
ATOM     14  C   UNL     1       4.450   3.878  16.672  0.00  0.00    +0.000 A 
ATOM     15  C   UNL     1       5.407   4.490  15.869  0.00  0.00    +0.000 A 
ATOM     16  C   UNL     1       5.548   5.873  15.850  0.00  0.00    +0.000 A 
ATOM     17  C   UNL     1       4.724   6.663  16.655  0.00  0.00    +0.000 A 
BRANCH  15  18
ATOM     18  O   UNL     1       6.241   3.758  15.077  0.00  0.00    +0.000 OA
ATOM     19  H   UNL     1       6.148   2.819  15.311  0.00  0.00    +0.000 HD
ENDBRANCH  15  18
ENDBRANCH   6  12
BRANCH   1  21
ATOM     20  C   UNL     1      -1.672  11.923  20.643  0.00  0.00    +0.000 C 
ATOM     21  O   UNL     1      -0.322  11.635  20.983  0.00  0.00    +0.000 OA
ENDBRANCH   1  21
BRANCH  11  22
ATOM     22  O   UNL     1       0.099   9.171  21.872  0.00  0.00    +0.000 OA
ATOM     23  H   UNL     1      -0.845   8.921  21.768  0.00  0.00    +0.000 HD
ENDBRANCH  11  22
BRANCH   2  24
ATOM     24  O   UNL     1       0.624  12.435  18.427  0.00  0.00    +0.000 OA
BRANCH  24  25
ATOM     25  C   UNL     1       1.445  13.499  18.936  0.00  0.00    +0.000 C 
ATOM     26  O   UNL     1       0.636  14.626  19.283  0.00  0.00    +0.000 OA
ATOM     27  C   UNL     1       1.391  15.737  19.771  0.00  0.00    +0.000 C 
ATOM     28  C   UNL     1       2.268  16.287  18.646  0.00  0.00    +0.000 C 
ATOM     29  C   UNL     1       3.199  15.169  18.155  0.00  0.00    +0.000 C 
ATOM     30  C   UNL     1       2.462  13.865  17.829  0.00  0.00    +0.000 C 
BRANCH  28  31
ATOM     31  O   UNL     1       3.059  17.371  19.146  0.00  0.00    +0.000 OA
ATOM     32  H   UNL     1       2.644  18.201  18.844  0.00  0.00    +0.000 HD
ENDBRANCH  28  31
BRANCH  29  33
ATOM     33  O   UNL     1       3.954  15.639  17.025  0.00  0.00    +0.000 OA
ATOM     34  H   UNL     1       4.889  15.725  17.294  0.00  0.00    +0.000 HD
ENDBRANCH  29  33
BRANCH  30  35
ATOM     35  O   UNL     1       3.411  12.804  17.635  0.00  0.00    +0.000 OA
ATOM     36  H   UNL     1       2.941  11.971  17.439  0.00  0.00    +0.000 HD
ENDBRANCH  30  35
BRANCH  27  37
ATOM     37  C   UNL     1       0.400  16.771  20.316  0.00  0.00    +0.000 C 
BRANCH  37  38
ATOM     38  O   UNL     1       1.038  17.662  21.229  0.00  0.00    +0.000 OA
ATOM     39  H   UNL     1       1.549  17.098  21.840  0.00  0.00    +0.000 HD
ENDBRANCH  37  38
ENDBRANCH  27  37
ENDBRANCH  24  25
ENDBRANCH   2  24
TORSDOF 11
ENDMDL
MODEL 5
REMARK VINA RESULT:      -6.9      1.252      1.513
REMARK  Name = 
REMARK  12 active torsions:
REMARK  status: ('A' for Active; 'I' for Inactive)
REMARK    1  A    between atoms: C_1  and  O_2
REMARK    2  A    between atoms: O_2  and  C_3
REMARK    3  A    between atoms: C_4  and  O_5
REMARK    4  A    between atoms: O_5  and  C_6
REMARK    5  A    between atoms: C_8  and  C_9
REMARK    6  A    between atoms: C_9  and  O_10
REMARK    7  A    between atoms: C_11  and  O_12
REMARK    8  A    between atoms: C_13  and  O_14
REMARK    9  A    between atoms: C_15  and  O_16
REMARK   10  A    between atoms: C_20  and  C_21
REMARK   11  A    between atoms: C_24  and  O_25
REMARK   12  A    between atoms: C_32  and  O_33
REMARK                            x       y       z     vdW  Elec       q    Type
REMARK                         _______ _______ _______ _____ _____    ______ ____
ROOT
ATOM      1  C   UNL     1       0.741   8.960  20.061  0.00  0.00    +0.000 A 
ATOM      2  C   UNL     1       0.777   9.380  18.716  0.00  0.00    +0.000 A 
ATOM      3  C   UNL     1       1.548   8.658  17.795  0.00  0.00    +0.000 A 
ATOM      4  C   UNL     1       2.311   7.567  18.208  0.00  0.00    +0.000 A 
ATOM      5  O   UNL     1       3.070   6.952  17.243  0.00  0.00    +0.000 OA
ATOM      6  C   UNL     1       3.858   5.887  17.622  0.00  0.00    +0.000 A 
ATOM      7  C   UNL     1       3.922   5.378  18.864  0.00  0.00    +0.000 A 
ATOM      8  C   UNL     1       3.108   6.000  19.916  0.00  0.00    +0.000 A 
ATOM      9  O   UNL     1       3.113   5.568  21.062  0.00  0.00    +0.000 OA
ATOM     10  C   UNL     1       2.289   7.158  19.536  0.00  0.00    +0.000 A 
ATOM     11  C   UNL     1       1.505   7.849  20.465  0.00  0.00    +0.000 A 
ENDROOT
BRANCH   6  12
ATOM     12  C   UNL     1       4.648   5.300  16.542  0.00  0.00    +0.000 A 
ATOM     13  C   UNL     1       4.849   3.914  16.495  0.00  0.00    +0.000 A 
ATOM     14  C   UNL     1       5.642   3.350  15.493  0.00  0.00    +0.000 A 
ATOM     15  C   UNL     1       6.226   4.177  14.539  0.00  0.00    +0.000 A 
ATOM     16  C   UNL     1       6.024   5.552  14.564  0.00  0.00    +0.000 A 
ATOM     17  C   UNL     1       5.232   6.117  15.566  0.00  0.00    +0.000 A 
BRANCH  15  18
ATOM     18  O   UNL     1       7.017   3.671  13.550  0.00  0.00    +0.000 OA
ATOM     19  H   UNL     1       6.531   3.715  12.709  0.00  0.00    +0.000 HD
ENDBRANCH  15  18
ENDBRANCH   6  12
BRANCH   1  21
ATOM     20  C   UNL     1       0.770  10.727  21.645  0.00  0.00    +0.000 C 
ATOM     21  O   UNL     1       0.083   9.622  21.070  0.00  0.00    +0.000 OA
ENDBRANCH   1  21
BRANCH  11  22
ATOM     22  O   UNL     1       1.450   7.463  21.785  0.00  0.00    +0.000 OA
ATOM     23  H   UNL     1       2.114   7.976  22.294  0.00  0.00    +0.000 HD
ENDBRANCH  11  22
BRANCH   2  24
ATOM     24  O   UNL     1       0.055  10.492  18.367  0.00  0.00    +0.000 OA
BRANCH  24  25
ATOM     25  C   UNL     1      -1.347  10.338  18.095  0.00  0.00    +0.000 C 
ATOM     26  O   UNL     1      -1.586  10.379  16.686  0.00  0.00    +0.000 OA
ATOM     27  C   UNL     1      -2.968  10.261  16.342  0.00  0.00    +0.000 C 
ATOM     28  C   UNL     1      -3.723  11.490  16.846  0.00  0.00    +0.000 C 
ATOM     29  C   UNL     1      -3.548  11.586  18.369  0.00  0.00    +0.000 C 
ATOM     30  C   UNL     1      -2.085  11.490  18.817  0.00  0.00    +0.000 C 
BRANCH  28  31
ATOM     31  O   UNL     1      -5.115  11.351  16.542  0.00  0.00    +0.000 OA
ATOM     32  H   UNL     1      -5.330  12.001  15.847  0.00  0.00    +0.000 HD
ENDBRANCH  28  31
BRANCH  29  33
ATOM     33  O   UNL     1      -4.161  12.796  18.844  0.00  0.00    +0.000 OA
ATOM     34  H   UNL     1      -4.942  12.985  18.288  0.00  0.00    +0.000 HD
ENDBRANCH  29  33
BRANCH  30  35
ATOM     35  O   UNL     1      -2.023  11.323  20.243  0.00  0.00    +0.000 OA
ATOM     36  H   UNL     1      -2.655  11.930  20.675  0.00  0.00    +0.000 HD
ENDBRANCH  30  35
BRANCH  27  37
ATOM     37  C   UNL     1      -3.056  10.087  14.821  0.00  0.00    +0.000 C 
BRANCH  37  38
ATOM     38  O   UNL     1      -4.398   9.833  14.411  0.00  0.00    +0.000 OA
ATOM     39  H   UNL     1      -4.337   9.192  13.677  0.00  0.00    +0.000 HD
ENDBRANCH  37  38
ENDBRANCH  27  37
ENDBRANCH  24  25
ENDBRANCH   2  24
TORSDOF 11
ENDMDL
MODEL 6
REMARK VINA RESULT:      -6.9      3.649      6.394
REMARK  Name = 
REMARK  12 active torsions:
REMARK  status: ('A' for Active; 'I' for Inactive)
REMARK    1  A    between atoms: C_1  and  O_2
REMARK    2  A    between atoms: O_2  and  C_3
REMARK    3  A    between atoms: C_4  and  O_5
REMARK    4  A    between atoms: O_5  and  C_6
REMARK    5  A    between atoms: C_8  and  C_9
REMARK    6  A    between atoms: C_9  and  O_10
REMARK    7  A    between atoms: C_11  and  O_12
REMARK    8  A    between atoms: C_13  and  O_14
REMARK    9  A    between atoms: C_15  and  O_16
REMARK   10  A    between atoms: C_20  and  C_21
REMARK   11  A    between atoms: C_24  and  O_25
REMARK   12  A    between atoms: C_32  and  O_33
REMARK                            x       y       z     vdW  Elec       q    Type
REMARK                         _______ _______ _______ _____ _____    ______ ____
ROOT
ATOM      1  C   UNL     1      -0.643  13.158  21.145  0.00  0.00    +0.000 A 
ATOM      2  C   UNL     1      -0.291  13.048  19.785  0.00  0.00    +0.000 A 
ATOM      3  C   UNL     1       0.249  11.842  19.315  0.00  0.00    +0.000 A 
ATOM      4  C   UNL     1       0.482  10.781  20.188  0.00  0.00    +0.000 A 
ATOM      5  O   UNL     1       1.057   9.659  19.644  0.00  0.00    +0.000 OA
ATOM      6  C   UNL     1       1.328   8.600  20.484  0.00  0.00    +0.000 A 
ATOM      7  C   UNL     1       1.044   8.564  21.796  0.00  0.00    +0.000 A 
ATOM      8  C   UNL     1       0.412   9.741  22.407  0.00  0.00    +0.000 A 
ATOM      9  O   UNL     1       0.115   9.759  23.595  0.00  0.00    +0.000 OA
ATOM     10  C   UNL     1       0.148  10.891  21.532  0.00  0.00    +0.000 A 
ATOM     11  C   UNL     1      -0.416  12.076  22.015  0.00  0.00    +0.000 A 
ENDROOT
BRANCH   6  12
ATOM     12  C   UNL     1       1.955   7.452  19.832  0.00  0.00    +0.000 A 
ATOM     13  C   UNL     1       1.971   6.206  20.472  0.00  0.00    +0.000 A 
ATOM     14  C   UNL     1       2.610   5.115  19.877  0.00  0.00    +0.000 A 
ATOM     15  C   UNL     1       3.226   5.277  18.641  0.00  0.00    +0.000 A 
ATOM     16  C   UNL     1       3.207   6.504  17.986  0.00  0.00    +0.000 A 
ATOM     17  C   UNL     1       2.569   7.594  18.581  0.00  0.00    +0.000 A 
BRANCH  15  18
ATOM     18  O   UNL     1       3.872   4.244  18.029  0.00  0.00    +0.000 OA
ATOM     19  H   UNL     1       4.498   4.607  17.381  0.00  0.00    +0.000 HD
ENDBRANCH  15  18
ENDBRANCH   6  12
BRANCH   1  21
ATOM     20  C   UNL     1      -0.127  15.182  22.273  0.00  0.00    +0.000 C 
ATOM     21  O   UNL     1      -1.113  14.306  21.741  0.00  0.00    +0.000 OA
ENDBRANCH   1  21
BRANCH  11  22
ATOM     22  O   UNL     1      -0.770  12.214  23.338  0.00  0.00    +0.000 OA
ATOM     23  H   UNL     1      -0.127  12.811  23.779  0.00  0.00    +0.000 HD
ENDBRANCH  11  22
BRANCH   2  24
ATOM     24  O   UNL     1      -0.485  14.137  18.976  0.00  0.00    +0.000 OA
BRANCH  24  25
ATOM     25  C   UNL     1       0.664  14.893  18.562  0.00  0.00    +0.000 C 
ATOM     26  O   UNL     1       1.801  14.540  19.354  0.00  0.00    +0.000 OA
ATOM     27  C   UNL     1       2.977  15.277  19.016  0.00  0.00    +0.000 C 
ATOM     28  C   UNL     1       2.771  16.752  19.362  0.00  0.00    +0.000 C 
ATOM     29  C   UNL     1       1.557  17.276  18.581  0.00  0.00    +0.000 C 
ATOM     30  C   UNL     1       0.314  16.391  18.727  0.00  0.00    +0.000 C 
BRANCH  28  31
ATOM     31  O   UNL     1       3.932  17.497  18.982  0.00  0.00    +0.000 OA
ATOM     32  H   UNL     1       4.693  16.888  19.006  0.00  0.00    +0.000 HD
ENDBRANCH  28  31
BRANCH  29  33
ATOM     33  O   UNL     1       1.283  18.630  18.979  0.00  0.00    +0.000 OA
ATOM     34  H   UNL     1       2.023  18.944  19.534  0.00  0.00    +0.000 HD
ENDBRANCH  29  33
BRANCH  30  35
ATOM     35  O   UNL     1      -0.684  16.792  17.774  0.00  0.00    +0.000 OA
ATOM     36  H   UNL     1      -1.338  16.076  17.658  0.00  0.00    +0.000 HD
ENDBRANCH  30  35
BRANCH  27  37
ATOM     37  C   UNL     1       4.155  14.646  19.768  0.00  0.00    +0.000 C 
BRANCH  37  38
ATOM     38  O   UNL     1       5.394  14.960  19.136  0.00  0.00    +0.000 OA
ATOM     39  H   UNL     1       5.336  14.591  18.235  0.00  0.00    +0.000 HD
ENDBRANCH  37  38
ENDBRANCH  27  37
ENDBRANCH  24  25
ENDBRANCH   2  24
TORSDOF 11
ENDMDL
MODEL 7
REMARK VINA RESULT:      -6.8      2.605      9.058
REMARK  Name = 
REMARK  12 active torsions:
REMARK  status: ('A' for Active; 'I' for Inactive)
REMARK    1  A    between atoms: C_1  and  O_2
REMARK    2  A    between atoms: O_2  and  C_3
REMARK    3  A    between atoms: C_4  and  O_5
REMARK    4  A    between atoms: O_5  and  C_6
REMARK    5  A    between atoms: C_8  and  C_9
REMARK    6  A    between atoms: C_9  and  O_10
REMARK    7  A    between atoms: C_11  and  O_12
REMARK    8  A    between atoms: C_13  and  O_14
REMARK    9  A    between atoms: C_15  and  O_16
REMARK   10  A    between atoms: C_20  and  C_21
REMARK   11  A    between atoms: C_24  and  O_25
REMARK   12  A    between atoms: C_32  and  O_33
REMARK                            x       y       z     vdW  Elec       q    Type
REMARK                         _______ _______ _______ _____ _____    ______ ____
ROOT
ATOM      1  C   UNL     1       2.261   6.677  19.476  0.00  0.00    +0.000 A 
ATOM      2  C   UNL     1       2.622   7.281  18.255  0.00  0.00    +0.000 A 
ATOM      3  C   UNL     1       2.389   8.652  18.076  0.00  0.00    +0.000 A 
ATOM      4  C   UNL     1       1.764   9.401  19.070  0.00  0.00    +0.000 A 
ATOM      5  O   UNL     1       1.536  10.726  18.784  0.00  0.00    +0.000 OA
ATOM      6  C   UNL     1       0.895  11.490  19.735  0.00  0.00    +0.000 A 
ATOM      7  C   UNL     1       0.498  11.051  20.941  0.00  0.00    +0.000 A 
ATOM      8  C   UNL     1       0.743   9.644  21.286  0.00  0.00    +0.000 A 
ATOM      9  O   UNL     1       0.419   9.192  22.377  0.00  0.00    +0.000 OA
ATOM     10  C   UNL     1       1.395   8.807  20.271  0.00  0.00    +0.000 A 
ATOM     11  C   UNL     1       1.643   7.446  20.479  0.00  0.00    +0.000 A 
ENDROOT
BRANCH   6  12
ATOM     12  C   UNL     1       0.675  12.882  19.347  0.00  0.00    +0.000 A 
ATOM     13  C   UNL     1       1.750  13.663  18.902  0.00  0.00    +0.000 A 
ATOM     14  C   UNL     1       1.558  15.007  18.575  0.00  0.00    +0.000 A 
ATOM     15  C   UNL     1       0.287  15.562  18.692  0.00  0.00    +0.000 A 
ATOM     16  C   UNL     1      -0.792  14.797  19.119  0.00  0.00    +0.000 A 
ATOM     17  C   UNL     1      -0.600  13.454  19.447  0.00  0.00    +0.000 A 
BRANCH  15  18
ATOM     18  O   UNL     1       0.057  16.873  18.395  0.00  0.00    +0.000 OA
ATOM     19  H   UNL     1       0.855  17.245  17.984  0.00  0.00    +0.000 HD
ENDBRANCH  15  18
ENDBRANCH   6  12
BRANCH   1  21
ATOM     20  C   UNL     1       1.306   4.513  19.285  0.00  0.00    +0.000 C 
ATOM     21  O   UNL     1       2.372   5.333  19.747  0.00  0.00    +0.000 OA
ENDBRANCH   1  21
BRANCH  11  22
ATOM     22  O   UNL     1       1.302   6.828  21.661  0.00  0.00    +0.000 OA
ATOM     23  H   UNL     1       1.500   7.436  22.406  0.00  0.00    +0.000 HD
ENDBRANCH  11  22
BRANCH   2  24
ATOM     24  O   UNL     1       3.182   6.492  17.284  0.00  0.00    +0.000 OA
BRANCH  24  25
ATOM     25  C   UNL     1       4.356   5.733  17.614  0.00  0.00    +0.000 C 
ATOM     26  O   UNL     1       5.511   6.574  17.594  0.00  0.00    +0.000 OA
ATOM     27  C   UNL     1       6.725   5.878  17.886  0.00  0.00    +0.000 C 
ATOM     28  C   UNL     1       7.018   4.878  16.768  0.00  0.00    +0.000 C 
ATOM     29  C   UNL     1       5.840   3.899  16.661  0.00  0.00    +0.000 C 
ATOM     30  C   UNL     1       4.478   4.596  16.572  0.00  0.00    +0.000 C 
BRANCH  28  31
ATOM     31  O   UNL     1       8.208   4.148  17.082  0.00  0.00    +0.000 OA
ATOM     32  H   UNL     1       7.952   3.220  17.235  0.00  0.00    +0.000 HD
ENDBRANCH  28  31
BRANCH  29  33
ATOM     33  O   UNL     1       6.051   3.019  15.543  0.00  0.00    +0.000 OA
ATOM     34  H   UNL     1       6.042   2.099  15.869  0.00  0.00    +0.000 HD
ENDBRANCH  29  33
BRANCH  30  35
ATOM     35  O   UNL     1       3.426   3.632  16.741  0.00  0.00    +0.000 OA
ATOM     36  H   UNL     1       2.817   3.926  17.446  0.00  0.00    +0.000 HD
ENDBRANCH  30  35
BRANCH  27  37
ATOM     37  C   UNL     1       7.833   6.924  18.058  0.00  0.00    +0.000 C 
BRANCH  37  38
ATOM     38  O   UNL     1       7.725   7.951  17.075  0.00  0.00    +0.000 OA
ATOM     39  H   UNL     1       6.777   8.007  16.848  0.00  0.00    +0.000 HD
ENDBRANCH  37  38
ENDBRANCH  27  37
ENDBRANCH  24  25
ENDBRANCH   2  24
TORSDOF 11
ENDMDL
MODEL 8
REMARK VINA RESULT:      -6.8      4.264      8.647
REMARK  Name = 
REMARK  12 active torsions:
REMARK  status: ('A' for Active; 'I' for Inactive)
REMARK    1  A    between atoms: C_1  and  O_2
REMARK    2  A    between atoms: O_2  and  C_3
REMARK    3  A    between atoms: C_4  and  O_5
REMARK    4  A    between atoms: O_5  and  C_6
REMARK    5  A    between atoms: C_8  and  C_9
REMARK    6  A    between atoms: C_9  and  O_10
REMARK    7  A    between atoms: C_11  and  O_12
REMARK    8  A    between atoms: C_13  and  O_14
REMARK    9  A    between atoms: C_15  and  O_16
REMARK   10  A    between atoms: C_20  and  C_21
REMARK   11  A    between atoms: C_24  and  O_25
REMARK   12  A    between atoms: C_32  and  O_33
REMARK                            x       y       z     vdW  Elec       q    Type
REMARK                         _______ _______ _______ _____ _____    ______ ____
ROOT
ATOM      1  C   UNL     1      -0.175  10.795  18.464  0.00  0.00    +0.000 A 
ATOM      2  C   UNL     1       1.108  10.227  18.329  0.00  0.00    +0.000 A 
ATOM      3  C   UNL     1       2.233  11.063  18.370  0.00  0.00    +0.000 A 
ATOM      4  C   UNL     1       2.088  12.443  18.492  0.00  0.00    +0.000 A 
ATOM      5  O   UNL     1       3.245  13.183  18.475  0.00  0.00    +0.000 OA
ATOM      6  C   UNL     1       3.136  14.554  18.566  0.00  0.00    +0.000 A 
ATOM      7  C   UNL     1       1.984  15.230  18.702  0.00  0.00    +0.000 A 
ATOM      8  C   UNL     1       0.728  14.468  18.742  0.00  0.00    +0.000 A 
ATOM      9  O   UNL     1      -0.352  15.029  18.881  0.00  0.00    +0.000 OA
ATOM     10  C   UNL     1       0.824  13.008  18.612  0.00  0.00    +0.000 A 
ATOM     11  C   UNL     1      -0.310  12.189  18.600  0.00  0.00    +0.000 A 
ENDROOT
BRANCH   6  12
ATOM     12  C   UNL     1       4.411  15.268  18.524  0.00  0.00    +0.000 A 
ATOM     13  C   UNL     1       5.528  14.671  17.924  0.00  0.00    +0.000 A 
ATOM     14  C   UNL     1       6.761  15.327  17.921  0.00  0.00    +0.000 A 
ATOM     15  C   UNL     1       6.869  16.580  18.516  0.00  0.00    +0.000 A 
ATOM     16  C   UNL     1       5.767  17.191  19.103  0.00  0.00    +0.000 A 
ATOM     17  C   UNL     1       4.534  16.536  19.107  0.00  0.00    +0.000 A 
BRANCH  15  18
ATOM     18  O   UNL     1       8.056  17.250  18.547  0.00  0.00    +0.000 OA
ATOM     19  H   UNL     1       8.540  17.064  17.725  0.00  0.00    +0.000 HD
ENDBRANCH  15  18
ENDBRANCH   6  12
BRANCH   1  21
ATOM     20  C   UNL     1      -1.900   9.963  17.063  0.00  0.00    +0.000 C 
ATOM     21  O   UNL     1      -1.355  10.094  18.369  0.00  0.00    +0.000 OA
ENDBRANCH   1  21
BRANCH  11  22
ATOM     22  O   UNL     1      -1.575  12.714  18.730  0.00  0.00    +0.000 OA
ATOM     23  H   UNL     1      -2.102  12.472  17.938  0.00  0.00    +0.000 HD
ENDBRANCH  11  22
BRANCH   2  24
ATOM     24  O   UNL     1       1.200   8.870  18.154  0.00  0.00    +0.000 OA
BRANCH  24  25
ATOM     25  C   UNL     1       2.450   8.227  18.451  0.00  0.00    +0.000 C 
ATOM     26  O   UNL     1       3.016   7.673  17.261  0.00  0.00    +0.000 OA
ATOM     27  C   UNL     1       4.251   6.989  17.487  0.00  0.00    +0.000 C 
ATOM     28  C   UNL     1       3.996   5.751  18.346  0.00  0.00    +0.000 C 
ATOM     29  C   UNL     1       3.368   6.195  19.676  0.00  0.00    +0.000 C 
ATOM     30  C   UNL     1       2.162   7.124  19.496  0.00  0.00    +0.000 C 
BRANCH  28  31
ATOM     31  O   UNL     1       5.238   5.091  18.611  0.00  0.00    +0.000 OA
ATOM     32  H   UNL     1       5.185   4.713  19.509  0.00  0.00    +0.000 HD
ENDBRANCH  28  31
BRANCH  29  33
ATOM     33  O   UNL     1       3.022   5.034  20.451  0.00  0.00    +0.000 OA
ATOM     34  H   UNL     1       3.046   4.253  19.864  0.00  0.00    +0.000 HD
ENDBRANCH  29  33
BRANCH  30  35
ATOM     35  O   UNL     1       1.799   7.700  20.762  0.00  0.00    +0.000 OA
ATOM     36  H   UNL     1       0.842   7.582  20.917  0.00  0.00    +0.000 HD
ENDBRANCH  30  35
BRANCH  27  37
ATOM     37  C   UNL     1       4.854   6.652  16.118  0.00  0.00    +0.000 C 
BRANCH  37  38
ATOM     38  O   UNL     1       6.274   6.543  16.196  0.00  0.00    +0.000 OA
ATOM     39  H   UNL     1       6.578   6.351  15.289  0.00  0.00    +0.000 HD
ENDBRANCH  37  38
ENDBRANCH  27  37
ENDBRANCH  24  25
ENDBRANCH   2  24
TORSDOF 11
ENDMDL
MODEL 9
REMARK VINA RESULT:      -6.7      2.481      3.725
REMARK  Name = 
REMARK  12 active torsions:
REMARK  status: ('A' for Active; 'I' for Inactive)
REMARK    1  A    between atoms: C_1  and  O_2
REMARK    2  A    between atoms: O_2  and  C_3
REMARK    3  A    between atoms: C_4  and  O_5
REMARK    4  A    between atoms: O_5  and  C_6
REMARK    5  A    between atoms: C_8  and  C_9
REMARK    6  A    between atoms: C_9  and  O_10
REMARK    7  A    between atoms: C_11  and  O_12
REMARK    8  A    between atoms: C_13  and  O_14
REMARK    9  A    between atoms: C_15  and  O_16
REMARK   10  A    between atoms: C_20  and  C_21
REMARK   11  A    between atoms: C_24  and  O_25
REMARK   12  A    between atoms: C_32  and  O_33
REMARK                            x       y       z     vdW  Elec       q    Type
REMARK                         _______ _______ _______ _____ _____    ______ ____
ROOT
ATOM      1  C   UNL     1       0.751   9.328  20.192  0.00  0.00    +0.000 A 
ATOM      2  C   UNL     1       1.167   9.924  18.985  0.00  0.00    +0.000 A 
ATOM      3  C   UNL     1       1.965   9.186  18.099  0.00  0.00    +0.000 A 
ATOM      4  C   UNL     1       2.385   7.898  18.426  0.00  0.00    +0.000 A 
ATOM      5  O   UNL     1       3.202   7.273  17.516  0.00  0.00    +0.000 OA
ATOM      6  C   UNL     1       3.659   6.009  17.820  0.00  0.00    +0.000 A 
ATOM      7  C   UNL     1       3.343   5.320  18.929  0.00  0.00    +0.000 A 
ATOM      8  C   UNL     1       2.456   5.952  19.914  0.00  0.00    +0.000 A 
ATOM      9  O   UNL     1       2.120   5.365  20.936  0.00  0.00    +0.000 OA
ATOM     10  C   UNL     1       1.988   7.312  19.622  0.00  0.00    +0.000 A 
ATOM     11  C   UNL     1       1.170   8.022  20.507  0.00  0.00    +0.000 A 
ENDROOT
BRANCH   6  12
ATOM     12  C   UNL     1       4.537   5.421  16.810  0.00  0.00    +0.000 A 
ATOM     13  C   UNL     1       5.162   6.242  15.862  0.00  0.00    +0.000 A 
ATOM     14  C   UNL     1       5.964   5.684  14.864  0.00  0.00    +0.000 A 
ATOM     15  C   UNL     1       6.139   4.305  14.823  0.00  0.00    +0.000 A 
ATOM     16  C   UNL     1       5.537   3.477  15.764  0.00  0.00    +0.000 A 
ATOM     17  C   UNL     1       4.734   4.035  16.761  0.00  0.00    +0.000 A 
BRANCH  15  18
ATOM     18  O   UNL     1       6.903   3.716  13.859  0.00  0.00    +0.000 OA
ATOM     19  H   UNL     1       6.332   3.484  13.107  0.00  0.00    +0.000 HD
ENDBRANCH  15  18
ENDBRANCH   6  12
BRANCH   1  21
ATOM     20  C   UNL     1       0.733  10.267  22.372  0.00  0.00    +0.000 C 
ATOM     21  O   UNL     1       0.029   9.968  21.173  0.00  0.00    +0.000 OA
ENDBRANCH   1  21
BRANCH  11  22
ATOM     22  O   UNL     1       0.747   7.467  21.693  0.00  0.00    +0.000 OA
ATOM     23  H   UNL     1       0.049   6.804  21.504  0.00  0.00    +0.000 HD
ENDBRANCH  11  22
BRANCH   2  24
ATOM     24  O   UNL     1       0.776  11.213  18.731  0.00  0.00    +0.000 OA
BRANCH  24  25
ATOM     25  C   UNL     1       1.525  12.283  19.331  0.00  0.00    +0.000 C 
ATOM     26  O   UNL     1       0.680  13.062  20.181  0.00  0.00    +0.000 OA
ATOM     27  C   UNL     1       1.352  14.166  20.790  0.00  0.00    +0.000 C 
ATOM     28  C   UNL     1       1.762  15.169  19.712  0.00  0.00    +0.000 C 
ATOM     29  C   UNL     1       2.679  14.462  18.704  0.00  0.00    +0.000 C 
ATOM     30  C   UNL     1       2.101  13.142  18.181  0.00  0.00    +0.000 C 
BRANCH  28  31
ATOM     31  O   UNL     1       2.475  16.253  20.316  0.00  0.00    +0.000 OA
ATOM     32  H   UNL     1       1.986  16.516  21.119  0.00  0.00    +0.000 HD
ENDBRANCH  28  31
BRANCH  29  33
ATOM     33  O   UNL     1       2.984  15.362  17.625  0.00  0.00    +0.000 OA
ATOM     34  H   UNL     1       2.159  15.550  17.137  0.00  0.00    +0.000 HD
ENDBRANCH  29  33
BRANCH  30  35
ATOM     35  O   UNL     1       3.112  12.420  17.459  0.00  0.00    +0.000 OA
ATOM     36  H   UNL     1       2.746  12.091  16.616  0.00  0.00    +0.000 HD
ENDBRANCH  30  35
BRANCH  27  37
ATOM     37  C   UNL     1       0.408  14.766  21.838  0.00  0.00    +0.000 C 
BRANCH  37  38
ATOM     38  O   UNL     1       0.043  13.795  22.816  0.00  0.00    +0.000 OA
ATOM     39  H   UNL     1      -0.179  12.985  22.319  0.00  0.00    +0.000 HD
ENDBRANCH  37  38
ENDBRANCH  27  37
ENDBRANCH  24  25
ENDBRANCH   2  24
TORSDOF 11
ENDMDL
