MODEL 1
REMARK VINA RESULT:      -8.7      0.000      0.000
REMARK  Name = 
REMARK  4 active torsions:
REMARK  status: ('A' for Active; 'I' for Inactive)
REMARK    1  A    between atoms: C_2  and  C_3
REMARK    2  A    between atoms: C_2  and  C_10
REMARK    3  A    between atoms: N_13  and  S_14
REMARK    4  A    between atoms: S_14  and  C_17
REMARK                            x       y       z     vdW  Elec       q    Type
REMARK                         _______ _______ _______ _____ _____    ______ ____
ROOT
ATOM      1  C   UNL     1       2.799   7.507  17.890  0.00  0.00    +0.000 A 
ATOM      2  C   UNL     1       4.111   7.381  17.333  0.00  0.00    +0.000 A 
ATOM      3  C   UNL     1       4.402   6.041  17.217  0.00  0.00    +0.000 A 
ATOM      4  N   UNL     1       3.321   5.349  17.686  0.00  0.00    +0.000 N 
ATOM      5  C   UNL     1       2.334   6.214  18.091  0.00  0.00    +0.000 A 
ENDROOT
BRANCH   4   6
ATOM      6  S   UNL     1       3.172   3.651  17.618  0.00  0.00    +0.000 S 
ATOM      7  O   UNL     1       2.136   3.394  16.636  0.00  0.00    +0.000 OA
ATOM      8  O   UNL     1       4.523   3.150  17.462  0.00  0.00    +0.000 OA
BRANCH   6   9
ATOM      9  C   UNL     1       2.568   3.188  19.219  0.00  0.00    +0.000 A 
ATOM     10  C   UNL     1       3.469   2.805  20.219  0.00  0.00    +0.000 A 
ATOM     11  C   UNL     1       2.991   2.472  21.489  0.00  0.00    +0.000 A 
ATOM     12  C   UNL     1       1.624   2.540  21.762  0.00  0.00    +0.000 A 
ATOM     13  C   UNL     1       0.731   2.945  20.769  0.00  0.00    +0.000 A 
ATOM     14  C   UNL     1       1.199   3.276  19.495  0.00  0.00    +0.000 A 
ENDBRANCH   6   9
ENDBRANCH   4   6
BRANCH   1  16
ATOM     15  O   UNL     1       2.141   9.679  17.299  0.00  0.00    +0.000 OA
ATOM     16  C   UNL     1       2.094   8.765  18.121  0.00  0.00    +0.000 C 
BRANCH  16  17
ATOM     17  C   UNL     1       1.328   8.986  19.375  0.00  0.00    +0.000 A 
ATOM     18  C   UNL     1       0.349   9.991  19.394  0.00  0.00    +0.000 A 
ATOM     19  C   UNL     1      -0.326  10.296  20.580  0.00  0.00    +0.000 A 
ATOM     20  C   UNL     1      -0.012   9.606  21.748  0.00  0.00    +0.000 A 
ATOM     21 CL   UNL     1      -0.809  10.010  23.218  0.00  0.00    +0.000 Cl
ATOM     22  C   UNL     1       0.959   8.604  21.740  0.00  0.00    +0.000 A 
ATOM     23  C   UNL     1       1.633   8.294  20.555  0.00  0.00    +0.000 A 
ENDBRANCH  16  17
ENDBRANCH   1  16
TORSDOF 4
ENDMDL
MODEL 2
REMARK VINA RESULT:      -8.7      3.448      5.530
REMARK  Name = 
REMARK  4 active torsions:
REMARK  status: ('A' for Active; 'I' for Inactive)
REMARK    1  A    between atoms: C_2  and  C_3
REMARK    2  A    between atoms: C_2  and  C_10
REMARK    3  A    between atoms: N_13  and  S_14
REMARK    4  A    between atoms: S_14  and  C_17
REMARK                            x       y       z     vdW  Elec       q    Type
REMARK                         _______ _______ _______ _____ _____    ______ ____
ROOT
ATOM      1  C   UNL     1       3.853   5.474  18.293  0.00  0.00    +0.000 A 
ATOM      2  C   UNL     1       3.622   4.330  17.465  0.00  0.00    +0.000 A 
ATOM      3  C   UNL     1       4.727   4.148  16.664  0.00  0.00    +0.000 A 
ATOM      4  N   UNL     1       5.617   5.139  16.970  0.00  0.00    +0.000 N 
ATOM      5  C   UNL     1       5.115   5.948  17.960  0.00  0.00    +0.000 A 
ENDROOT
BRANCH   4   6
ATOM      6  S   UNL     1       7.192   5.240  16.321  0.00  0.00    +0.000 S 
ATOM      7  O   UNL     1       7.555   6.642  16.410  0.00  0.00    +0.000 OA
ATOM      8  O   UNL     1       7.953   4.203  16.988  0.00  0.00    +0.000 OA
BRANCH   6   9
ATOM      9  C   UNL     1       7.002   4.807  14.612  0.00  0.00    +0.000 A 
ATOM     10  C   UNL     1       7.806   5.421  13.645  0.00  0.00    +0.000 A 
ATOM     11  C   UNL     1       7.676   5.054  12.304  0.00  0.00    +0.000 A 
ATOM     12  C   UNL     1       6.761   4.066  11.935  0.00  0.00    +0.000 A 
ATOM     13  C   UNL     1       5.977   3.440  12.905  0.00  0.00    +0.000 A 
ATOM     14  C   UNL     1       6.097   3.804  14.248  0.00  0.00    +0.000 A 
ENDBRANCH   6   9
ENDBRANCH   4   6
BRANCH   1  16
ATOM     15  O   UNL     1       2.650   5.278  20.296  0.00  0.00    +0.000 OA
ATOM     16  C   UNL     1       2.946   5.970  19.324  0.00  0.00    +0.000 C 
BRANCH  16  17
ATOM     17  C   UNL     1       2.328   7.316  19.205  0.00  0.00    +0.000 A 
ATOM     18  C   UNL     1       1.727   7.881  20.341  0.00  0.00    +0.000 A 
ATOM     19  C   UNL     1       1.050   9.100  20.248  0.00  0.00    +0.000 A 
ATOM     20  C   UNL     1       0.963   9.748  19.020  0.00  0.00    +0.000 A 
ATOM     21 CL   UNL     1       0.093  11.227  18.894  0.00  0.00    +0.000 Cl
ATOM     22  C   UNL     1       1.558   9.197  17.884  0.00  0.00    +0.000 A 
ATOM     23  C   UNL     1       2.239   7.979  17.974  0.00  0.00    +0.000 A 
ENDBRANCH  16  17
ENDBRANCH   1  16
TORSDOF 4
ENDMDL
MODEL 3
REMARK VINA RESULT:      -8.6      3.456      5.515
REMARK  Name = 
REMARK  4 active torsions:
REMARK  status: ('A' for Active; 'I' for Inactive)
REMARK    1  A    between atoms: C_2  and  C_3
REMARK    2  A    between atoms: C_2  and  C_10
REMARK    3  A    between atoms: N_13  and  S_14
REMARK    4  A    between atoms: S_14  and  C_17
REMARK                            x       y       z     vdW  Elec       q    Type
REMARK                         _______ _______ _______ _____ _____    ______ ____
ROOT
ATOM      1  C   UNL     1       3.895   5.401  18.370  0.00  0.00    +0.000 A 
ATOM      2  C   UNL     1       3.663   4.268  17.526  0.00  0.00    +0.000 A 
ATOM      3  C   UNL     1       4.760   4.108  16.709  0.00  0.00    +0.000 A 
ATOM      4  N   UNL     1       5.645   5.103  17.020  0.00  0.00    +0.000 N 
ATOM      5  C   UNL     1       5.148   5.892  18.028  0.00  0.00    +0.000 A 
ENDROOT
BRANCH   4   6
ATOM      6  S   UNL     1       7.210   5.230  16.352  0.00  0.00    +0.000 S 
ATOM      7  O   UNL     1       7.555   6.636  16.443  0.00  0.00    +0.000 OA
ATOM      8  O   UNL     1       7.994   4.200  17.006  0.00  0.00    +0.000 OA
BRANCH   6   9
ATOM      9  C   UNL     1       7.006   4.801  14.644  0.00  0.00    +0.000 A 
ATOM     10  C   UNL     1       7.803   5.417  13.672  0.00  0.00    +0.000 A 
ATOM     11  C   UNL     1       7.661   5.053  12.331  0.00  0.00    +0.000 A 
ATOM     12  C   UNL     1       6.743   4.067  11.966  0.00  0.00    +0.000 A 
ATOM     13  C   UNL     1       5.967   3.439  12.941  0.00  0.00    +0.000 A 
ATOM     14  C   UNL     1       6.098   3.799  14.284  0.00  0.00    +0.000 A 
ENDBRANCH   6   9
ENDBRANCH   4   6
BRANCH   1  16
ATOM     15  O   UNL     1       2.788   5.198  20.427  0.00  0.00    +0.000 OA
ATOM     16  C   UNL     1       2.996   5.872  19.420  0.00  0.00    +0.000 C 
BRANCH  16  17
ATOM     17  C   UNL     1       2.282   7.167  19.280  0.00  0.00    +0.000 A 
ATOM     18  C   UNL     1       2.307   7.815  18.035  0.00  0.00    +0.000 A 
ATOM     19  C   UNL     1       1.731   9.080  17.886  0.00  0.00    +0.000 A 
ATOM     20  C   UNL     1       1.143   9.703  18.984  0.00  0.00    +0.000 A 
ATOM     21 CL   UNL     1       0.475  11.279  18.815  0.00  0.00    +0.000 Cl
ATOM     22  C   UNL     1       1.112   9.068  20.226  0.00  0.00    +0.000 A 
ATOM     23  C   UNL     1       1.684   7.801  20.377  0.00  0.00    +0.000 A 
ENDBRANCH  16  17
ENDBRANCH   1  16
TORSDOF 4
ENDMDL
MODEL 4
REMARK VINA RESULT:      -8.6      0.100      1.015
REMARK  Name = 
REMARK  4 active torsions:
REMARK  status: ('A' for Active; 'I' for Inactive)
REMARK    1  A    between atoms: C_2  and  C_3
REMARK    2  A    between atoms: C_2  and  C_10
REMARK    3  A    between atoms: N_13  and  S_14
REMARK    4  A    between atoms: S_14  and  C_17
REMARK                            x       y       z     vdW  Elec       q    Type
REMARK                         _______ _______ _______ _____ _____    ______ ____
ROOT
ATOM      1  C   UNL     1       2.781   7.595  17.907  0.00  0.00    +0.000 A 
ATOM      2  C   UNL     1       4.088   7.464  17.338  0.00  0.00    +0.000 A 
ATOM      3  C   UNL     1       4.377   6.123  17.227  0.00  0.00    +0.000 A 
ATOM      4  N   UNL     1       3.299   5.435  17.711  0.00  0.00    +0.000 N 
ATOM      5  C   UNL     1       2.317   6.304  18.119  0.00  0.00    +0.000 A 
ENDROOT
BRANCH   4   6
ATOM      6  S   UNL     1       3.147   3.737  17.654  0.00  0.00    +0.000 S 
ATOM      7  O   UNL     1       2.080   3.477  16.707  0.00  0.00    +0.000 OA
ATOM      8  O   UNL     1       4.492   3.234  17.456  0.00  0.00    +0.000 OA
BRANCH   6   9
ATOM      9  C   UNL     1       2.595   3.281  19.276  0.00  0.00    +0.000 A 
ATOM     10  C   UNL     1       1.234   3.357  19.594  0.00  0.00    +0.000 A 
ATOM     11  C   UNL     1       0.799   2.966  20.863  0.00  0.00    +0.000 A 
ATOM     12  C   UNL     1       1.715   2.485  21.800  0.00  0.00    +0.000 A 
ATOM     13  C   UNL     1       3.068   2.390  21.471  0.00  0.00    +0.000 A 
ATOM     14  C   UNL     1       3.513   2.782  20.206  0.00  0.00    +0.000 A 
ENDBRANCH   6   9
ENDBRANCH   4   6
BRANCH   1  16
ATOM     15  O   UNL     1       2.138   9.772  17.319  0.00  0.00    +0.000 OA
ATOM     16  C   UNL     1       2.081   8.856  18.137  0.00  0.00    +0.000 C 
BRANCH  16  17
ATOM     17  C   UNL     1       1.307   9.075  19.386  0.00  0.00    +0.000 A 
ATOM     18  C   UNL     1       0.351  10.103  19.410  0.00  0.00    +0.000 A 
ATOM     19  C   UNL     1      -0.329  10.406  20.594  0.00  0.00    +0.000 A 
ATOM     20  C   UNL     1      -0.044   9.691  21.754  0.00  0.00    +0.000 A 
ATOM     21 CL   UNL     1      -0.847  10.092  23.222  0.00  0.00    +0.000 Cl
ATOM     22  C   UNL     1       0.903   8.666  21.741  0.00  0.00    +0.000 A 
ATOM     23  C   UNL     1       1.582   8.359  20.558  0.00  0.00    +0.000 A 
ENDBRANCH  16  17
ENDBRANCH   1  16
TORSDOF 4
ENDMDL
MODEL 5
REMARK VINA RESULT:      -8.6      3.447      5.575
REMARK  Name = 
REMARK  4 active torsions:
REMARK  status: ('A' for Active; 'I' for Inactive)
REMARK    1  A    between atoms: C_2  and  C_3
REMARK    2  A    between atoms: C_2  and  C_10
REMARK    3  A    between atoms: N_13  and  S_14
REMARK    4  A    between atoms: S_14  and  C_17
REMARK                            x       y       z     vdW  Elec       q    Type
REMARK                         _______ _______ _______ _____ _____    ______ ____
ROOT
ATOM      1  C   UNL     1       3.811   5.389  18.272  0.00  0.00    +0.000 A 
ATOM      2  C   UNL     1       3.693   4.141  17.581  0.00  0.00    +0.000 A 
ATOM      3  C   UNL     1       4.822   3.966  16.813  0.00  0.00    +0.000 A 
ATOM      4  N   UNL     1       5.617   5.062  17.005  0.00  0.00    +0.000 N 
ATOM      5  C   UNL     1       5.031   5.932  17.891  0.00  0.00    +0.000 A 
ENDROOT
BRANCH   4   6
ATOM      6  S   UNL     1       7.185   5.228  16.356  0.00  0.00    +0.000 S 
ATOM      7  O   UNL     1       7.481   6.647  16.422  0.00  0.00    +0.000 OA
ATOM      8  O   UNL     1       7.994   4.239  17.039  0.00  0.00    +0.000 OA
BRANCH   6   9
ATOM      9  C   UNL     1       7.019   4.759  14.654  0.00  0.00    +0.000 A 
ATOM     10  C   UNL     1       6.061   3.808  14.285  0.00  0.00    +0.000 A 
ATOM     11  C   UNL     1       5.911   3.465  12.939  0.00  0.00    +0.000 A 
ATOM     12  C   UNL     1       6.700   4.083  11.967  0.00  0.00    +0.000 A 
ATOM     13  C   UNL     1       7.638   5.048  12.337  0.00  0.00    +0.000 A 
ATOM     14  C   UNL     1       7.798   5.394  13.681  0.00  0.00    +0.000 A 
ENDBRANCH   6   9
ENDBRANCH   4   6
BRANCH   1  16
ATOM     15  O   UNL     1       2.423   5.223  20.155  0.00  0.00    +0.000 OA
ATOM     16  C   UNL     1       2.847   5.918  19.233  0.00  0.00    +0.000 C 
BRANCH  16  17
ATOM     17  C   UNL     1       2.327   7.304  19.100  0.00  0.00    +0.000 A 
ATOM     18  C   UNL     1       1.750   7.914  20.225  0.00  0.00    +0.000 A 
ATOM     19  C   UNL     1       1.162   9.177  20.117  0.00  0.00    +0.000 A 
ATOM     20  C   UNL     1       1.140   9.825  18.885  0.00  0.00    +0.000 A 
ATOM     21 CL   UNL     1       0.377  11.360  18.741  0.00  0.00    +0.000 Cl
ATOM     22  C   UNL     1       1.712   9.228  17.761  0.00  0.00    +0.000 A 
ATOM     23  C   UNL     1       2.304   7.966  17.865  0.00  0.00    +0.000 A 
ENDBRANCH  16  17
ENDBRANCH   1  16
TORSDOF 4
ENDMDL
MODEL 6
REMARK VINA RESULT:      -8.4      2.089      3.863
REMARK  Name = 
REMARK  4 active torsions:
REMARK  status: ('A' for Active; 'I' for Inactive)
REMARK    1  A    between atoms: C_2  and  C_3
REMARK    2  A    between atoms: C_2  and  C_10
REMARK    3  A    between atoms: N_13  and  S_14
REMARK    4  A    between atoms: S_14  and  C_17
REMARK                            x       y       z     vdW  Elec       q    Type
REMARK                         _______ _______ _______ _____ _____    ______ ____
ROOT
ATOM      1  C   UNL     1       2.551   7.024  19.178  0.00  0.00    +0.000 A 
ATOM      2  C   UNL     1       2.043   5.968  19.999  0.00  0.00    +0.000 A 
ATOM      3  C   UNL     1       2.976   4.956  20.024  0.00  0.00    +0.000 A 
ATOM      4  N   UNL     1       4.026   5.354  19.246  0.00  0.00    +0.000 N 
ATOM      5  C   UNL     1       3.797   6.607  18.730  0.00  0.00    +0.000 A 
ENDROOT
BRANCH   4   6
ATOM      6  S   UNL     1       5.480   4.476  19.083  0.00  0.00    +0.000 S 
ATOM      7  O   UNL     1       6.484   5.261  19.775  0.00  0.00    +0.000 OA
ATOM      8  O   UNL     1       5.158   3.118  19.475  0.00  0.00    +0.000 OA
BRANCH   6   9
ATOM      9  C   UNL     1       5.830   4.505  17.345  0.00  0.00    +0.000 A 
ATOM     10  C   UNL     1       7.101   4.887  16.898  0.00  0.00    +0.000 A 
ATOM     11  C   UNL     1       7.382   4.878  15.530  0.00  0.00    +0.000 A 
ATOM     12  C   UNL     1       6.408   4.473  14.617  0.00  0.00    +0.000 A 
ATOM     13  C   UNL     1       5.150   4.070  15.069  0.00  0.00    +0.000 A 
ATOM     14  C   UNL     1       4.857   4.080  16.434  0.00  0.00    +0.000 A 
ENDBRANCH   6   9
ENDBRANCH   4   6
BRANCH   1  16
ATOM     15  O   UNL     1       2.018   8.897  17.871  0.00  0.00    +0.000 OA
ATOM     16  C   UNL     1       1.889   8.304  18.940  0.00  0.00    +0.000 C 
BRANCH  16  17
ATOM     17  C   UNL     1       1.067   8.940  20.003  0.00  0.00    +0.000 A 
ATOM     18  C   UNL     1       0.143   9.930  19.633  0.00  0.00    +0.000 A 
ATOM     19  C   UNL     1      -0.579  10.621  20.610  0.00  0.00    +0.000 A 
ATOM     20  C   UNL     1      -0.368  10.333  21.956  0.00  0.00    +0.000 A 
ATOM     21 CL   UNL     1      -1.222  11.214  23.162  0.00  0.00    +0.000 Cl
ATOM     22  C   UNL     1       0.549   9.351  22.335  0.00  0.00    +0.000 A 
ATOM     23  C   UNL     1       1.269   8.655  21.360  0.00  0.00    +0.000 A 
ENDBRANCH  16  17
ENDBRANCH   1  16
TORSDOF 4
ENDMDL
MODEL 7
REMARK VINA RESULT:      -8.4      0.183      1.015
REMARK  Name = 
REMARK  4 active torsions:
REMARK  status: ('A' for Active; 'I' for Inactive)
REMARK    1  A    between atoms: C_2  and  C_3
REMARK    2  A    between atoms: C_2  and  C_10
REMARK    3  A    between atoms: N_13  and  S_14
REMARK    4  A    between atoms: S_14  and  C_17
REMARK                            x       y       z     vdW  Elec       q    Type
REMARK                         _______ _______ _______ _____ _____    ______ ____
ROOT
ATOM      1  C   UNL     1       2.812   7.505  17.891  0.00  0.00    +0.000 A 
ATOM      2  C   UNL     1       4.151   7.356  17.406  0.00  0.00    +0.000 A 
ATOM      3  C   UNL     1       4.423   6.011  17.300  0.00  0.00    +0.000 A 
ATOM      4  N   UNL     1       3.305   5.338  17.707  0.00  0.00    +0.000 N 
ATOM      5  C   UNL     1       2.313   6.220  18.059  0.00  0.00    +0.000 A 
ENDROOT
BRANCH   4   6
ATOM      6  S   UNL     1       3.128   3.643  17.623  0.00  0.00    +0.000 S 
ATOM      7  O   UNL     1       2.057   3.414  16.672  0.00  0.00    +0.000 OA
ATOM      8  O   UNL     1       4.466   3.124  17.418  0.00  0.00    +0.000 OA
BRANCH   6   9
ATOM      9  C   UNL     1       2.567   3.170  19.237  0.00  0.00    +0.000 A 
ATOM     10  C   UNL     1       3.494   2.758  20.202  0.00  0.00    +0.000 A 
ATOM     11  C   UNL     1       3.051   2.417  21.482  0.00  0.00    +0.000 A 
ATOM     12  C   UNL     1       1.695   2.505  21.801  0.00  0.00    +0.000 A 
ATOM     13  C   UNL     1       0.778   2.939  20.843  0.00  0.00    +0.000 A 
ATOM     14  C   UNL     1       1.210   3.278  19.559  0.00  0.00    +0.000 A 
ENDBRANCH   6   9
ENDBRANCH   4   6
BRANCH   1  16
ATOM     15  O   UNL     1       2.053   9.609  17.185  0.00  0.00    +0.000 OA
ATOM     16  C   UNL     1       2.119   8.776  18.087  0.00  0.00    +0.000 C 
BRANCH  16  17
ATOM     17  C   UNL     1       1.506   9.109  19.399  0.00  0.00    +0.000 A 
ATOM     18  C   UNL     1       1.664   8.205  20.461  0.00  0.00    +0.000 A 
ATOM     19  C   UNL     1       1.023   8.433  21.682  0.00  0.00    +0.000 A 
ATOM     20  C   UNL     1       0.214   9.555  21.837  0.00  0.00    +0.000 A 
ATOM     21 CL   UNL     1      -0.612   9.814  23.323  0.00  0.00    +0.000 Cl
ATOM     22  C   UNL     1       0.051  10.461  20.788  0.00  0.00    +0.000 A 
ATOM     23  C   UNL     1       0.694  10.238  19.567  0.00  0.00    +0.000 A 
ENDBRANCH  16  17
ENDBRANCH   1  16
TORSDOF 4
ENDMDL
MODEL 8
REMARK VINA RESULT:      -8.4      0.142      1.432
REMARK  Name = 
REMARK  4 active torsions:
REMARK  status: ('A' for Active; 'I' for Inactive)
REMARK    1  A    between atoms: C_2  and  C_3
REMARK    2  A    between atoms: C_2  and  C_10
REMARK    3  A    between atoms: N_13  and  S_14
REMARK    4  A    between atoms: S_14  and  C_17
REMARK                            x       y       z     vdW  Elec       q    Type
REMARK                         _______ _______ _______ _____ _____    ______ ____
ROOT
ATOM      1  C   UNL     1       2.840   7.539  17.850  0.00  0.00    +0.000 A 
ATOM      2  C   UNL     1       4.151   7.392  17.294  0.00  0.00    +0.000 A 
ATOM      3  C   UNL     1       4.432   6.048  17.205  0.00  0.00    +0.000 A 
ATOM      4  N   UNL     1       3.346   5.373  17.689  0.00  0.00    +0.000 N 
ATOM      5  C   UNL     1       2.366   6.254  18.076  0.00  0.00    +0.000 A 
ENDROOT
BRANCH   4   6
ATOM      6  S   UNL     1       3.185   3.675  17.655  0.00  0.00    +0.000 S 
ATOM      7  O   UNL     1       2.143   3.407  16.682  0.00  0.00    +0.000 OA
ATOM      8  O   UNL     1       4.531   3.161  17.505  0.00  0.00    +0.000 OA
BRANCH   6   9
ATOM      9  C   UNL     1       2.582   3.249  19.267  0.00  0.00    +0.000 A 
ATOM     10  C   UNL     1       1.210   3.323  19.539  0.00  0.00    +0.000 A 
ATOM     11  C   UNL     1       0.736   2.956  20.800  0.00  0.00    +0.000 A 
ATOM     12  C   UNL     1       1.624   2.500  21.777  0.00  0.00    +0.000 A 
ATOM     13  C   UNL     1       2.987   2.406  21.494  0.00  0.00    +0.000 A 
ATOM     14  C   UNL     1       3.472   2.775  20.237  0.00  0.00    +0.000 A 
ENDBRANCH   6   9
ENDBRANCH   4   6
BRANCH   1  16
ATOM     15  O   UNL     1       2.113   9.664  17.173  0.00  0.00    +0.000 OA
ATOM     16  C   UNL     1       2.145   8.807  18.055  0.00  0.00    +0.000 C 
BRANCH  16  17
ATOM     17  C   UNL     1       1.486   9.108  19.352  0.00  0.00    +0.000 A 
ATOM     18  C   UNL     1       1.710   8.242  20.434  0.00  0.00    +0.000 A 
ATOM     19  C   UNL     1       1.034   8.434  21.643  0.00  0.00    +0.000 A 
ATOM     20  C   UNL     1       0.126   9.481  21.765  0.00  0.00    +0.000 A 
ATOM     21 CL   UNL     1      -0.741   9.691  23.236  0.00  0.00    +0.000 Cl
ATOM     22  C   UNL     1      -0.105  10.349  20.697  0.00  0.00    +0.000 A 
ATOM     23  C   UNL     1       0.572  10.162  19.488  0.00  0.00    +0.000 A 
ENDBRANCH  16  17
ENDBRANCH   1  16
TORSDOF 4
ENDMDL
MODEL 9
REMARK VINA RESULT:      -8.3      1.831      3.746
REMARK  Name = 
REMARK  4 active torsions:
REMARK  status: ('A' for Active; 'I' for Inactive)
REMARK    1  A    between atoms: C_2  and  C_3
REMARK    2  A    between atoms: C_2  and  C_10
REMARK    3  A    between atoms: N_13  and  S_14
REMARK    4  A    between atoms: S_14  and  C_17
REMARK                            x       y       z     vdW  Elec       q    Type
REMARK                         _______ _______ _______ _____ _____    ______ ____
ROOT
ATOM      1  C   UNL     1       2.289   6.652  19.436  0.00  0.00    +0.000 A 
ATOM      2  C   UNL     1       1.783   5.816  20.483  0.00  0.00    +0.000 A 
ATOM      3  C   UNL     1       2.328   4.561  20.333  0.00  0.00    +0.000 A 
ATOM      4  N   UNL     1       3.140   4.600  19.234  0.00  0.00    +0.000 N 
ATOM      5  C   UNL     1       3.141   5.857  18.680  0.00  0.00    +0.000 A 
ENDROOT
BRANCH   4   6
ATOM      6  S   UNL     1       4.133   3.306  18.735  0.00  0.00    +0.000 S 
ATOM      7  O   UNL     1       4.916   2.948  19.902  0.00  0.00    +0.000 OA
ATOM      8  O   UNL     1       3.243   2.364  18.085  0.00  0.00    +0.000 OA
BRANCH   6   9
ATOM      9  C   UNL     1       5.213   4.011  17.518  0.00  0.00    +0.000 A 
ATOM     10  C   UNL     1       4.812   4.061  16.177  0.00  0.00    +0.000 A 
ATOM     11  C   UNL     1       5.652   4.647  15.227  0.00  0.00    +0.000 A 
ATOM     12  C   UNL     1       6.874   5.196  15.617  0.00  0.00    +0.000 A 
ATOM     13  C   UNL     1       7.260   5.165  16.958  0.00  0.00    +0.000 A 
ATOM     14  C   UNL     1       6.429   4.577  17.915  0.00  0.00    +0.000 A 
ENDBRANCH   6   9
ENDBRANCH   4   6
BRANCH   1  16
ATOM     15  O   UNL     1       2.476   8.716  18.340  0.00  0.00    +0.000 OA
ATOM     16  C   UNL     1       1.998   8.073  19.273  0.00  0.00    +0.000 C 
BRANCH  16  17
ATOM     17  C   UNL     1       1.143   8.788  20.255  0.00  0.00    +0.000 A 
ATOM     18  C   UNL     1       0.228   9.741  19.779  0.00  0.00    +0.000 A 
ATOM     19  C   UNL     1      -0.525  10.504  20.674  0.00  0.00    +0.000 A 
ATOM     20  C   UNL     1      -0.356  10.326  22.045  0.00  0.00    +0.000 A 
ATOM     21 CL   UNL     1      -1.249  11.296  23.149  0.00  0.00    +0.000 Cl
ATOM     22  C   UNL     1       0.550   9.381  22.530  0.00  0.00    +0.000 A 
ATOM     23  C   UNL     1       1.303   8.613  21.636  0.00  0.00    +0.000 A 
ENDBRANCH  16  17
ENDBRANCH   1  16
TORSDOF 4
ENDMDL
