MODEL 1
REMARK VINA RESULT:      -7.3      0.000      0.000
REMARK  Name = 
REMARK  6 active torsions:
REMARK  status: ('A' for Active; 'I' for Inactive)
REMARK    1  A    between atoms: C_2  and  C_3
REMARK    2  A    between atoms: C_2  and  C_24
REMARK    3  A    between atoms: C_3  and  O_4
REMARK    4  A    between atoms: O_4  and  C_5
REMARK    5  A    between atoms: C_5  and  C_7
REMARK    6  A    between atoms: C_14  and  C_15
REMARK                            x       y       z     vdW  Elec       q    Type
REMARK                         _______ _______ _______ _____ _____    ______ ____
ROOT
ATOM      1  C   UNL     1      -2.924  13.534  21.633  0.00  0.00    +0.000 C 
ATOM      2  C   UNL     1      -2.164  13.933  20.383  0.00  0.00    +0.000 C 
ATOM      3  C   UNL     1      -1.300  12.727  20.085  0.00  0.00    +0.000 C 
ATOM      4  O   UNL     1      -0.731  12.591  19.015  0.00  0.00    +0.000 OA
ATOM      5  N   UNL     1      -1.258  11.935  21.234  0.00  0.00    +0.000 N 
ATOM      6  C   UNL     1      -0.487  10.787  21.266  0.00  0.00    +0.000 A 
ATOM      7  N   UNL     1       0.166  10.239  20.269  0.00  0.00    +0.000 NA
ATOM      8  C   UNL     1       0.831   9.097  20.689  0.00  0.00    +0.000 A 
ATOM      9  C   UNL     1       0.705   8.824  22.037  0.00  0.00    +0.000 A 
ATOM     10  S   UNL     1      -0.322   9.979  22.772  0.00  0.00    +0.000 S 
ATOM     11  C   UNL     1      -2.023  12.522  22.309  0.00  0.00    +0.000 C 
ENDROOT
BRANCH   8  12
ATOM     12  C   UNL     1       1.627   8.293  19.768  0.00  0.00    +0.000 A 
ATOM     13  C   UNL     1       1.860   8.754  18.466  0.00  0.00    +0.000 A 
ATOM     14  C   UNL     1       2.636   8.011  17.574  0.00  0.00    +0.000 A 
ATOM     15  C   UNL     1       3.179   6.789  17.972  0.00  0.00    +0.000 A 
ATOM     16  C   UNL     1       2.941   6.309  19.256  0.00  0.00    +0.000 A 
ATOM     17  C   UNL     1       2.168   7.056  20.151  0.00  0.00    +0.000 A 
ENDBRANCH   8  12
BRANCH   1  18
ATOM     18  C   UNL     1      -4.287  12.950  21.338  0.00  0.00    +0.000 C 
ATOM     19  O   UNL     1      -4.907  12.259  22.137  0.00  0.00    +0.000 OA
BRANCH  18  20
ATOM     20  O   UNL     1      -4.699  13.222  20.072  0.00  0.00    +0.000 OA
BRANCH  20  21
ATOM     21  C   UNL     1      -5.554  12.223  19.497  0.00  0.00    +0.000 C 
BRANCH  21  23
ATOM     22  O   UNL     1      -6.026  12.803  17.195  0.00  0.00    +0.000 OA
ATOM     23  C   UNL     1      -5.321  12.177  17.989  0.00  0.00    +0.000 C 
BRANCH  23  24
ATOM     24  C   UNL     1      -4.235  11.324  17.444  0.00  0.00    +0.000 A 
ATOM     25  C   UNL     1      -3.440  10.507  18.254  0.00  0.00    +0.000 A 
ATOM     26  C   UNL     1      -2.408   9.758  17.685  0.00  0.00    +0.000 A 
ATOM     27  C   UNL     1      -2.170   9.819  16.311  0.00  0.00    +0.000 A 
ATOM     28  C   UNL     1      -2.959  10.629  15.501  0.00  0.00    +0.000 A 
ATOM     29  C   UNL     1      -3.985  11.384  16.062  0.00  0.00    +0.000 A 
ENDBRANCH  23  24
ENDBRANCH  21  23
ENDBRANCH  20  21
ENDBRANCH  18  20
ENDBRANCH   1  18
TORSDOF 6
ENDMDL
MODEL 2
REMARK VINA RESULT:      -7.2      0.718      1.145
REMARK  Name = 
REMARK  6 active torsions:
REMARK  status: ('A' for Active; 'I' for Inactive)
REMARK    1  A    between atoms: C_2  and  C_3
REMARK    2  A    between atoms: C_2  and  C_24
REMARK    3  A    between atoms: C_3  and  O_4
REMARK    4  A    between atoms: O_4  and  C_5
REMARK    5  A    between atoms: C_5  and  C_7
REMARK    6  A    between atoms: C_14  and  C_15
REMARK                            x       y       z     vdW  Elec       q    Type
REMARK                         _______ _______ _______ _____ _____    ______ ____
ROOT
ATOM      1  C   UNL     1      -2.778  13.342  21.343  0.00  0.00    +0.000 C 
ATOM      2  C   UNL     1      -2.004  13.712  20.093  0.00  0.00    +0.000 C 
ATOM      3  C   UNL     1      -1.134  12.501  19.834  0.00  0.00    +0.000 C 
ATOM      4  O   UNL     1      -0.552  12.342  18.775  0.00  0.00    +0.000 OA
ATOM      5  N   UNL     1      -1.103  11.738  21.003  0.00  0.00    +0.000 N 
ATOM      6  C   UNL     1      -0.330  10.594  21.072  0.00  0.00    +0.000 A 
ATOM      7  N   UNL     1       0.336  10.023  20.096  0.00  0.00    +0.000 NA
ATOM      8  C   UNL     1       0.999   8.894  20.552  0.00  0.00    +0.000 A 
ATOM      9  C   UNL     1       0.857   8.654  21.905  0.00  0.00    +0.000 A 
ATOM     10  S   UNL     1      -0.180   9.823  22.599  0.00  0.00    +0.000 S 
ATOM     11  C   UNL     1      -1.882  12.350  22.054  0.00  0.00    +0.000 C 
ENDROOT
BRANCH   8  12
ATOM     12  C   UNL     1       1.808   8.070  19.661  0.00  0.00    +0.000 A 
ATOM     13  C   UNL     1       2.209   6.791  20.070  0.00  0.00    +0.000 A 
ATOM     14  C   UNL     1       2.966   5.977  19.225  0.00  0.00    +0.000 A 
ATOM     15  C   UNL     1       3.345   6.440  17.964  0.00  0.00    +0.000 A 
ATOM     16  C   UNL     1       2.970   7.715  17.552  0.00  0.00    +0.000 A 
ATOM     17  C   UNL     1       2.207   8.528  18.395  0.00  0.00    +0.000 A 
ENDBRANCH   8  12
BRANCH   1  18
ATOM     18  C   UNL     1      -4.136  12.747  21.047  0.00  0.00    +0.000 C 
ATOM     19  O   UNL     1      -4.854  12.255  21.908  0.00  0.00    +0.000 OA
BRANCH  18  20
ATOM     20  O   UNL     1      -4.423  12.760  19.718  0.00  0.00    +0.000 OA
BRANCH  20  21
ATOM     21  C   UNL     1      -5.779  12.412  19.399  0.00  0.00    +0.000 C 
BRANCH  21  23
ATOM     22  O   UNL     1      -6.726  10.343  18.575  0.00  0.00    +0.000 OA
ATOM     23  C   UNL     1      -5.781  11.134  18.565  0.00  0.00    +0.000 C 
BRANCH  23  24
ATOM     24  C   UNL     1      -4.593  10.799  17.740  0.00  0.00    +0.000 A 
ATOM     25  C   UNL     1      -3.567   9.967  18.199  0.00  0.00    +0.000 A 
ATOM     26  C   UNL     1      -2.456   9.723  17.389  0.00  0.00    +0.000 A 
ATOM     27  C   UNL     1      -2.367  10.303  16.123  0.00  0.00    +0.000 A 
ATOM     28  C   UNL     1      -3.386  11.131  15.661  0.00  0.00    +0.000 A 
ATOM     29  C   UNL     1      -4.493  11.384  16.466  0.00  0.00    +0.000 A 
ENDBRANCH  23  24
ENDBRANCH  21  23
ENDBRANCH  20  21
ENDBRANCH  18  20
ENDBRANCH   1  18
TORSDOF 6
ENDMDL
MODEL 3
REMARK VINA RESULT:      -7.1      5.591     10.305
REMARK  Name = 
REMARK  6 active torsions:
REMARK  status: ('A' for Active; 'I' for Inactive)
REMARK    1  A    between atoms: C_2  and  C_3
REMARK    2  A    between atoms: C_2  and  C_24
REMARK    3  A    between atoms: C_3  and  O_4
REMARK    4  A    between atoms: O_4  and  C_5
REMARK    5  A    between atoms: C_5  and  C_7
REMARK    6  A    between atoms: C_14  and  C_15
REMARK                            x       y       z     vdW  Elec       q    Type
REMARK                         _______ _______ _______ _____ _____    ______ ____
ROOT
ATOM      1  C   UNL     1       5.916   4.490  17.195  0.00  0.00    +0.000 C 
ATOM      2  C   UNL     1       5.422   5.579  16.264  0.00  0.00    +0.000 C 
ATOM      3  C   UNL     1       4.451   6.369  17.115  0.00  0.00    +0.000 C 
ATOM      4  O   UNL     1       4.039   7.464  16.773  0.00  0.00    +0.000 OA
ATOM      5  N   UNL     1       4.120   5.588  18.224  0.00  0.00    +0.000 N 
ATOM      6  C   UNL     1       3.198   6.041  19.149  0.00  0.00    +0.000 A 
ATOM      7  N   UNL     1       2.635   7.225  19.198  0.00  0.00    +0.000 NA
ATOM      8  C   UNL     1       1.757   7.305  20.268  0.00  0.00    +0.000 A 
ATOM      9  C   UNL     1       1.635   6.139  20.997  0.00  0.00    +0.000 A 
ATOM     10  S   UNL     1       2.690   4.947  20.371  0.00  0.00    +0.000 S 
ATOM     11  C   UNL     1       4.787   4.307  18.187  0.00  0.00    +0.000 C 
ENDROOT
BRANCH   8  12
ATOM     12  C   UNL     1       1.005   8.522  20.551  0.00  0.00    +0.000 A 
ATOM     13  C   UNL     1       0.888   9.512  19.566  0.00  0.00    +0.000 A 
ATOM     14  C   UNL     1       0.156  10.676  19.808  0.00  0.00    +0.000 A 
ATOM     15  C   UNL     1      -0.459  10.871  21.046  0.00  0.00    +0.000 A 
ATOM     16  C   UNL     1      -0.335   9.905  22.040  0.00  0.00    +0.000 A 
ATOM     17  C   UNL     1       0.393   8.737  21.797  0.00  0.00    +0.000 A 
ENDBRANCH   8  12
BRANCH   1  18
ATOM     18  C   UNL     1       7.211   4.845  17.890  0.00  0.00    +0.000 C 
ATOM     19  O   UNL     1       8.248   4.211  17.740  0.00  0.00    +0.000 OA
BRANCH  18  20
ATOM     20  O   UNL     1       7.065   5.892  18.744  0.00  0.00    +0.000 OA
BRANCH  20  21
ATOM     21  C   UNL     1       8.208   6.757  18.826  0.00  0.00    +0.000 C 
BRANCH  21  23
ATOM     22  O   UNL     1       7.446   7.837  16.800  0.00  0.00    +0.000 OA
ATOM     23  C   UNL     1       7.996   7.949  17.897  0.00  0.00    +0.000 C 
BRANCH  23  24
ATOM     24  C   UNL     1       8.501   9.286  18.297  0.00  0.00    +0.000 A 
ATOM     25  C   UNL     1       9.265   9.488  19.452  0.00  0.00    +0.000 A 
ATOM     26  C   UNL     1       9.675  10.777  19.795  0.00  0.00    +0.000 A 
ATOM     27  C   UNL     1       9.330  11.864  18.990  0.00  0.00    +0.000 A 
ATOM     28  C   UNL     1       8.572  11.668  17.840  0.00  0.00    +0.000 A 
ATOM     29  C   UNL     1       8.153  10.386  17.495  0.00  0.00    +0.000 A 
ENDBRANCH  23  24
ENDBRANCH  21  23
ENDBRANCH  20  21
ENDBRANCH  18  20
ENDBRANCH   1  18
TORSDOF 6
ENDMDL
MODEL 4
REMARK VINA RESULT:      -7.1      3.678      7.766
REMARK  Name = 
REMARK  6 active torsions:
REMARK  status: ('A' for Active; 'I' for Inactive)
REMARK    1  A    between atoms: C_2  and  C_3
REMARK    2  A    between atoms: C_2  and  C_24
REMARK    3  A    between atoms: C_3  and  O_4
REMARK    4  A    between atoms: O_4  and  C_5
REMARK    5  A    between atoms: C_5  and  C_7
REMARK    6  A    between atoms: C_14  and  C_15
REMARK                            x       y       z     vdW  Elec       q    Type
REMARK                         _______ _______ _______ _____ _____    ______ ____
ROOT
ATOM      1  C   UNL     1      -0.303   9.791  21.472  0.00  0.00    +0.000 C 
ATOM      2  C   UNL     1      -0.727   9.810  20.017  0.00  0.00    +0.000 C 
ATOM      3  C   UNL     1      -0.472  11.237  19.584  0.00  0.00    +0.000 C 
ATOM      4  O   UNL     1      -0.471  11.562  18.409  0.00  0.00    +0.000 OA
ATOM      5  N   UNL     1      -0.332  12.016  20.734  0.00  0.00    +0.000 N 
ATOM      6  C   UNL     1      -0.147  13.382  20.637  0.00  0.00    +0.000 A 
ATOM      7  N   UNL     1       0.040  14.085  19.545  0.00  0.00    +0.000 NA
ATOM      8  C   UNL     1       0.180  15.430  19.847  0.00  0.00    +0.000 A 
ATOM      9  C   UNL     1       0.047  15.733  21.187  0.00  0.00    +0.000 A 
ATOM     10  S   UNL     1      -0.189  14.299  22.088  0.00  0.00    +0.000 S 
ATOM     11  C   UNL     1      -0.488  11.222  21.932  0.00  0.00    +0.000 C 
ENDROOT
BRANCH   8  12
ATOM     12  C   UNL     1       0.407  16.428  18.807  0.00  0.00    +0.000 A 
ATOM     13  C   UNL     1       1.711  16.687  18.365  0.00  0.00    +0.000 A 
ATOM     14  C   UNL     1       1.950  17.623  17.357  0.00  0.00    +0.000 A 
ATOM     15  C   UNL     1       0.886  18.323  16.787  0.00  0.00    +0.000 A 
ATOM     16  C   UNL     1      -0.413  18.090  17.229  0.00  0.00    +0.000 A 
ATOM     17  C   UNL     1      -0.653  17.148  18.234  0.00  0.00    +0.000 A 
ENDBRANCH   8  12
BRANCH   1  18
ATOM     18  C   UNL     1       1.123   9.327  21.670  0.00  0.00    +0.000 C 
ATOM     19  O   UNL     1       1.810   9.664  22.626  0.00  0.00    +0.000 OA
BRANCH  18  20
ATOM     20  O   UNL     1       1.562   8.564  20.635  0.00  0.00    +0.000 OA
BRANCH  20  21
ATOM     21  C   UNL     1       1.523   7.150  20.881  0.00  0.00    +0.000 C 
BRANCH  21  23
ATOM     22  O   UNL     1       2.960   7.004  18.939  0.00  0.00    +0.000 OA
ATOM     23  C   UNL     1       2.203   6.426  19.722  0.00  0.00    +0.000 C 
BRANCH  23  24
ATOM     24  C   UNL     1       1.922   4.987  19.493  0.00  0.00    +0.000 A 
ATOM     25  C   UNL     1       2.097   4.373  18.249  0.00  0.00    +0.000 A 
ATOM     26  C   UNL     1       1.776   3.024  18.089  0.00  0.00    +0.000 A 
ATOM     27  C   UNL     1       1.284   2.285  19.166  0.00  0.00    +0.000 A 
ATOM     28  C   UNL     1       1.109   2.891  20.406  0.00  0.00    +0.000 A 
ATOM     29  C   UNL     1       1.421   4.237  20.571  0.00  0.00    +0.000 A 
ENDBRANCH  23  24
ENDBRANCH  21  23
ENDBRANCH  20  21
ENDBRANCH  18  20
ENDBRANCH   1  18
TORSDOF 6
ENDMDL
MODEL 5
REMARK VINA RESULT:      -7.0      4.515      8.987
REMARK  Name = 
REMARK  6 active torsions:
REMARK  status: ('A' for Active; 'I' for Inactive)
REMARK    1  A    between atoms: C_2  and  C_3
REMARK    2  A    between atoms: C_2  and  C_24
REMARK    3  A    between atoms: C_3  and  O_4
REMARK    4  A    between atoms: O_4  and  C_5
REMARK    5  A    between atoms: C_5  and  C_7
REMARK    6  A    between atoms: C_14  and  C_15
REMARK                            x       y       z     vdW  Elec       q    Type
REMARK                         _______ _______ _______ _____ _____    ______ ____
ROOT
ATOM      1  C   UNL     1       3.497   6.155  17.772  0.00  0.00    +0.000 C 
ATOM      2  C   UNL     1       3.232   7.358  16.888  0.00  0.00    +0.000 C 
ATOM      3  C   UNL     1       2.591   8.360  17.824  0.00  0.00    +0.000 C 
ATOM      4  O   UNL     1       2.461   9.532  17.519  0.00  0.00    +0.000 OA
ATOM      5  N   UNL     1       2.165   7.672  18.962  0.00  0.00    +0.000 N 
ATOM      6  C   UNL     1       1.486   8.336  19.967  0.00  0.00    +0.000 A 
ATOM      7  N   UNL     1       1.270   9.626  20.065  0.00  0.00    +0.000 NA
ATOM      8  C   UNL     1       0.547   9.915  21.212  0.00  0.00    +0.000 A 
ATOM      9  C   UNL     1       0.181   8.809  21.952  0.00  0.00    +0.000 A 
ATOM     10  S   UNL     1       0.815   7.391  21.235  0.00  0.00    +0.000 S 
ATOM     11  C   UNL     1       2.455   6.261  18.866  0.00  0.00    +0.000 C 
ENDROOT
BRANCH   8  12
ATOM     12  C   UNL     1       0.179  11.283  21.560  0.00  0.00    +0.000 A 
ATOM     13  C   UNL     1      -0.816  11.513  22.519  0.00  0.00    +0.000 A 
ATOM     14  C   UNL     1      -1.170  12.814  22.882  0.00  0.00    +0.000 A 
ATOM     15  C   UNL     1      -0.539  13.903  22.280  0.00  0.00    +0.000 A 
ATOM     16  C   UNL     1       0.438  13.691  21.312  0.00  0.00    +0.000 A 
ATOM     17  C   UNL     1       0.796  12.388  20.952  0.00  0.00    +0.000 A 
ENDBRANCH   8  12
BRANCH   1  18
ATOM     18  C   UNL     1       4.897   6.133  18.343  0.00  0.00    +0.000 C 
ATOM     19  O   UNL     1       5.812   6.816  17.900  0.00  0.00    +0.000 OA
BRANCH  18  20
ATOM     20  O   UNL     1       5.029   5.223  19.344  0.00  0.00    +0.000 OA
BRANCH  20  21
ATOM     21  C   UNL     1       5.411   3.910  18.906  0.00  0.00    +0.000 C 
BRANCH  21  23
ATOM     22  O   UNL     1       5.209   1.963  20.330  0.00  0.00    +0.000 OA
ATOM     23  C   UNL     1       4.643   2.873  19.720  0.00  0.00    +0.000 C 
BRANCH  23  24
ATOM     24  C   UNL     1       3.159   2.924  19.755  0.00  0.00    +0.000 A 
ATOM     25  C   UNL     1       2.445   3.277  20.905  0.00  0.00    +0.000 A 
ATOM     26  C   UNL     1       1.049   3.268  20.884  0.00  0.00    +0.000 A 
ATOM     27  C   UNL     1       0.364   2.911  19.722  0.00  0.00    +0.000 A 
ATOM     28  C   UNL     1       1.071   2.561  18.575  0.00  0.00    +0.000 A 
ATOM     29  C   UNL     1       2.462   2.561  18.590  0.00  0.00    +0.000 A 
ENDBRANCH  23  24
ENDBRANCH  21  23
ENDBRANCH  20  21
ENDBRANCH  18  20
ENDBRANCH   1  18
TORSDOF 6
ENDMDL
MODEL 6
REMARK VINA RESULT:      -7.0      4.308      9.291
REMARK  Name = 
REMARK  6 active torsions:
REMARK  status: ('A' for Active; 'I' for Inactive)
REMARK    1  A    between atoms: C_2  and  C_3
REMARK    2  A    between atoms: C_2  and  C_24
REMARK    3  A    between atoms: C_3  and  O_4
REMARK    4  A    between atoms: O_4  and  C_5
REMARK    5  A    between atoms: C_5  and  C_7
REMARK    6  A    between atoms: C_14  and  C_15
REMARK                            x       y       z     vdW  Elec       q    Type
REMARK                         _______ _______ _______ _____ _____    ______ ____
ROOT
ATOM      1  C   UNL     1       3.226   5.297  19.129  0.00  0.00    +0.000 C 
ATOM      2  C   UNL     1       2.658   5.361  20.533  0.00  0.00    +0.000 C 
ATOM      3  C   UNL     1       1.815   6.618  20.525  0.00  0.00    +0.000 C 
ATOM      4  O   UNL     1       1.014   6.861  21.411  0.00  0.00    +0.000 OA
ATOM      5  N   UNL     1       2.192   7.380  19.418  0.00  0.00    +0.000 N 
ATOM      6  C   UNL     1       1.621   8.619  19.193  0.00  0.00    +0.000 A 
ATOM      7  N   UNL     1       0.628   9.169  19.851  0.00  0.00    +0.000 NA
ATOM      8  C   UNL     1       0.337  10.423  19.337  0.00  0.00    +0.000 A 
ATOM      9  C   UNL     1       1.164  10.827  18.308  0.00  0.00    +0.000 A 
ATOM     10  S   UNL     1       2.278   9.585  17.934  0.00  0.00    +0.000 S 
ATOM     11  C   UNL     1       3.250   6.740  18.671  0.00  0.00    +0.000 C 
ENDROOT
BRANCH   8  12
ATOM     12  C   UNL     1      -0.735  11.245  19.888  0.00  0.00    +0.000 A 
ATOM     13  C   UNL     1      -1.879  11.502  19.120  0.00  0.00    +0.000 A 
ATOM     14  C   UNL     1      -2.926  12.269  19.635  0.00  0.00    +0.000 A 
ATOM     15  C   UNL     1      -2.836  12.801  20.922  0.00  0.00    +0.000 A 
ATOM     16  C   UNL     1      -1.698  12.570  21.689  0.00  0.00    +0.000 A 
ATOM     17  C   UNL     1      -0.652  11.797  21.176  0.00  0.00    +0.000 A 
ENDBRANCH   8  12
BRANCH   1  18
ATOM     18  C   UNL     1       2.407   4.434  18.195  0.00  0.00    +0.000 C 
ATOM     19  O   UNL     1       1.349   3.911  18.521  0.00  0.00    +0.000 OA
BRANCH  18  20
ATOM     20  O   UNL     1       3.018   4.255  16.994  0.00  0.00    +0.000 OA
BRANCH  20  21
ATOM     21  C   UNL     1       4.291   3.595  17.067  0.00  0.00    +0.000 C 
BRANCH  21  23
ATOM     22  O   UNL     1       5.463   4.370  15.097  0.00  0.00    +0.000 OA
ATOM     23  C   UNL     1       5.327   4.431  16.321  0.00  0.00    +0.000 C 
BRANCH  23  24
ATOM     24  C   UNL     1       6.236   5.321  17.086  0.00  0.00    +0.000 A 
ATOM     25  C   UNL     1       6.516   6.633  16.687  0.00  0.00    +0.000 A 
ATOM     26  C   UNL     1       7.411   7.406  17.428  0.00  0.00    +0.000 A 
ATOM     27  C   UNL     1       8.025   6.878  18.565  0.00  0.00    +0.000 A 
ATOM     28  C   UNL     1       7.749   5.574  18.965  0.00  0.00    +0.000 A 
ATOM     29  C   UNL     1       6.862   4.795  18.228  0.00  0.00    +0.000 A 
ENDBRANCH  23  24
ENDBRANCH  21  23
ENDBRANCH  20  21
ENDBRANCH  18  20
ENDBRANCH   1  18
TORSDOF 6
ENDMDL
MODEL 7
REMARK VINA RESULT:      -7.0      0.391      1.318
REMARK  Name = 
REMARK  6 active torsions:
REMARK  status: ('A' for Active; 'I' for Inactive)
REMARK    1  A    between atoms: C_2  and  C_3
REMARK    2  A    between atoms: C_2  and  C_24
REMARK    3  A    between atoms: C_3  and  O_4
REMARK    4  A    between atoms: O_4  and  C_5
REMARK    5  A    between atoms: C_5  and  C_7
REMARK    6  A    between atoms: C_14  and  C_15
REMARK                            x       y       z     vdW  Elec       q    Type
REMARK                         _______ _______ _______ _____ _____    ______ ____
ROOT
ATOM      1  C   UNL     1      -3.082  13.452  21.698  0.00  0.00    +0.000 C 
ATOM      2  C   UNL     1      -2.327  13.875  20.454  0.00  0.00    +0.000 C 
ATOM      3  C   UNL     1      -1.430  12.693  20.155  0.00  0.00    +0.000 C 
ATOM      4  O   UNL     1      -0.852  12.577  19.089  0.00  0.00    +0.000 OA
ATOM      5  N   UNL     1      -1.372  11.898  21.302  0.00  0.00    +0.000 N 
ATOM      6  C   UNL     1      -0.572  10.772  21.333  0.00  0.00    +0.000 A 
ATOM      7  N   UNL     1       0.100  10.244  20.338  0.00  0.00    +0.000 NA
ATOM      8  C   UNL     1       0.793   9.119  20.757  0.00  0.00    +0.000 A 
ATOM      9  C   UNL     1       0.668   8.838  22.103  0.00  0.00    +0.000 A 
ATOM     10  S   UNL     1      -0.392   9.962  22.837  0.00  0.00    +0.000 S 
ATOM     11  C   UNL     1      -2.158  12.462  22.375  0.00  0.00    +0.000 C 
ENDROOT
BRANCH   8  12
ATOM     12  C   UNL     1       1.615   8.340  19.838  0.00  0.00    +0.000 A 
ATOM     13  C   UNL     1       2.139   7.107  20.248  0.00  0.00    +0.000 A 
ATOM     14  C   UNL     1       2.912   6.336  19.378  0.00  0.00    +0.000 A 
ATOM     15  C   UNL     1       3.181   6.795  18.088  0.00  0.00    +0.000 A 
ATOM     16  C   UNL     1       2.684   8.027  17.673  0.00  0.00    +0.000 A 
ATOM     17  C   UNL     1       1.905   8.798  18.542  0.00  0.00    +0.000 A 
ENDBRANCH   8  12
BRANCH   1  18
ATOM     18  C   UNL     1      -4.428  12.833  21.395  0.00  0.00    +0.000 C 
ATOM     19  O   UNL     1      -5.219  12.488  22.264  0.00  0.00    +0.000 OA
BRANCH  18  20
ATOM     20  O   UNL     1      -4.616  12.642  20.062  0.00  0.00    +0.000 OA
BRANCH  20  21
ATOM     21  C   UNL     1      -5.778  11.867  19.730  0.00  0.00    +0.000 C 
BRANCH  21  23
ATOM     22  O   UNL     1      -6.848  11.961  17.561  0.00  0.00    +0.000 OA
ATOM     23  C   UNL     1      -5.839  11.688  18.216  0.00  0.00    +0.000 C 
BRANCH  23  24
ATOM     24  C   UNL     1      -4.666  11.130  17.498  0.00  0.00    +0.000 A 
ATOM     25  C   UNL     1      -4.311  11.533  16.206  0.00  0.00    +0.000 A 
ATOM     26  C   UNL     1      -3.219  10.941  15.570  0.00  0.00    +0.000 A 
ATOM     27  C   UNL     1      -2.478   9.951  16.218  0.00  0.00    +0.000 A 
ATOM     28  C   UNL     1      -2.826   9.548  17.503  0.00  0.00    +0.000 A 
ATOM     29  C   UNL     1      -3.918  10.129  18.141  0.00  0.00    +0.000 A 
ENDBRANCH  23  24
ENDBRANCH  21  23
ENDBRANCH  20  21
ENDBRANCH  18  20
ENDBRANCH   1  18
TORSDOF 6
ENDMDL
MODEL 8
REMARK VINA RESULT:      -7.0      4.779      9.637
REMARK  Name = 
REMARK  6 active torsions:
REMARK  status: ('A' for Active; 'I' for Inactive)
REMARK    1  A    between atoms: C_2  and  C_3
REMARK    2  A    between atoms: C_2  and  C_24
REMARK    3  A    between atoms: C_3  and  O_4
REMARK    4  A    between atoms: O_4  and  C_5
REMARK    5  A    between atoms: C_5  and  C_7
REMARK    6  A    between atoms: C_14  and  C_15
REMARK                            x       y       z     vdW  Elec       q    Type
REMARK                         _______ _______ _______ _____ _____    ______ ____
ROOT
ATOM      1  C   UNL     1       3.770   4.484  19.387  0.00  0.00    +0.000 C 
ATOM      2  C   UNL     1       2.857   4.593  20.592  0.00  0.00    +0.000 C 
ATOM      3  C   UNL     1       2.035   5.832  20.312  0.00  0.00    +0.000 C 
ATOM      4  O   UNL     1       1.030   6.095  20.949  0.00  0.00    +0.000 OA
ATOM      5  N   UNL     1       2.681   6.558  19.309  0.00  0.00    +0.000 N 
ATOM      6  C   UNL     1       2.178   7.776  18.891  0.00  0.00    +0.000 A 
ATOM      7  N   UNL     1       1.044   8.333  19.245  0.00  0.00    +0.000 NA
ATOM      8  C   UNL     1       0.887   9.561  18.621  0.00  0.00    +0.000 A 
ATOM      9  C   UNL     1       1.950   9.939  17.825  0.00  0.00    +0.000 A 
ATOM     10  S   UNL     1       3.133   8.704  17.806  0.00  0.00    +0.000 S 
ATOM     11  C   UNL     1       3.901   5.908  18.890  0.00  0.00    +0.000 C 
ENDROOT
BRANCH   8  12
ATOM     12  C   UNL     1      -0.297  10.384  18.840  0.00  0.00    +0.000 A 
ATOM     13  C   UNL     1      -1.366  10.318  17.936  0.00  0.00    +0.000 A 
ATOM     14  C   UNL     1      -2.518  11.082  18.136  0.00  0.00    +0.000 A 
ATOM     15  C   UNL     1      -2.609  11.932  19.239  0.00  0.00    +0.000 A 
ATOM     16  C   UNL     1      -1.548  12.022  20.135  0.00  0.00    +0.000 A 
ATOM     17  C   UNL     1      -0.397  11.253  19.938  0.00  0.00    +0.000 A 
ENDBRANCH   8  12
BRANCH   1  18
ATOM     18  C   UNL     1       3.228   3.571  18.310  0.00  0.00    +0.000 C 
ATOM     19  O   UNL     1       2.061   3.205  18.267  0.00  0.00    +0.000 OA
BRANCH  18  20
ATOM     20  O   UNL     1       4.199   3.155  17.454  0.00  0.00    +0.000 OA
BRANCH  20  21
ATOM     21  C   UNL     1       4.398   4.011  16.320  0.00  0.00    +0.000 C 
BRANCH  21  23
ATOM     22  O   UNL     1       6.506   3.566  15.216  0.00  0.00    +0.000 OA
ATOM     23  C   UNL     1       5.897   4.188  16.089  0.00  0.00    +0.000 C 
BRANCH  23  24
ATOM     24  C   UNL     1       6.667   5.107  16.965  0.00  0.00    +0.000 A 
ATOM     25  C   UNL     1       7.308   4.675  18.131  0.00  0.00    +0.000 A 
ATOM     26  C   UNL     1       7.983   5.597  18.933  0.00  0.00    +0.000 A 
ATOM     27  C   UNL     1       8.024   6.946  18.575  0.00  0.00    +0.000 A 
ATOM     28  C   UNL     1       7.389   7.379  17.415  0.00  0.00    +0.000 A 
ATOM     29  C   UNL     1       6.709   6.467  16.614  0.00  0.00    +0.000 A 
ENDBRANCH  23  24
ENDBRANCH  21  23
ENDBRANCH  20  21
ENDBRANCH  18  20
ENDBRANCH   1  18
TORSDOF 6
ENDMDL
MODEL 9
REMARK VINA RESULT:      -6.9      2.076      3.530
REMARK  Name = 
REMARK  6 active torsions:
REMARK  status: ('A' for Active; 'I' for Inactive)
REMARK    1  A    between atoms: C_2  and  C_3
REMARK    2  A    between atoms: C_2  and  C_24
REMARK    3  A    between atoms: C_3  and  O_4
REMARK    4  A    between atoms: O_4  and  C_5
REMARK    5  A    between atoms: C_5  and  C_7
REMARK    6  A    between atoms: C_14  and  C_15
REMARK                            x       y       z     vdW  Elec       q    Type
REMARK                         _______ _______ _______ _____ _____    ______ ____
ROOT
ATOM      1  C   UNL     1      -0.171  12.072  19.931  0.00  0.00    +0.000 C 
ATOM      2  C   UNL     1       0.909  12.405  18.921  0.00  0.00    +0.000 C 
ATOM      3  C   UNL     1       1.509  11.060  18.576  0.00  0.00    +0.000 C 
ATOM      4  O   UNL     1       2.244  10.911  17.615  0.00  0.00    +0.000 OA
ATOM      5  N   UNL     1       1.120  10.151  19.562  0.00  0.00    +0.000 N 
ATOM      6  C   UNL     1       1.577   8.846  19.531  0.00  0.00    +0.000 A 
ATOM      7  N   UNL     1       2.279   8.271  18.585  0.00  0.00    +0.000 NA
ATOM      8  C   UNL     1       2.554   6.952  18.913  0.00  0.00    +0.000 A 
ATOM      9  C   UNL     1       2.084   6.561  20.151  0.00  0.00    +0.000 A 
ATOM     10  S   UNL     1       1.225   7.846  20.882  0.00  0.00    +0.000 S 
ATOM     11  C   UNL     1       0.304  10.784  20.572  0.00  0.00    +0.000 C 
ENDROOT
BRANCH   8  12
ATOM     12  C   UNL     1       3.317   6.085  18.022  0.00  0.00    +0.000 A 
ATOM     13  C   UNL     1       4.355   6.623  17.250  0.00  0.00    +0.000 A 
ATOM     14  C   UNL     1       5.112   5.808  16.405  0.00  0.00    +0.000 A 
ATOM     15  C   UNL     1       4.830   4.445  16.313  0.00  0.00    +0.000 A 
ATOM     16  C   UNL     1       3.790   3.900  17.060  0.00  0.00    +0.000 A 
ATOM     17  C   UNL     1       3.035   4.714  17.910  0.00  0.00    +0.000 A 
ENDBRANCH   8  12
BRANCH   1  18
ATOM     18  C   UNL     1      -1.539  11.907  19.307  0.00  0.00    +0.000 C 
ATOM     19  O   UNL     1      -2.582  12.052  19.932  0.00  0.00    +0.000 OA
BRANCH  18  20
ATOM     20  O   UNL     1      -1.466  11.514  18.008  0.00  0.00    +0.000 OA
BRANCH  20  21
ATOM     21  C   UNL     1      -2.316  10.407  17.674  0.00  0.00    +0.000 C 
BRANCH  21  23
ATOM     22  O   UNL     1      -3.297  11.078  15.566  0.00  0.00    +0.000 OA
ATOM     23  C   UNL     1      -3.447  10.903  16.777  0.00  0.00    +0.000 C 
BRANCH  23  24
ATOM     24  C   UNL     1      -4.766  11.228  17.376  0.00  0.00    +0.000 A 
ATOM     25  C   UNL     1      -5.378  10.415  18.336  0.00  0.00    +0.000 A 
ATOM     26  C   UNL     1      -6.638  10.755  18.831  0.00  0.00    +0.000 A 
ATOM     27  C   UNL     1      -7.288  11.903  18.374  0.00  0.00    +0.000 A 
ATOM     28  C   UNL     1      -6.683  12.714  17.420  0.00  0.00    +0.000 A 
ATOM     29  C   UNL     1      -5.430  12.379  16.917  0.00  0.00    +0.000 A 
ENDBRANCH  23  24
ENDBRANCH  21  23
ENDBRANCH  20  21
ENDBRANCH  18  20
ENDBRANCH   1  18
TORSDOF 6
ENDMDL
