MODEL 1
REMARK VINA RESULT:      -9.3      0.000      0.000
REMARK  Name = 
REMARK  4 active torsions:
REMARK  status: ('A' for Active; 'I' for Inactive)
REMARK    1  A    between atoms: C_7  and  N_8
REMARK    2  A    between atoms: C_14  and  C_15
REMARK    3  A    between atoms: N_17  and  C_18
REMARK    4  A    between atoms: C_18  and  C_19
REMARK                            x       y       z     vdW  Elec       q    Type
REMARK                         _______ _______ _______ _____ _____    ______ ____
ROOT
ATOM      1  N   UNL     1       7.681   6.873  17.393  0.00  0.00    +0.000 NA
ATOM      2  C   UNL     1       7.038   6.086  16.595  0.00  0.00    +0.000 A 
ATOM      3  O   UNL     1       7.607   5.870  15.356  0.00  0.00    +0.000 OA
ATOM      4  C   UNL     1       6.990   5.028  14.416  0.00  0.00    +0.000 A 
ATOM      5  C   UNL     1       7.629   4.870  13.186  0.00  0.00    +0.000 A 
ATOM      6  C   UNL     1       7.050   4.051  12.218  0.00  0.00    +0.000 A 
ATOM      7  C   UNL     1       5.837   3.403  12.499  0.00  0.00    +0.000 A 
ATOM      8  C   UNL     1       5.204   3.564  13.744  0.00  0.00    +0.000 A 
ATOM      9  C   UNL     1       5.789   4.388  14.712  0.00  0.00    +0.000 A 
ATOM     10  C   UNL     1       5.186   4.606  16.020  0.00  0.00    +0.000 A 
ATOM     11  C   UNL     1       5.764   5.415  16.926  0.00  0.00    +0.000 A 
ATOM     12  H   UNL     1       8.521   7.183  16.884  0.00  0.00    +0.000 HD
ENDROOT
BRANCH  11  13
ATOM     13  C   UNL     1       5.061   5.576  18.244  0.00  0.00    +0.000 C 
ATOM     14  O   UNL     1       5.645   5.394  19.309  0.00  0.00    +0.000 OA
ATOM     15  N   UNL     1       3.743   5.944  18.167  0.00  0.00    +0.000 N 
ATOM     16  H   UNL     1       3.337   6.093  17.242  0.00  0.00    +0.000 HD
BRANCH  15  17
ATOM     17  C   UNL     1       2.921   6.215  19.323  0.00  0.00    +0.000 C 
BRANCH  17  18
ATOM     18  C   UNL     1       2.286   4.955  19.852  0.00  0.00    +0.000 A 
ATOM     19  C   UNL     1       2.462   4.580  21.192  0.00  0.00    +0.000 A 
ATOM     20  C   UNL     1       1.877   3.412  21.685  0.00  0.00    +0.000 A 
ATOM     21  C   UNL     1       1.117   2.601  20.843  0.00  0.00    +0.000 A 
ATOM     22  C   UNL     1       0.942   2.959  19.508  0.00  0.00    +0.000 A 
ATOM     23  C   UNL     1       1.527   4.127  19.011  0.00  0.00    +0.000 A 
ENDBRANCH  17  18
ENDBRANCH  15  17
ENDBRANCH  11  13
BRANCH   7  24
ATOM     24  N   UNL     1       5.223   2.546  11.474  0.00  0.00    +0.000 N 
ATOM     25  O   UNL     1       5.830   1.518  11.145  0.00  0.00    +0.000 OA
ATOM     26  O   UNL     1       4.135   2.905  11.003  0.00  0.00    +0.000 OA
ENDBRANCH   7  24
TORSDOF 4
ENDMDL
MODEL 2
REMARK VINA RESULT:      -8.9      1.250      1.503
REMARK  Name = 
REMARK  4 active torsions:
REMARK  status: ('A' for Active; 'I' for Inactive)
REMARK    1  A    between atoms: C_7  and  N_8
REMARK    2  A    between atoms: C_14  and  C_15
REMARK    3  A    between atoms: N_17  and  C_18
REMARK    4  A    between atoms: C_18  and  C_19
REMARK                            x       y       z     vdW  Elec       q    Type
REMARK                         _______ _______ _______ _____ _____    ______ ____
ROOT
ATOM      1  N   UNL     1       7.735   6.484  17.619  0.00  0.00    +0.000 NA
ATOM      2  C   UNL     1       7.176   5.672  16.783  0.00  0.00    +0.000 A 
ATOM      3  O   UNL     1       7.587   5.767  15.468  0.00  0.00    +0.000 OA
ATOM      4  C   UNL     1       7.044   4.927  14.481  0.00  0.00    +0.000 A 
ATOM      5  C   UNL     1       7.511   5.093  13.177  0.00  0.00    +0.000 A 
ATOM      6  C   UNL     1       6.995   4.289  12.162  0.00  0.00    +0.000 A 
ATOM      7  C   UNL     1       6.020   3.329  12.471  0.00  0.00    +0.000 A 
ATOM      8  C   UNL     1       5.561   3.165  13.790  0.00  0.00    +0.000 A 
ATOM      9  C   UNL     1       6.081   3.976  14.805  0.00  0.00    +0.000 A 
ATOM     10  C   UNL     1       5.647   3.865  16.191  0.00  0.00    +0.000 A 
ATOM     11  C   UNL     1       6.154   4.668  17.144  0.00  0.00    +0.000 A 
ATOM     12  H   UNL     1       8.395   7.057  17.073  0.00  0.00    +0.000 HD
ENDROOT
BRANCH  11  13
ATOM     13  C   UNL     1       5.639   4.478  18.543  0.00  0.00    +0.000 C 
ATOM     14  O   UNL     1       5.529   5.422  19.320  0.00  0.00    +0.000 OA
ATOM     15  N   UNL     1       5.301   3.192  18.876  0.00  0.00    +0.000 N 
ATOM     16  H   UNL     1       5.406   2.467  18.165  0.00  0.00    +0.000 HD
BRANCH  15  17
ATOM     17  C   UNL     1       4.724   2.822  20.146  0.00  0.00    +0.000 C 
BRANCH  17  18
ATOM     18  C   UNL     1       3.218   2.837  20.090  0.00  0.00    +0.000 A 
ATOM     19  C   UNL     1       2.470   3.207  21.217  0.00  0.00    +0.000 A 
ATOM     20  C   UNL     1       1.074   3.219  21.171  0.00  0.00    +0.000 A 
ATOM     21  C   UNL     1       0.411   2.853  20.001  0.00  0.00    +0.000 A 
ATOM     22  C   UNL     1       1.143   2.474  18.877  0.00  0.00    +0.000 A 
ATOM     23  C   UNL     1       2.539   2.461  18.921  0.00  0.00    +0.000 A 
ENDBRANCH  17  18
ENDBRANCH  15  17
ENDBRANCH  11  13
BRANCH   7  24
ATOM     24  N   UNL     1       5.471   2.486  11.398  0.00  0.00    +0.000 N 
ATOM     25  O   UNL     1       4.382   2.813  10.911  0.00  0.00    +0.000 OA
ATOM     26  O   UNL     1       6.136   1.501  11.047  0.00  0.00    +0.000 OA
ENDBRANCH   7  24
TORSDOF 4
ENDMDL
MODEL 3
REMARK VINA RESULT:      -8.8      1.566      2.756
REMARK  Name = 
REMARK  4 active torsions:
REMARK  status: ('A' for Active; 'I' for Inactive)
REMARK    1  A    between atoms: C_7  and  N_8
REMARK    2  A    between atoms: C_14  and  C_15
REMARK    3  A    between atoms: N_17  and  C_18
REMARK    4  A    between atoms: C_18  and  C_19
REMARK                            x       y       z     vdW  Elec       q    Type
REMARK                         _______ _______ _______ _____ _____    ______ ____
ROOT
ATOM      1  N   UNL     1       7.718   6.841  17.525  0.00  0.00    +0.000 NA
ATOM      2  C   UNL     1       7.065   6.069  16.720  0.00  0.00    +0.000 A 
ATOM      3  O   UNL     1       7.628   5.863  15.476  0.00  0.00    +0.000 OA
ATOM      4  C   UNL     1       6.999   5.037  14.529  0.00  0.00    +0.000 A 
ATOM      5  C   UNL     1       7.633   4.888  13.295  0.00  0.00    +0.000 A 
ATOM      6  C   UNL     1       7.043   4.087  12.320  0.00  0.00    +0.000 A 
ATOM      7  C   UNL     1       5.825   3.446  12.597  0.00  0.00    +0.000 A 
ATOM      8  C   UNL     1       5.198   3.598  13.846  0.00  0.00    +0.000 A 
ATOM      9  C   UNL     1       5.794   4.405  14.822  0.00  0.00    +0.000 A 
ATOM     10  C   UNL     1       5.197   4.613  16.134  0.00  0.00    +0.000 A 
ATOM     11  C   UNL     1       5.786   5.406  17.048  0.00  0.00    +0.000 A 
ATOM     12  H   UNL     1       8.559   7.150  17.016  0.00  0.00    +0.000 HD
ENDROOT
BRANCH  11  13
ATOM     13  C   UNL     1       5.089   5.558  18.370  0.00  0.00    +0.000 C 
ATOM     14  O   UNL     1       5.696   5.447  19.431  0.00  0.00    +0.000 OA
ATOM     15  N   UNL     1       3.749   5.833  18.301  0.00  0.00    +0.000 N 
ATOM     16  H   UNL     1       3.322   5.928  17.378  0.00  0.00    +0.000 HD
BRANCH  15  17
ATOM     17  C   UNL     1       2.924   6.082  19.460  0.00  0.00    +0.000 C 
BRANCH  17  18
ATOM     18  C   UNL     1       2.242   7.423  19.370  0.00  0.00    +0.000 A 
ATOM     19  C   UNL     1       1.578   7.956  20.484  0.00  0.00    +0.000 A 
ATOM     20  C   UNL     1       0.942   9.197  20.404  0.00  0.00    +0.000 A 
ATOM     21  C   UNL     1       0.954   9.914  19.209  0.00  0.00    +0.000 A 
ATOM     22  C   UNL     1       1.602   9.389  18.092  0.00  0.00    +0.000 A 
ATOM     23  C   UNL     1       2.239   8.148  18.169  0.00  0.00    +0.000 A 
ENDBRANCH  17  18
ENDBRANCH  15  17
ENDBRANCH  11  13
BRANCH   7  24
ATOM     24  N   UNL     1       5.200   2.606  11.564  0.00  0.00    +0.000 N 
ATOM     25  O   UNL     1       4.111   2.975  11.105  0.00  0.00    +0.000 OA
ATOM     26  O   UNL     1       5.803   1.582  11.216  0.00  0.00    +0.000 OA
ENDBRANCH   7  24
TORSDOF 4
ENDMDL
MODEL 4
REMARK VINA RESULT:      -8.8      1.176      1.614
REMARK  Name = 
REMARK  4 active torsions:
REMARK  status: ('A' for Active; 'I' for Inactive)
REMARK    1  A    between atoms: C_7  and  N_8
REMARK    2  A    between atoms: C_14  and  C_15
REMARK    3  A    between atoms: N_17  and  C_18
REMARK    4  A    between atoms: C_18  and  C_19
REMARK                            x       y       z     vdW  Elec       q    Type
REMARK                         _______ _______ _______ _____ _____    ______ ____
ROOT
ATOM      1  N   UNL     1       7.822   6.425  17.528  0.00  0.00    +0.000 NA
ATOM      2  C   UNL     1       7.226   5.617  16.714  0.00  0.00    +0.000 A 
ATOM      3  O   UNL     1       7.594   5.704  15.386  0.00  0.00    +0.000 OA
ATOM      4  C   UNL     1       7.009   4.868  14.420  0.00  0.00    +0.000 A 
ATOM      5  C   UNL     1       7.433   5.025  13.101  0.00  0.00    +0.000 A 
ATOM      6  C   UNL     1       6.875   4.225  12.106  0.00  0.00    +0.000 A 
ATOM      7  C   UNL     1       5.898   3.277  12.451  0.00  0.00    +0.000 A 
ATOM      8  C   UNL     1       5.482   3.122  13.785  0.00  0.00    +0.000 A 
ATOM      9  C   UNL     1       6.045   3.929  14.779  0.00  0.00    +0.000 A 
ATOM     10  C   UNL     1       5.656   3.828  16.179  0.00  0.00    +0.000 A 
ATOM     11  C   UNL     1       6.204   4.627  17.112  0.00  0.00    +0.000 A 
ATOM     12  H   UNL     1       8.470   6.988  16.960  0.00  0.00    +0.000 HD
ENDROOT
BRANCH  11  13
ATOM     13  C   UNL     1       5.734   4.447  18.528  0.00  0.00    +0.000 C 
ATOM     14  O   UNL     1       5.766   5.370  19.337  0.00  0.00    +0.000 OA
ATOM     15  N   UNL     1       5.268   3.197  18.838  0.00  0.00    +0.000 N 
ATOM     16  H   UNL     1       5.258   2.489  18.102  0.00  0.00    +0.000 HD
BRANCH  15  17
ATOM     17  C   UNL     1       4.709   2.849  20.124  0.00  0.00    +0.000 C 
BRANCH  17  18
ATOM     18  C   UNL     1       3.207   2.964  20.119  0.00  0.00    +0.000 A 
ATOM     19  C   UNL     1       2.528   3.332  18.949  0.00  0.00    +0.000 A 
ATOM     20  C   UNL     1       1.135   3.443  18.942  0.00  0.00    +0.000 A 
ATOM     21  C   UNL     1       0.408   3.199  20.105  0.00  0.00    +0.000 A 
ATOM     22  C   UNL     1       1.073   2.842  21.277  0.00  0.00    +0.000 A 
ATOM     23  C   UNL     1       2.465   2.730  21.287  0.00  0.00    +0.000 A 
ENDBRANCH  17  18
ENDBRANCH  15  17
ENDBRANCH  11  13
BRANCH   7  24
ATOM     24  N   UNL     1       5.304   2.438  11.399  0.00  0.00    +0.000 N 
ATOM     25  O   UNL     1       5.948   1.452  11.018  0.00  0.00    +0.000 OA
ATOM     26  O   UNL     1       4.195   2.770  10.959  0.00  0.00    +0.000 OA
ENDBRANCH   7  24
TORSDOF 4
ENDMDL
MODEL 5
REMARK VINA RESULT:      -8.3      0.837      1.424
REMARK  Name = 
REMARK  4 active torsions:
REMARK  status: ('A' for Active; 'I' for Inactive)
REMARK    1  A    between atoms: C_7  and  N_8
REMARK    2  A    between atoms: C_14  and  C_15
REMARK    3  A    between atoms: N_17  and  C_18
REMARK    4  A    between atoms: C_18  and  C_19
REMARK                            x       y       z     vdW  Elec       q    Type
REMARK                         _______ _______ _______ _____ _____    ______ ____
ROOT
ATOM      1  N   UNL     1       7.699   7.075  16.940  0.00  0.00    +0.000 NA
ATOM      2  C   UNL     1       7.027   6.272  16.183  0.00  0.00    +0.000 A 
ATOM      3  O   UNL     1       7.654   5.851  15.026  0.00  0.00    +0.000 OA
ATOM      4  C   UNL     1       7.012   4.975  14.135  0.00  0.00    +0.000 A 
ATOM      5  C   UNL     1       7.714   4.606  12.988  0.00  0.00    +0.000 A 
ATOM      6  C   UNL     1       7.114   3.745  12.070  0.00  0.00    +0.000 A 
ATOM      7  C   UNL     1       5.818   3.267  12.319  0.00  0.00    +0.000 A 
ATOM      8  C   UNL     1       5.121   3.640  13.481  0.00  0.00    +0.000 A 
ATOM      9  C   UNL     1       5.728   4.505  14.399  0.00  0.00    +0.000 A 
ATOM     10  C   UNL     1       5.063   4.939  15.620  0.00  0.00    +0.000 A 
ATOM     11  C   UNL     1       5.664   5.783  16.477  0.00  0.00    +0.000 A 
ATOM     12  H   UNL     1       8.603   7.232  16.472  0.00  0.00    +0.000 HD
ENDROOT
BRANCH  11  13
ATOM     13  C   UNL     1       4.893   6.173  17.706  0.00  0.00    +0.000 C 
ATOM     14  O   UNL     1       4.460   7.311  17.858  0.00  0.00    +0.000 OA
ATOM     15  N   UNL     1       4.707   5.174  18.626  0.00  0.00    +0.000 N 
ATOM     16  H   UNL     1       5.085   4.249  18.416  0.00  0.00    +0.000 HD
BRANCH  15  17
ATOM     17  C   UNL     1       3.934   5.335  19.835  0.00  0.00    +0.000 C 
BRANCH  17  18
ATOM     18  C   UNL     1       2.781   4.366  19.882  0.00  0.00    +0.000 A 
ATOM     19  C   UNL     1       2.223   3.870  18.695  0.00  0.00    +0.000 A 
ATOM     20  C   UNL     1       1.152   2.974  18.735  0.00  0.00    +0.000 A 
ATOM     21  C   UNL     1       0.622   2.573  19.959  0.00  0.00    +0.000 A 
ATOM     22  C   UNL     1       1.161   3.067  21.145  0.00  0.00    +0.000 A 
ATOM     23  C   UNL     1       2.233   3.963  21.109  0.00  0.00    +0.000 A 
ENDBRANCH  17  18
ENDBRANCH  15  17
ENDBRANCH  11  13
BRANCH   7  24
ATOM     24  N   UNL     1       5.184   2.365  11.346  0.00  0.00    +0.000 N 
ATOM     25  O   UNL     1       4.121   2.732  10.829  0.00  0.00    +0.000 OA
ATOM     26  O   UNL     1       5.754   1.292  11.102  0.00  0.00    +0.000 OA
ENDBRANCH   7  24
TORSDOF 4
ENDMDL
MODEL 6
REMARK VINA RESULT:      -8.1      4.035      5.507
REMARK  Name = 
REMARK  4 active torsions:
REMARK  status: ('A' for Active; 'I' for Inactive)
REMARK    1  A    between atoms: C_7  and  N_8
REMARK    2  A    between atoms: C_14  and  C_15
REMARK    3  A    between atoms: N_17  and  C_18
REMARK    4  A    between atoms: C_18  and  C_19
REMARK                            x       y       z     vdW  Elec       q    Type
REMARK                         _______ _______ _______ _____ _____    ______ ____
ROOT
ATOM      1  N   UNL     1       2.165   6.887  20.305  0.00  0.00    +0.000 NA
ATOM      2  C   UNL     1       2.845   6.793  19.210  0.00  0.00    +0.000 A 
ATOM      3  O   UNL     1       3.621   5.660  19.065  0.00  0.00    +0.000 OA
ATOM      4  C   UNL     1       4.397   5.460  17.911  0.00  0.00    +0.000 A 
ATOM      5  C   UNL     1       5.156   4.292  17.849  0.00  0.00    +0.000 A 
ATOM      6  C   UNL     1       5.948   4.054  16.727  0.00  0.00    +0.000 A 
ATOM      7  C   UNL     1       5.966   4.992  15.684  0.00  0.00    +0.000 A 
ATOM      8  C   UNL     1       5.192   6.164  15.754  0.00  0.00    +0.000 A 
ATOM      9  C   UNL     1       4.399   6.399  16.882  0.00  0.00    +0.000 A 
ATOM     10  C   UNL     1       3.578   7.593  17.025  0.00  0.00    +0.000 A 
ATOM     11  C   UNL     1       2.837   7.800  18.128  0.00  0.00    +0.000 A 
ATOM     12  H   UNL     1       2.378   6.043  20.855  0.00  0.00    +0.000 HD
ENDROOT
BRANCH  11  13
ATOM     13  C   UNL     1       2.027   9.064  18.180  0.00  0.00    +0.000 C 
ATOM     14  O   UNL     1       2.335  10.051  17.517  0.00  0.00    +0.000 OA
ATOM     15  N   UNL     1       0.933   9.030  19.004  0.00  0.00    +0.000 N 
ATOM     16  H   UNL     1       0.736   8.164  19.508  0.00  0.00    +0.000 HD
BRANCH  15  17
ATOM     17  C   UNL     1      -0.004  10.120  19.134  0.00  0.00    +0.000 C 
BRANCH  17  18
ATOM     18  C   UNL     1      -0.392  10.343  20.572  0.00  0.00    +0.000 A 
ATOM     19  C   UNL     1      -0.175   9.341  21.529  0.00  0.00    +0.000 A 
ATOM     20  C   UNL     1      -0.536   9.542  22.863  0.00  0.00    +0.000 A 
ATOM     21  C   UNL     1      -1.128  10.742  23.253  0.00  0.00    +0.000 A 
ATOM     22  C   UNL     1      -1.358  11.742  22.310  0.00  0.00    +0.000 A 
ATOM     23  C   UNL     1      -0.997  11.543  20.975  0.00  0.00    +0.000 A 
ENDBRANCH  17  18
ENDBRANCH  15  17
ENDBRANCH  11  13
BRANCH   7  24
ATOM     24  N   UNL     1       6.808   4.743  14.504  0.00  0.00    +0.000 N 
ATOM     25  O   UNL     1       7.815   5.449  14.357  0.00  0.00    +0.000 OA
ATOM     26  O   UNL     1       6.458   3.841  13.730  0.00  0.00    +0.000 OA
ENDBRANCH   7  24
TORSDOF 4
ENDMDL
MODEL 7
REMARK VINA RESULT:      -8.1      4.728      6.557
REMARK  Name = 
REMARK  4 active torsions:
REMARK  status: ('A' for Active; 'I' for Inactive)
REMARK    1  A    between atoms: C_7  and  N_8
REMARK    2  A    between atoms: C_14  and  C_15
REMARK    3  A    between atoms: N_17  and  C_18
REMARK    4  A    between atoms: C_18  and  C_19
REMARK                            x       y       z     vdW  Elec       q    Type
REMARK                         _______ _______ _______ _____ _____    ______ ____
ROOT
ATOM      1  N   UNL     1       1.389   7.596  20.860  0.00  0.00    +0.000 NA
ATOM      2  C   UNL     1       2.115   7.454  19.800  0.00  0.00    +0.000 A 
ATOM      3  O   UNL     1       2.824   6.274  19.696  0.00  0.00    +0.000 OA
ATOM      4  C   UNL     1       3.640   6.020  18.581  0.00  0.00    +0.000 A 
ATOM      5  C   UNL     1       4.327   4.806  18.558  0.00  0.00    +0.000 A 
ATOM      6  C   UNL     1       5.156   4.513  17.477  0.00  0.00    +0.000 A 
ATOM      7  C   UNL     1       5.283   5.443  16.434  0.00  0.00    +0.000 A 
ATOM      8  C   UNL     1       4.582   6.662  16.463  0.00  0.00    +0.000 A 
ATOM      9  C   UNL     1       3.752   6.951  17.552  0.00  0.00    +0.000 A 
ATOM     10  C   UNL     1       3.002   8.195  17.652  0.00  0.00    +0.000 A 
ATOM     11  C   UNL     1       2.222   8.454  18.717  0.00  0.00    +0.000 A 
ATOM     12  H   UNL     1       1.523   6.743  21.423  0.00  0.00    +0.000 HD
ENDROOT
BRANCH  11  13
ATOM     13  C   UNL     1       1.492   9.767  18.727  0.00  0.00    +0.000 C 
ATOM     14  O   UNL     1       2.001  10.787  18.271  0.00  0.00    +0.000 OA
ATOM     15  N   UNL     1       0.233   9.737  19.267  0.00  0.00    +0.000 N 
ATOM     16  H   UNL     1      -0.124   8.843  19.609  0.00  0.00    +0.000 HD
BRANCH  15  17
ATOM     17  C   UNL     1      -0.649  10.879  19.302  0.00  0.00    +0.000 C 
BRANCH  17  18
ATOM     18  C   UNL     1      -1.742  10.761  18.272  0.00  0.00    +0.000 A 
ATOM     19  C   UNL     1      -1.596   9.893  17.180  0.00  0.00    +0.000 A 
ATOM     20  C   UNL     1      -2.606   9.783  16.221  0.00  0.00    +0.000 A 
ATOM     21  C   UNL     1      -3.767  10.545  16.338  0.00  0.00    +0.000 A 
ATOM     22  C   UNL     1      -3.919  11.418  17.414  0.00  0.00    +0.000 A 
ATOM     23  C   UNL     1      -2.911  11.530  18.374  0.00  0.00    +0.000 A 
ENDBRANCH  17  18
ENDBRANCH  15  17
ENDBRANCH  11  13
BRANCH   7  24
ATOM     24  N   UNL     1       6.164   5.136  15.297  0.00  0.00    +0.000 N 
ATOM     25  O   UNL     1       5.697   4.455  14.375  0.00  0.00    +0.000 OA
ATOM     26  O   UNL     1       7.321   5.579  15.332  0.00  0.00    +0.000 OA
ENDBRANCH   7  24
TORSDOF 4
ENDMDL
MODEL 8
REMARK VINA RESULT:      -8.0      4.028      5.877
REMARK  Name = 
REMARK  4 active torsions:
REMARK  status: ('A' for Active; 'I' for Inactive)
REMARK    1  A    between atoms: C_7  and  N_8
REMARK    2  A    between atoms: C_14  and  C_15
REMARK    3  A    between atoms: N_17  and  C_18
REMARK    4  A    between atoms: C_18  and  C_19
REMARK                            x       y       z     vdW  Elec       q    Type
REMARK                         _______ _______ _______ _____ _____    ______ ____
ROOT
ATOM      1  N   UNL     1       1.412   5.356  20.548  0.00  0.00    +0.000 NA
ATOM      2  C   UNL     1       2.226   5.598  19.573  0.00  0.00    +0.000 A 
ATOM      3  O   UNL     1       2.865   4.505  19.022  0.00  0.00    +0.000 OA
ATOM      4  C   UNL     1       3.766   4.659  17.955  0.00  0.00    +0.000 A 
ATOM      5  C   UNL     1       4.373   3.503  17.463  0.00  0.00    +0.000 A 
ATOM      6  C   UNL     1       5.281   3.607  16.411  0.00  0.00    +0.000 A 
ATOM      7  C   UNL     1       5.567   4.869  15.869  0.00  0.00    +0.000 A 
ATOM      8  C   UNL     1       4.946   6.027  16.369  0.00  0.00    +0.000 A 
ATOM      9  C   UNL     1       4.035   5.918  17.425  0.00  0.00    +0.000 A 
ATOM     10  C   UNL     1       3.360   7.075  17.997  0.00  0.00    +0.000 A 
ATOM     11  C   UNL     1       2.500   6.941  19.023  0.00  0.00    +0.000 A 
ATOM     12  H   UNL     1       1.436   4.338  20.704  0.00  0.00    +0.000 HD
ENDROOT
BRANCH  11  13
ATOM     13  C   UNL     1       1.858   8.196  19.543  0.00  0.00    +0.000 C 
ATOM     14  O   UNL     1       1.534   8.310  20.722  0.00  0.00    +0.000 OA
ATOM     15  N   UNL     1       1.671   9.189  18.618  0.00  0.00    +0.000 N 
ATOM     16  H   UNL     1       1.984   9.022  17.661  0.00  0.00    +0.000 HD
BRANCH  15  17
ATOM     17  C   UNL     1       1.135  10.491  18.940  0.00  0.00    +0.000 C 
BRANCH  17  18
ATOM     18  C   UNL     1      -0.323  10.590  18.574  0.00  0.00    +0.000 A 
ATOM     19  C   UNL     1      -0.856   9.781  17.560  0.00  0.00    +0.000 A 
ATOM     20  C   UNL     1      -2.207   9.872  17.215  0.00  0.00    +0.000 A 
ATOM     21  C   UNL     1      -3.036  10.778  17.872  0.00  0.00    +0.000 A 
ATOM     22  C   UNL     1      -2.517  11.594  18.875  0.00  0.00    +0.000 A 
ATOM     23  C   UNL     1      -1.166  11.505  19.222  0.00  0.00    +0.000 A 
ENDBRANCH  17  18
ENDBRANCH  15  17
ENDBRANCH  11  13
BRANCH   7  24
ATOM     24  N   UNL     1       6.531   4.978  14.764  0.00  0.00    +0.000 N 
ATOM     25  O   UNL     1       6.290   4.350  13.725  0.00  0.00    +0.000 OA
ATOM     26  O   UNL     1       7.527   5.694  14.941  0.00  0.00    +0.000 OA
ENDBRANCH   7  24
TORSDOF 4
ENDMDL
MODEL 9
REMARK VINA RESULT:      -8.0      4.100      5.874
REMARK  Name = 
REMARK  4 active torsions:
REMARK  status: ('A' for Active; 'I' for Inactive)
REMARK    1  A    between atoms: C_7  and  N_8
REMARK    2  A    between atoms: C_14  and  C_15
REMARK    3  A    between atoms: N_17  and  C_18
REMARK    4  A    between atoms: C_18  and  C_19
REMARK                            x       y       z     vdW  Elec       q    Type
REMARK                         _______ _______ _______ _____ _____    ______ ____
ROOT
ATOM      1  N   UNL     1       1.638   5.723  20.812  0.00  0.00    +0.000 NA
ATOM      2  C   UNL     1       2.370   5.898  19.761  0.00  0.00    +0.000 A 
ATOM      3  O   UNL     1       3.040   4.787  19.288  0.00  0.00    +0.000 OA
ATOM      4  C   UNL     1       3.859   4.870  18.149  0.00  0.00    +0.000 A 
ATOM      5  C   UNL     1       4.505   3.702  17.744  0.00  0.00    +0.000 A 
ATOM      6  C   UNL     1       5.335   3.737  16.625  0.00  0.00    +0.000 A 
ATOM      7  C   UNL     1       5.504   4.944  15.929  0.00  0.00    +0.000 A 
ATOM      8  C   UNL     1       4.844   6.115  16.343  0.00  0.00    +0.000 A 
ATOM      9  C   UNL     1       4.012   6.074  17.467  0.00  0.00    +0.000 A 
ATOM     10  C   UNL     1       3.303   7.249  17.956  0.00  0.00    +0.000 A 
ATOM     11  C   UNL     1       2.521   7.184  19.049  0.00  0.00    +0.000 A 
ATOM     12  H   UNL     1       1.737   4.732  21.075  0.00  0.00    +0.000 HD
ENDROOT
BRANCH  11  13
ATOM     13  C   UNL     1       1.835   8.451  19.474  0.00  0.00    +0.000 C 
ATOM     14  O   UNL     1       1.460   8.621  20.631  0.00  0.00    +0.000 OA
ATOM     15  N   UNL     1       1.670   9.390  18.490  0.00  0.00    +0.000 N 
ATOM     16  H   UNL     1       2.027   9.178  17.556  0.00  0.00    +0.000 HD
BRANCH  15  17
ATOM     17  C   UNL     1       1.098  10.695  18.719  0.00  0.00    +0.000 C 
BRANCH  17  18
ATOM     18  C   UNL     1      -0.379  10.707  18.421  0.00  0.00    +0.000 A 
ATOM     19  C   UNL     1      -1.228  11.613  19.074  0.00  0.00    +0.000 A 
ATOM     20  C   UNL     1      -2.598  11.624  18.803  0.00  0.00    +0.000 A 
ATOM     21  C   UNL     1      -3.136  10.726  17.884  0.00  0.00    +0.000 A 
ATOM     22  C   UNL     1      -2.305   9.814  17.235  0.00  0.00    +0.000 A 
ATOM     23  C   UNL     1      -0.934   9.800  17.504  0.00  0.00    +0.000 A 
ENDBRANCH  17  18
ENDBRANCH  15  17
ENDBRANCH  11  13
BRANCH   7  24
ATOM     24  N   UNL     1       6.386   4.981  14.753  0.00  0.00    +0.000 N 
ATOM     25  O   UNL     1       6.041   4.337  13.754  0.00  0.00    +0.000 OA
ATOM     26  O   UNL     1       7.422   5.656  14.834  0.00  0.00    +0.000 OA
ENDBRANCH   7  24
TORSDOF 4
ENDMDL
