MODEL 1
REMARK VINA RESULT:      -7.0      0.000      0.000
REMARK  Name = 
REMARK  6 active torsions:
REMARK  status: ('A' for Active; 'I' for Inactive)
REMARK    1  A    between atoms: C_1  and  N_2
REMARK    2  A    between atoms: N_2  and  C_3
REMARK    3  A    between atoms: N_2  and  C_4
REMARK    4  A    between atoms: N_6  and  C_7
REMARK    5  A    between atoms: C_7  and  C_8
REMARK    6  A    between atoms: C_17  and  C_18
REMARK                            x       y       z     vdW  Elec       q    Type
REMARK                         _______ _______ _______ _____ _____    ______ ____
ROOT
ATOM      1  C   UNL     1       6.929   5.563  16.796  0.00  0.00    +0.000 C 
ATOM      2  C   UNL     1       6.664   4.118  17.292  0.00  0.00    +0.000 C 
ATOM      3  N   UNL     1       5.224   3.957  17.521  0.00  0.00    +0.000 NA
ATOM      4  C   UNL     1       4.576   4.985  16.678  0.00  0.00    +0.000 C 
ATOM      5  C   UNL     1       5.663   5.793  15.929  0.00  0.00    +0.000 C 
ENDROOT
BRANCH   5   6
ATOM      6  C   UNL     1       5.862   5.426  14.422  0.00  0.00    +0.000 C 
ATOM      7  C   UNL     1       5.190   4.076  14.069  0.00  0.00    +0.000 C 
ATOM      8  C   UNL     1       5.514   3.637  12.646  0.00  0.00    +0.000 C 
ATOM      9  O   UNL     1       6.923   3.528  12.468  0.00  0.00    +0.000 OA
ATOM     10  C   UNL     1       7.574   4.783  12.649  0.00  0.00    +0.000 C 
ATOM     11  C   UNL     1       7.359   5.313  14.063  0.00  0.00    +0.000 C 
ENDBRANCH   5   6
BRANCH   1  13
ATOM     12  C   UNL     1       7.654   7.845  17.219  0.00  0.00    +0.000 C 
ATOM     13  N   UNL     1       7.050   6.640  17.816  0.00  0.00    +0.000 NA
ATOM     14  C   UNL     1       7.870   6.273  18.975  0.00  0.00    +0.000 C 
ENDBRANCH   1  13
BRANCH   3  15
ATOM     15  C   UNL     1       4.826   4.104  18.936  0.00  0.00    +0.000 C 
BRANCH  15  16
ATOM     16  C   UNL     1       3.391   3.723  19.258  0.00  0.00    +0.000 A 
ATOM     17  C   UNL     1       3.052   2.360  19.336  0.00  0.00    +0.000 A 
ATOM     18  F   UNL     1       3.993   1.422  19.138  0.00  0.00    +0.000 F 
ATOM     19  C   UNL     1       1.762   1.927  19.632  0.00  0.00    +0.000 A 
ATOM     20  C   UNL     1       0.760   2.856  19.894  0.00  0.00    +0.000 A 
ATOM     21  C   UNL     1       1.073   4.216  19.863  0.00  0.00    +0.000 A 
ATOM     22  C   UNL     1       2.376   4.646  19.558  0.00  0.00    +0.000 A 
ATOM     23 BR   UNL     1       2.692   6.519  19.647  0.00  0.00    +0.000 Br
ENDBRANCH  15  16
ENDBRANCH   3  15
TORSDOF 4
ENDMDL
MODEL 2
REMARK VINA RESULT:      -6.9      1.595      1.872
REMARK  Name = 
REMARK  6 active torsions:
REMARK  status: ('A' for Active; 'I' for Inactive)
REMARK    1  A    between atoms: C_1  and  N_2
REMARK    2  A    between atoms: N_2  and  C_3
REMARK    3  A    between atoms: N_2  and  C_4
REMARK    4  A    between atoms: N_6  and  C_7
REMARK    5  A    between atoms: C_7  and  C_8
REMARK    6  A    between atoms: C_17  and  C_18
REMARK                            x       y       z     vdW  Elec       q    Type
REMARK                         _______ _______ _______ _____ _____    ______ ____
ROOT
ATOM      1  C   UNL     1       6.969   5.645  16.947  0.00  0.00    +0.000 C 
ATOM      2  C   UNL     1       6.695   4.214  17.476  0.00  0.00    +0.000 C 
ATOM      3  N   UNL     1       5.262   4.083  17.758  0.00  0.00    +0.000 NA
ATOM      4  C   UNL     1       4.603   5.111  16.923  0.00  0.00    +0.000 C 
ATOM      5  C   UNL     1       5.677   5.886  16.122  0.00  0.00    +0.000 C 
ENDROOT
BRANCH   5   6
ATOM      6  C   UNL     1       5.815   5.491  14.616  0.00  0.00    +0.000 C 
ATOM      7  C   UNL     1       5.094   4.156  14.306  0.00  0.00    +0.000 C 
ATOM      8  C   UNL     1       5.358   3.687  12.879  0.00  0.00    +0.000 C 
ATOM      9  O   UNL     1       6.757   3.536  12.657  0.00  0.00    +0.000 OA
ATOM     10  C   UNL     1       7.447   4.774  12.796  0.00  0.00    +0.000 C 
ATOM     11  C   UNL     1       7.295   5.331  14.208  0.00  0.00    +0.000 C 
ENDBRANCH   5   6
BRANCH   1  13
ATOM     12  C   UNL     1       7.711   7.934  17.298  0.00  0.00    +0.000 C 
ATOM     13  N   UNL     1       7.147   6.735  17.945  0.00  0.00    +0.000 NA
ATOM     14  C   UNL     1       8.034   6.385  19.058  0.00  0.00    +0.000 C 
ENDBRANCH   1  13
BRANCH   3  15
ATOM     15  C   UNL     1       4.918   4.261  19.184  0.00  0.00    +0.000 C 
BRANCH  15  16
ATOM     16  C   UNL     1       3.473   3.968  19.553  0.00  0.00    +0.000 A 
ATOM     17  C   UNL     1       2.673   5.015  20.047  0.00  0.00    +0.000 A 
ATOM     18  F   UNL     1       3.187   6.250  20.173  0.00  0.00    +0.000 F 
ATOM     19  C   UNL     1       1.339   4.832  20.401  0.00  0.00    +0.000 A 
ATOM     20  C   UNL     1       0.744   3.585  20.244  0.00  0.00    +0.000 A 
ATOM     21  C   UNL     1       1.499   2.534  19.720  0.00  0.00    +0.000 A 
ATOM     22  C   UNL     1       2.847   2.725  19.369  0.00  0.00    +0.000 A 
ATOM     23 BR   UNL     1       3.733   1.242  18.576  0.00  0.00    +0.000 Br
ENDBRANCH  15  16
ENDBRANCH   3  15
TORSDOF 4
ENDMDL
MODEL 3
REMARK VINA RESULT:      -6.8      0.760      1.362
REMARK  Name = 
REMARK  6 active torsions:
REMARK  status: ('A' for Active; 'I' for Inactive)
REMARK    1  A    between atoms: C_1  and  N_2
REMARK    2  A    between atoms: N_2  and  C_3
REMARK    3  A    between atoms: N_2  and  C_4
REMARK    4  A    between atoms: N_6  and  C_7
REMARK    5  A    between atoms: C_7  and  C_8
REMARK    6  A    between atoms: C_17  and  C_18
REMARK                            x       y       z     vdW  Elec       q    Type
REMARK                         _______ _______ _______ _____ _____    ______ ____
ROOT
ATOM      1  C   UNL     1       7.039   5.736  17.006  0.00  0.00    +0.000 C 
ATOM      2  C   UNL     1       7.143   4.534  17.979  0.00  0.00    +0.000 C 
ATOM      3  N   UNL     1       5.813   3.934  18.130  0.00  0.00    +0.000 NA
ATOM      4  C   UNL     1       5.067   4.327  16.915  0.00  0.00    +0.000 C 
ATOM      5  C   UNL     1       5.976   5.195  16.012  0.00  0.00    +0.000 C 
ENDROOT
BRANCH   5   6
ATOM      6  C   UNL     1       6.592   4.468  14.773  0.00  0.00    +0.000 C 
ATOM      7  C   UNL     1       7.463   5.426  13.922  0.00  0.00    +0.000 C 
ATOM      8  C   UNL     1       7.935   4.767  12.631  0.00  0.00    +0.000 C 
ATOM      9  O   UNL     1       6.820   4.328  11.862  0.00  0.00    +0.000 OA
ATOM     10  C   UNL     1       6.062   3.339  12.552  0.00  0.00    +0.000 C 
ATOM     11  C   UNL     1       5.493   3.894  13.854  0.00  0.00    +0.000 C 
ENDBRANCH   5   6
BRANCH   1  13
ATOM     12  C   UNL     1       5.425   7.546  16.819  0.00  0.00    +0.000 C 
ATOM     13  N   UNL     1       6.599   7.046  17.559  0.00  0.00    +0.000 NA
ATOM     14  C   UNL     1       7.624   8.091  17.503  0.00  0.00    +0.000 C 
ENDBRANCH   1  13
BRANCH   3  15
ATOM     15  C   UNL     1       5.101   4.367  19.351  0.00  0.00    +0.000 C 
BRANCH  15  16
ATOM     16  C   UNL     1       3.662   3.894  19.474  0.00  0.00    +0.000 A 
ATOM     17  C   UNL     1       3.413   2.527  19.688  0.00  0.00    +0.000 A 
ATOM     18  F   UNL     1       4.439   1.665  19.790  0.00  0.00    +0.000 F 
ATOM     19  C   UNL     1       2.124   2.014  19.818  0.00  0.00    +0.000 A 
ATOM     20  C   UNL     1       1.028   2.869  19.769  0.00  0.00    +0.000 A 
ATOM     21  C   UNL     1       1.244   4.238  19.597  0.00  0.00    +0.000 A 
ATOM     22  C   UNL     1       2.547   4.747  19.461  0.00  0.00    +0.000 A 
ATOM     23 BR   UNL     1       2.707   6.637  19.333  0.00  0.00    +0.000 Br
ENDBRANCH  15  16
ENDBRANCH   3  15
TORSDOF 4
ENDMDL
MODEL 4
REMARK VINA RESULT:      -6.3      3.706      6.790
REMARK  Name = 
REMARK  6 active torsions:
REMARK  status: ('A' for Active; 'I' for Inactive)
REMARK    1  A    between atoms: C_1  and  N_2
REMARK    2  A    between atoms: N_2  and  C_3
REMARK    3  A    between atoms: N_2  and  C_4
REMARK    4  A    between atoms: N_6  and  C_7
REMARK    5  A    between atoms: C_7  and  C_8
REMARK    6  A    between atoms: C_17  and  C_18
REMARK                            x       y       z     vdW  Elec       q    Type
REMARK                         _______ _______ _______ _____ _____    ______ ____
ROOT
ATOM      1  C   UNL     1       2.173   5.009  19.736  0.00  0.00    +0.000 C 
ATOM      2  C   UNL     1       3.519   4.792  20.474  0.00  0.00    +0.000 C 
ATOM      3  N   UNL     1       4.613   5.192  19.583  0.00  0.00    +0.000 NA
ATOM      4  C   UNL     1       4.007   6.136  18.618  0.00  0.00    +0.000 C 
ATOM      5  C   UNL     1       2.501   6.298  18.937  0.00  0.00    +0.000 C 
ENDROOT
BRANCH   5   6
ATOM      6  C   UNL     1       2.105   7.614  19.682  0.00  0.00    +0.000 C 
ATOM      7  C   UNL     1       1.044   7.353  20.780  0.00  0.00    +0.000 C 
ATOM      8  C   UNL     1       0.539   8.651  21.400  0.00  0.00    +0.000 C 
ATOM      9  O   UNL     1      -0.013   9.498  20.397  0.00  0.00    +0.000 OA
ATOM     10  C   UNL     1       0.966   9.879  19.434  0.00  0.00    +0.000 C 
ATOM     11  C   UNL     1       1.523   8.659  18.707  0.00  0.00    +0.000 C 
ENDBRANCH   5   6
BRANCH   1  13
ATOM     12  C   UNL     1       1.182   4.536  17.566  0.00  0.00    +0.000 C 
ATOM     13  N   UNL     1       1.704   3.942  18.811  0.00  0.00    +0.000 NA
ATOM     14  C   UNL     1       0.643   3.096  19.365  0.00  0.00    +0.000 C 
ENDBRANCH   1  13
BRANCH   3  15
ATOM     15  C   UNL     1       5.255   4.060  18.884  0.00  0.00    +0.000 C 
BRANCH  15  16
ATOM     16  C   UNL     1       5.805   4.368  17.502  0.00  0.00    +0.000 A 
ATOM     17  C   UNL     1       5.124   3.874  16.375  0.00  0.00    +0.000 A 
ATOM     18  F   UNL     1       4.000   3.154  16.532  0.00  0.00    +0.000 F 
ATOM     19  C   UNL     1       5.558   4.116  15.074  0.00  0.00    +0.000 A 
ATOM     20  C   UNL     1       6.688   4.897  14.853  0.00  0.00    +0.000 A 
ATOM     21  C   UNL     1       7.365   5.434  15.949  0.00  0.00    +0.000 A 
ATOM     22  C   UNL     1       6.924   5.181  17.260  0.00  0.00    +0.000 A 
ATOM     23 BR   UNL     1       7.876   6.053  18.656  0.00  0.00    +0.000 Br
ENDBRANCH  15  16
ENDBRANCH   3  15
TORSDOF 4
ENDMDL
MODEL 5
REMARK VINA RESULT:      -6.3      0.779      1.039
REMARK  Name = 
REMARK  6 active torsions:
REMARK  status: ('A' for Active; 'I' for Inactive)
REMARK    1  A    between atoms: C_1  and  N_2
REMARK    2  A    between atoms: N_2  and  C_3
REMARK    3  A    between atoms: N_2  and  C_4
REMARK    4  A    between atoms: N_6  and  C_7
REMARK    5  A    between atoms: C_7  and  C_8
REMARK    6  A    between atoms: C_17  and  C_18
REMARK                            x       y       z     vdW  Elec       q    Type
REMARK                         _______ _______ _______ _____ _____    ______ ____
ROOT
ATOM      1  C   UNL     1       7.118   5.174  16.642  0.00  0.00    +0.000 C 
ATOM      2  C   UNL     1       6.248   4.056  17.272  0.00  0.00    +0.000 C 
ATOM      3  N   UNL     1       4.913   4.598  17.546  0.00  0.00    +0.000 NA
ATOM      4  C   UNL     1       4.762   5.748  16.628  0.00  0.00    +0.000 C 
ATOM      5  C   UNL     1       6.050   5.904  15.785  0.00  0.00    +0.000 C 
ENDROOT
BRANCH   5   6
ATOM      6  C   UNL     1       5.964   5.382  14.314  0.00  0.00    +0.000 C 
ATOM      7  C   UNL     1       5.156   4.064  14.221  0.00  0.00    +0.000 C 
ATOM      8  C   UNL     1       5.203   3.468  12.818  0.00  0.00    +0.000 C 
ATOM      9  O   UNL     1       6.550   3.228  12.426  0.00  0.00    +0.000 OA
ATOM     10  C   UNL     1       7.303   4.436  12.364  0.00  0.00    +0.000 C 
ATOM     11  C   UNL     1       7.368   5.113  13.729  0.00  0.00    +0.000 C 
ENDBRANCH   5   6
BRANCH   1  13
ATOM     12  C   UNL     1       7.739   5.644  18.945  0.00  0.00    +0.000 C 
ATOM     13  N   UNL     1       7.784   6.140  17.557  0.00  0.00    +0.000 NA
ATOM     14  C   UNL     1       7.181   7.476  17.554  0.00  0.00    +0.000 C 
ENDBRANCH   1  13
BRANCH   3  15
ATOM     15  C   UNL     1       4.716   5.013  18.950  0.00  0.00    +0.000 C 
BRANCH  15  16
ATOM     16  C   UNL     1       3.464   4.475  19.624  0.00  0.00    +0.000 A 
ATOM     17  C   UNL     1       3.444   3.134  20.047  0.00  0.00    +0.000 A 
ATOM     18  F   UNL     1       4.523   2.356  19.864  0.00  0.00    +0.000 F 
ATOM     19  C   UNL     1       2.339   2.567  20.678  0.00  0.00    +0.000 A 
ATOM     20  C   UNL     1       1.213   3.342  20.937  0.00  0.00    +0.000 A 
ATOM     21  C   UNL     1       1.217   4.687  20.565  0.00  0.00    +0.000 A 
ATOM     22  C   UNL     1       2.333   5.252  19.924  0.00  0.00    +0.000 A 
ATOM     23 BR   UNL     1       2.247   7.116  19.559  0.00  0.00    +0.000 Br
ENDBRANCH  15  16
ENDBRANCH   3  15
TORSDOF 4
ENDMDL
MODEL 6
REMARK VINA RESULT:      -6.2      3.716      5.602
REMARK  Name = 
REMARK  6 active torsions:
REMARK  status: ('A' for Active; 'I' for Inactive)
REMARK    1  A    between atoms: C_1  and  N_2
REMARK    2  A    between atoms: N_2  and  C_3
REMARK    3  A    between atoms: N_2  and  C_4
REMARK    4  A    between atoms: N_6  and  C_7
REMARK    5  A    between atoms: C_7  and  C_8
REMARK    6  A    between atoms: C_17  and  C_18
REMARK                            x       y       z     vdW  Elec       q    Type
REMARK                         _______ _______ _______ _____ _____    ______ ____
ROOT
ATOM      1  C   UNL     1       2.718   3.977  18.529  0.00  0.00    +0.000 C 
ATOM      2  C   UNL     1       2.388   5.353  17.897  0.00  0.00    +0.000 C 
ATOM      3  N   UNL     1       2.951   6.408  18.746  0.00  0.00    +0.000 NA
ATOM      4  C   UNL     1       4.045   5.760  19.503  0.00  0.00    +0.000 C 
ATOM      5  C   UNL     1       4.132   4.268  19.099  0.00  0.00    +0.000 C 
ENDROOT
BRANCH   5   6
ATOM      6  C   UNL     1       5.290   3.899  18.117  0.00  0.00    +0.000 C 
ATOM      7  C   UNL     1       6.496   4.859  18.267  0.00  0.00    +0.000 C 
ATOM      8  C   UNL     1       7.560   4.603  17.206  0.00  0.00    +0.000 C 
ATOM      9  O   UNL     1       7.004   4.739  15.902  0.00  0.00    +0.000 OA
ATOM     10  C   UNL     1       5.978   3.779  15.667  0.00  0.00    +0.000 C 
ATOM     11  C   UNL     1       4.823   3.960  16.647  0.00  0.00    +0.000 C 
ENDBRANCH   5   6
BRANCH   1  13
ATOM     12  C   UNL     1       2.612   2.740  20.620  0.00  0.00    +0.000 C 
ATOM     13  N   UNL     1       1.827   3.474  19.610  0.00  0.00    +0.000 NA
ATOM     14  C   UNL     1       0.773   2.570  19.141  0.00  0.00    +0.000 C 
ENDBRANCH   1  13
BRANCH   3  15
ATOM     15  C   UNL     1       1.968   7.024  19.661  0.00  0.00    +0.000 C 
BRANCH  15  16
ATOM     16  C   UNL     1       1.668   8.493  19.411  0.00  0.00    +0.000 A 
ATOM     17  C   UNL     1       2.111   9.082  18.213  0.00  0.00    +0.000 A 
ATOM     18  F   UNL     1       2.776   8.344  17.308  0.00  0.00    +0.000 F 
ATOM     19  C   UNL     1       1.871  10.418  17.905  0.00  0.00    +0.000 A 
ATOM     20  C   UNL     1       1.145  11.215  18.785  0.00  0.00    +0.000 A 
ATOM     21  C   UNL     1       0.658  10.650  19.965  0.00  0.00    +0.000 A 
ATOM     22  C   UNL     1       0.908   9.301  20.271  0.00  0.00    +0.000 A 
ATOM     23 BR   UNL     1       0.106   8.632  21.860  0.00  0.00    +0.000 Br
ENDBRANCH  15  16
ENDBRANCH   3  15
TORSDOF 4
ENDMDL
MODEL 7
REMARK VINA RESULT:      -6.2      1.154      1.566
REMARK  Name = 
REMARK  6 active torsions:
REMARK  status: ('A' for Active; 'I' for Inactive)
REMARK    1  A    between atoms: C_1  and  N_2
REMARK    2  A    between atoms: N_2  and  C_3
REMARK    3  A    between atoms: N_2  and  C_4
REMARK    4  A    between atoms: N_6  and  C_7
REMARK    5  A    between atoms: C_7  and  C_8
REMARK    6  A    between atoms: C_17  and  C_18
REMARK                            x       y       z     vdW  Elec       q    Type
REMARK                         _______ _______ _______ _____ _____    ______ ____
ROOT
ATOM      1  C   UNL     1       6.675   5.019  17.209  0.00  0.00    +0.000 C 
ATOM      2  C   UNL     1       5.467   4.078  17.454  0.00  0.00    +0.000 C 
ATOM      3  N   UNL     1       4.266   4.695  16.880  0.00  0.00    +0.000 NA
ATOM      4  C   UNL     1       4.763   5.629  15.846  0.00  0.00    +0.000 C 
ATOM      5  C   UNL     1       6.310   5.575  15.807  0.00  0.00    +0.000 C 
ENDROOT
BRANCH   5   6
ATOM      6  C   UNL     1       6.930   4.757  14.628  0.00  0.00    +0.000 C 
ATOM      7  C   UNL     1       7.687   5.672  13.634  0.00  0.00    +0.000 C 
ATOM      8  C   UNL     1       8.157   4.904  12.403  0.00  0.00    +0.000 C 
ATOM      9  O   UNL     1       7.050   4.298  11.744  0.00  0.00    +0.000 OA
ATOM     10  C   UNL     1       6.401   3.342  12.577  0.00  0.00    +0.000 C 
ATOM     11  C   UNL     1       5.843   4.001  13.835  0.00  0.00    +0.000 C 
ENDBRANCH   5   6
BRANCH   1  13
ATOM     12  C   UNL     1       7.512   7.287  17.473  0.00  0.00    +0.000 C 
ATOM     13  N   UNL     1       6.890   6.141  18.162  0.00  0.00    +0.000 NA
ATOM     14  C   UNL     1       7.751   5.800  19.299  0.00  0.00    +0.000 C 
ENDBRANCH   1  13
BRANCH   3  15
ATOM     15  C   UNL     1       3.427   5.399  17.870  0.00  0.00    +0.000 C 
BRANCH  15  16
ATOM     16  C   UNL     1       2.407   4.540  18.597  0.00  0.00    +0.000 A 
ATOM     17  C   UNL     1       2.116   3.259  18.094  0.00  0.00    +0.000 A 
ATOM     18  F   UNL     1       2.746   2.811  16.995  0.00  0.00    +0.000 F 
ATOM     19  C   UNL     1       1.199   2.407  18.704  0.00  0.00    +0.000 A 
ATOM     20  C   UNL     1       0.555   2.802  19.872  0.00  0.00    +0.000 A 
ATOM     21  C   UNL     1       0.850   4.052  20.419  0.00  0.00    +0.000 A 
ATOM     22  C   UNL     1       1.773   4.909  19.795  0.00  0.00    +0.000 A 
ATOM     23 BR   UNL     1       2.158   6.538  20.695  0.00  0.00    +0.000 Br
ENDBRANCH  15  16
ENDBRANCH   3  15
TORSDOF 4
ENDMDL
MODEL 8
REMARK VINA RESULT:      -6.1      3.449      6.471
REMARK  Name = 
REMARK  6 active torsions:
REMARK  status: ('A' for Active; 'I' for Inactive)
REMARK    1  A    between atoms: C_1  and  N_2
REMARK    2  A    between atoms: N_2  and  C_3
REMARK    3  A    between atoms: N_2  and  C_4
REMARK    4  A    between atoms: N_6  and  C_7
REMARK    5  A    between atoms: C_7  and  C_8
REMARK    6  A    between atoms: C_17  and  C_18
REMARK                            x       y       z     vdW  Elec       q    Type
REMARK                         _______ _______ _______ _____ _____    ______ ____
ROOT
ATOM      1  C   UNL     1       2.448   4.802  19.300  0.00  0.00    +0.000 C 
ATOM      2  C   UNL     1       3.765   5.208  20.011  0.00  0.00    +0.000 C 
ATOM      3  N   UNL     1       4.715   5.689  19.002  0.00  0.00    +0.000 NA
ATOM      4  C   UNL     1       3.885   6.121  17.857  0.00  0.00    +0.000 C 
ATOM      5  C   UNL     1       2.391   5.883  18.188  0.00  0.00    +0.000 C 
ENDROOT
BRANCH   5   6
ATOM      6  C   UNL     1       1.577   7.155  18.593  0.00  0.00    +0.000 C 
ATOM      7  C   UNL     1       1.994   8.391  17.759  0.00  0.00    +0.000 C 
ATOM      8  C   UNL     1       1.318   9.664  18.256  0.00  0.00    +0.000 C 
ATOM      9  O   UNL     1       1.629   9.888  19.627  0.00  0.00    +0.000 OA
ATOM     10  C   UNL     1       1.141   8.837  20.455  0.00  0.00    +0.000 C 
ATOM     11  C   UNL     1       1.781   7.503  20.082  0.00  0.00    +0.000 C 
ENDBRANCH   5   6
BRANCH   1  13
ATOM     12  C   UNL     1       0.965   3.033  18.537  0.00  0.00    +0.000 C 
ATOM     13  N   UNL     1       2.372   3.445  18.694  0.00  0.00    +0.000 NA
ATOM     14  C   UNL     1       3.042   2.404  19.479  0.00  0.00    +0.000 C 
ENDBRANCH   1  13
BRANCH   3  15
ATOM     15  C   UNL     1       5.704   4.674  18.585  0.00  0.00    +0.000 C 
BRANCH  15  16
ATOM     16  C   UNL     1       6.118   4.721  17.124  0.00  0.00    +0.000 A 
ATOM     17  C   UNL     1       5.586   3.768  16.237  0.00  0.00    +0.000 A 
ATOM     18  F   UNL     1       4.719   2.844  16.685  0.00  0.00    +0.000 F 
ATOM     19  C   UNL     1       5.909   3.746  14.883  0.00  0.00    +0.000 A 
ATOM     20  C   UNL     1       6.765   4.709  14.357  0.00  0.00    +0.000 A 
ATOM     21  C   UNL     1       7.279   5.692  15.203  0.00  0.00    +0.000 A 
ATOM     22  C   UNL     1       6.952   5.705  16.571  0.00  0.00    +0.000 A 
ATOM     23 BR   UNL     1       7.640   7.154  17.591  0.00  0.00    +0.000 Br
ENDBRANCH  15  16
ENDBRANCH   3  15
TORSDOF 4
ENDMDL
MODEL 9
REMARK VINA RESULT:      -5.9      1.816      2.381
REMARK  Name = 
REMARK  6 active torsions:
REMARK  status: ('A' for Active; 'I' for Inactive)
REMARK    1  A    between atoms: C_1  and  N_2
REMARK    2  A    between atoms: N_2  and  C_3
REMARK    3  A    between atoms: N_2  and  C_4
REMARK    4  A    between atoms: N_6  and  C_7
REMARK    5  A    between atoms: C_7  and  C_8
REMARK    6  A    between atoms: C_17  and  C_18
REMARK                            x       y       z     vdW  Elec       q    Type
REMARK                         _______ _______ _______ _____ _____    ______ ____
ROOT
ATOM      1  C   UNL     1       7.188   5.542  16.490  0.00  0.00    +0.000 C 
ATOM      2  C   UNL     1       7.107   4.445  17.582  0.00  0.00    +0.000 C 
ATOM      3  N   UNL     1       5.697   4.221  17.919  0.00  0.00    +0.000 NA
ATOM      4  C   UNL     1       4.935   4.679  16.737  0.00  0.00    +0.000 C 
ATOM      5  C   UNL     1       5.919   5.202  15.664  0.00  0.00    +0.000 C 
ENDROOT
BRANCH   5   6
ATOM      6  C   UNL     1       6.193   4.235  14.467  0.00  0.00    +0.000 C 
ATOM      7  C   UNL     1       7.221   4.830  13.473  0.00  0.00    +0.000 C 
ATOM      8  C   UNL     1       7.372   3.964  12.228  0.00  0.00    +0.000 C 
ATOM      9  O   UNL     1       6.116   3.809  11.575  0.00  0.00    +0.000 OA
ATOM     10  C   UNL     1       5.172   3.139  12.406  0.00  0.00    +0.000 C 
ATOM     11  C   UNL     1       4.900   3.935  13.679  0.00  0.00    +0.000 C 
ENDBRANCH   5   6
BRANCH   1  13
ATOM     12  C   UNL     1       7.826   7.123  18.224  0.00  0.00    +0.000 C 
ATOM     13  N   UNL     1       7.147   6.965  16.925  0.00  0.00    +0.000 NA
ATOM     14  C   UNL     1       5.792   7.502  17.076  0.00  0.00    +0.000 C 
ENDBRANCH   1  13
BRANCH   3  15
ATOM     15  C   UNL     1       5.257   4.927  19.140  0.00  0.00    +0.000 C 
BRANCH  15  16
ATOM     16  C   UNL     1       3.846   4.613  19.609  0.00  0.00    +0.000 A 
ATOM     17  C   UNL     1       2.866   5.619  19.536  0.00  0.00    +0.000 A 
ATOM     18  F   UNL     1       3.183   6.830  19.046  0.00  0.00    +0.000 F 
ATOM     19  C   UNL     1       1.550   5.410  19.939  0.00  0.00    +0.000 A 
ATOM     20  C   UNL     1       1.157   4.161  20.408  0.00  0.00    +0.000 A 
ATOM     21  C   UNL     1       2.096   3.130  20.456  0.00  0.00    +0.000 A 
ATOM     22  C   UNL     1       3.425   3.349  20.052  0.00  0.00    +0.000 A 
ATOM     23 BR   UNL     1       4.577   1.837  20.075  0.00  0.00    +0.000 Br
ENDBRANCH  15  16
ENDBRANCH   3  15
TORSDOF 4
ENDMDL
