MODEL 1
REMARK VINA RESULT:      -8.0      0.000      0.000
REMARK  Name = 
REMARK  10 active torsions:
REMARK  status: ('A' for Active; 'I' for Inactive)
REMARK    1  A    between atoms: C_2  and  C_23
REMARK    2  A    between atoms: N_3  and  C_4
REMARK    3  A    between atoms: C_7  and  S_8
REMARK    4  A    between atoms: S_8  and  N_11
REMARK    5  A    between atoms: N_11  and  C_12
REMARK    6  A    between atoms: C_12  and  C_13
REMARK    7  A    between atoms: C_13  and  C_14
REMARK    8  A    between atoms: C_14  and  N_15
REMARK    9  A    between atoms: C_25  and  C_26
REMARK   10  A    between atoms: C_31  and  O_32
REMARK                            x       y       z     vdW  Elec       q    Type
REMARK                         _______ _______ _______ _____ _____    ______ ____
ROOT
ATOM      1  C   UNL     1       2.017   7.441  19.235  0.00  0.00    +0.000 A 
ATOM      2  C   UNL     1       2.152   6.653  18.092  0.00  0.00    +0.000 A 
ATOM      3  C   UNL     1       2.041   5.268  18.155  0.00  0.00    +0.000 A 
ATOM      4  C   UNL     1       1.809   4.646  19.379  0.00  0.00    +0.000 A 
ATOM      5  C   UNL     1       1.676   5.410  20.543  0.00  0.00    +0.000 A 
ATOM      6  C   UNL     1       1.796   6.808  20.470  0.00  0.00    +0.000 A 
ENDROOT
BRANCH   1   9
ATOM      7  O   UNL     1       0.366   9.338  17.724  0.00  0.00    +0.000 OA
ATOM      8  C   UNL     1       1.320   9.689  18.414  0.00  0.00    +0.000 C 
ATOM      9  N   UNL     1       2.105   8.849  19.191  0.00  0.00    +0.000 N 
ATOM     10  H   UNL     1       2.736   9.290  19.847  0.00  0.00    +0.000 HD
BRANCH   8  11
ATOM     11  C   UNL     1       1.660  11.079  18.491  0.00  0.00    +0.000 A 
ATOM     12  C   UNL     1       1.315  12.085  19.359  0.00  0.00    +0.000 A 
ATOM     13  C   UNL     1       1.915  13.269  18.852  0.00  0.00    +0.000 A 
ATOM     14  N   UNL     1       2.679  12.984  17.783  0.00  0.00    +0.000 NA
ATOM     15  N   UNL     1       2.508  11.666  17.594  0.00  0.00    +0.000 N 
ATOM     16  H   UNL     1       2.985  11.211  16.820  0.00  0.00    +0.000 HD
BRANCH  13  17
ATOM     17  C   UNL     1       1.782  14.626  19.384  0.00  0.00    +0.000 A 
ATOM     18  C   UNL     1       0.508  15.198  19.509  0.00  0.00    +0.000 A 
ATOM     19  C   UNL     1       0.356  16.504  19.986  0.00  0.00    +0.000 A 
ATOM     20  C   UNL     1       1.476  17.246  20.351  0.00  0.00    +0.000 A 
ATOM     21  C   UNL     1       2.748  16.688  20.250  0.00  0.00    +0.000 A 
ATOM     22  C   UNL     1       2.897  15.386  19.770  0.00  0.00    +0.000 A 
BRANCH  22  23
ATOM     23  O   UNL     1       4.165  14.860  19.701  0.00  0.00    +0.000 OA
ATOM     24  H   UNL     1       4.811  15.574  19.828  0.00  0.00    +0.000 HD
ENDBRANCH  22  23
ENDBRANCH  13  17
ENDBRANCH   8  11
ENDBRANCH   1   9
BRANCH   4  25
ATOM     25  S   UNL     1       1.610   2.885  19.402  0.00  0.00    +0.000 S 
ATOM     26  O   UNL     1       1.364   2.496  20.772  0.00  0.00    +0.000 OA
ATOM     27  O   UNL     1       0.718   2.501  18.330  0.00  0.00    +0.000 OA
BRANCH  25  28
ATOM     28  N   UNL     1       3.145   2.304  19.014  0.00  0.00    +0.000 NA
ATOM     29  H   UNL     1       3.205   2.154  18.005  0.00  0.00    +0.000 HD
BRANCH  28  30
ATOM     30  C   UNL     1       4.313   2.931  19.661  0.00  0.00    +0.000 C 
BRANCH  30  31
ATOM     31  C   UNL     1       5.075   3.743  18.610  0.00  0.00    +0.000 C 
BRANCH  31  32
ATOM     32  C   UNL     1       5.849   4.927  19.220  0.00  0.00    +0.000 C 
BRANCH  32  33
ATOM     33  N   UNL     1       7.246   4.978  18.759  0.00  0.00    +0.000 NA
ATOM     34  C   UNL     1       7.864   6.321  18.822  0.00  0.00    +0.000 C 
ATOM     35  C   UNL     1       7.421   7.275  17.701  0.00  0.00    +0.000 C 
ATOM     36  O   UNL     1       7.689   6.712  16.413  0.00  0.00    +0.000 OA
ATOM     37  C   UNL     1       7.019   5.455  16.265  0.00  0.00    +0.000 C 
ATOM     38  C   UNL     1       7.409   4.464  17.378  0.00  0.00    +0.000 C 
ENDBRANCH  32  33
ENDBRANCH  31  32
ENDBRANCH  30  31
ENDBRANCH  28  30
ENDBRANCH  25  28
ENDBRANCH   4  25
TORSDOF 10
ENDMDL
MODEL 2
REMARK VINA RESULT:      -7.9      3.546      5.588
REMARK  Name = 
REMARK  10 active torsions:
REMARK  status: ('A' for Active; 'I' for Inactive)
REMARK    1  A    between atoms: C_2  and  C_23
REMARK    2  A    between atoms: N_3  and  C_4
REMARK    3  A    between atoms: C_7  and  S_8
REMARK    4  A    between atoms: S_8  and  N_11
REMARK    5  A    between atoms: N_11  and  C_12
REMARK    6  A    between atoms: C_12  and  C_13
REMARK    7  A    between atoms: C_13  and  C_14
REMARK    8  A    between atoms: C_14  and  N_15
REMARK    9  A    between atoms: C_25  and  C_26
REMARK   10  A    between atoms: C_31  and  O_32
REMARK                            x       y       z     vdW  Elec       q    Type
REMARK                         _______ _______ _______ _____ _____    ______ ____
ROOT
ATOM      1  C   UNL     1       2.602   7.886  18.141  0.00  0.00    +0.000 A 
ATOM      2  C   UNL     1       2.620   6.860  19.087  0.00  0.00    +0.000 A 
ATOM      3  C   UNL     1       3.671   5.951  19.142  0.00  0.00    +0.000 A 
ATOM      4  C   UNL     1       4.718   6.045  18.230  0.00  0.00    +0.000 A 
ATOM      5  C   UNL     1       4.723   7.058  17.266  0.00  0.00    +0.000 A 
ATOM      6  C   UNL     1       3.654   7.969  17.214  0.00  0.00    +0.000 A 
ENDROOT
BRANCH   1   9
ATOM      7  O   UNL     1       1.469   9.512  20.305  0.00  0.00    +0.000 OA
ATOM      8  C   UNL     1       1.034   9.536  19.157  0.00  0.00    +0.000 C 
ATOM      9  N   UNL     1       1.557   8.833  18.081  0.00  0.00    +0.000 N 
ATOM     10  H   UNL     1       1.218   9.084  17.161  0.00  0.00    +0.000 HD
BRANCH   8  11
ATOM     11  C   UNL     1      -0.079  10.384  18.842  0.00  0.00    +0.000 A 
ATOM     12  C   UNL     1      -1.436  10.252  18.999  0.00  0.00    +0.000 A 
ATOM     13  C   UNL     1      -2.017  11.407  18.412  0.00  0.00    +0.000 A 
ATOM     14  N   UNL     1      -1.058  12.259  18.009  0.00  0.00    +0.000 NA
ATOM     15  N   UNL     1       0.091  11.620  18.283  0.00  0.00    +0.000 N 
ATOM     16  H   UNL     1       0.973  12.068  18.053  0.00  0.00    +0.000 HD
BRANCH  13  17
ATOM     17  C   UNL     1      -3.443  11.701  18.260  0.00  0.00    +0.000 A 
ATOM     18  C   UNL     1      -4.203  12.040  19.389  0.00  0.00    +0.000 A 
ATOM     19  C   UNL     1      -5.573  12.296  19.277  0.00  0.00    +0.000 A 
ATOM     20  C   UNL     1      -6.195  12.223  18.032  0.00  0.00    +0.000 A 
ATOM     21  C   UNL     1      -5.453  11.904  16.897  0.00  0.00    +0.000 A 
ATOM     22  C   UNL     1      -4.086  11.646  17.013  0.00  0.00    +0.000 A 
BRANCH  22  23
ATOM     23  O   UNL     1      -3.381  11.353  15.871  0.00  0.00    +0.000 OA
ATOM     24  H   UNL     1      -3.431  10.397  15.706  0.00  0.00    +0.000 HD
ENDBRANCH  22  23
ENDBRANCH  13  17
ENDBRANCH   8  11
ENDBRANCH   1   9
BRANCH   4  25
ATOM     25  S   UNL     1       6.066   4.904  18.378  0.00  0.00    +0.000 S 
ATOM     26  O   UNL     1       7.289   5.661  18.231  0.00  0.00    +0.000 OA
ATOM     27  O   UNL     1       5.833   4.051  19.523  0.00  0.00    +0.000 OA
BRANCH  25  28
ATOM     28  N   UNL     1       5.934   3.946  16.997  0.00  0.00    +0.000 NA
ATOM     29  H   UNL     1       6.480   3.092  17.126  0.00  0.00    +0.000 HD
BRANCH  28  30
ATOM     30  C   UNL     1       4.604   3.795  16.377  0.00  0.00    +0.000 C 
BRANCH  30  31
ATOM     31  C   UNL     1       3.826   2.722  17.145  0.00  0.00    +0.000 C 
BRANCH  31  32
ATOM     32  C   UNL     1       2.411   3.184  17.542  0.00  0.00    +0.000 C 
BRANCH  32  33
ATOM     33  N   UNL     1       1.760   2.251  18.476  0.00  0.00    +0.000 NA
ATOM     34  C   UNL     1       0.538   2.780  19.119  0.00  0.00    +0.000 C 
ATOM     35  C   UNL     1       0.802   3.786  20.251  0.00  0.00    +0.000 C 
ATOM     36  O   UNL     1       1.636   3.213  21.263  0.00  0.00    +0.000 OA
ATOM     37  C   UNL     1       2.882   2.783  20.703  0.00  0.00    +0.000 C 
ATOM     38  C   UNL     1       2.676   1.787  19.546  0.00  0.00    +0.000 C 
ENDBRANCH  32  33
ENDBRANCH  31  32
ENDBRANCH  30  31
ENDBRANCH  28  30
ENDBRANCH  25  28
ENDBRANCH   4  25
TORSDOF 10
ENDMDL
MODEL 3
REMARK VINA RESULT:      -7.8      0.968      1.267
REMARK  Name = 
REMARK  10 active torsions:
REMARK  status: ('A' for Active; 'I' for Inactive)
REMARK    1  A    between atoms: C_2  and  C_23
REMARK    2  A    between atoms: N_3  and  C_4
REMARK    3  A    between atoms: C_7  and  S_8
REMARK    4  A    between atoms: S_8  and  N_11
REMARK    5  A    between atoms: N_11  and  C_12
REMARK    6  A    between atoms: C_12  and  C_13
REMARK    7  A    between atoms: C_13  and  C_14
REMARK    8  A    between atoms: C_14  and  N_15
REMARK    9  A    between atoms: C_25  and  C_26
REMARK   10  A    between atoms: C_31  and  O_32
REMARK                            x       y       z     vdW  Elec       q    Type
REMARK                         _______ _______ _______ _____ _____    ______ ____
ROOT
ATOM      1  C   UNL     1       2.050   7.424  19.167  0.00  0.00    +0.000 A 
ATOM      2  C   UNL     1       2.110   6.596  18.045  0.00  0.00    +0.000 A 
ATOM      3  C   UNL     1       1.968   5.217  18.160  0.00  0.00    +0.000 A 
ATOM      4  C   UNL     1       1.780   4.642  19.414  0.00  0.00    +0.000 A 
ATOM      5  C   UNL     1       1.723   5.446  20.556  0.00  0.00    +0.000 A 
ATOM      6  C   UNL     1       1.874   6.838  20.431  0.00  0.00    +0.000 A 
ENDROOT
BRANCH   1   9
ATOM      7  O   UNL     1      -0.047   9.466  19.372  0.00  0.00    +0.000 OA
ATOM      8  C   UNL     1       1.125   9.739  19.130  0.00  0.00    +0.000 C 
ATOM      9  N   UNL     1       2.170   8.827  19.071  0.00  0.00    +0.000 N 
ATOM     10  H   UNL     1       3.107   9.206  19.045  0.00  0.00    +0.000 HD
BRANCH   8  11
ATOM     11  C   UNL     1       1.504  11.107  18.929  0.00  0.00    +0.000 A 
ATOM     12  C   UNL     1       1.259  12.263  19.628  0.00  0.00    +0.000 A 
ATOM     13  C   UNL     1       1.840  13.315  18.870  0.00  0.00    +0.000 A 
ATOM     14  N   UNL     1       2.501  12.817  17.811  0.00  0.00    +0.000 NA
ATOM     15  N   UNL     1       2.284  11.493  17.875  0.00  0.00    +0.000 N 
ATOM     16  H   UNL     1       2.681  10.892  17.159  0.00  0.00    +0.000 HD
BRANCH  13  17
ATOM     17  C   UNL     1       1.786  14.748  19.160  0.00  0.00    +0.000 A 
ATOM     18  C   UNL     1       2.925  15.397  19.657  0.00  0.00    +0.000 A 
ATOM     19  C   UNL     1       2.892  16.760  19.970  0.00  0.00    +0.000 A 
ATOM     20  C   UNL     1       1.719  17.488  19.782  0.00  0.00    +0.000 A 
ATOM     21  C   UNL     1       0.582  16.864  19.274  0.00  0.00    +0.000 A 
ATOM     22  C   UNL     1       0.618  15.504  18.965  0.00  0.00    +0.000 A 
BRANCH  22  23
ATOM     23  O   UNL     1      -0.516  14.924  18.448  0.00  0.00    +0.000 OA
ATOM     24  H   UNL     1      -0.268  14.364  17.694  0.00  0.00    +0.000 HD
ENDBRANCH  22  23
ENDBRANCH  13  17
ENDBRANCH   8  11
ENDBRANCH   1   9
BRANCH   4  25
ATOM     25  S   UNL     1       1.540   2.888  19.504  0.00  0.00    +0.000 S 
ATOM     26  O   UNL     1       1.127   2.579  20.855  0.00  0.00    +0.000 OA
ATOM     27  O   UNL     1       0.769   2.461  18.357  0.00  0.00    +0.000 OA
BRANCH  25  28
ATOM     28  N   UNL     1       3.095   2.261  19.330  0.00  0.00    +0.000 NA
ATOM     29  H   UNL     1       3.036   1.258  19.145  0.00  0.00    +0.000 HD
BRANCH  28  30
ATOM     30  C   UNL     1       4.071   3.026  18.532  0.00  0.00    +0.000 C 
BRANCH  30  31
ATOM     31  C   UNL     1       5.126   3.608  19.478  0.00  0.00    +0.000 C 
BRANCH  31  32
ATOM     32  C   UNL     1       5.639   4.987  19.021  0.00  0.00    +0.000 C 
BRANCH  32  33
ATOM     33  N   UNL     1       7.051   4.948  18.605  0.00  0.00    +0.000 NA
ATOM     34  C   UNL     1       7.759   6.242  18.717  0.00  0.00    +0.000 C 
ATOM     35  C   UNL     1       7.420   7.248  17.605  0.00  0.00    +0.000 C 
ATOM     36  O   UNL     1       7.689   6.695  16.313  0.00  0.00    +0.000 OA
ATOM     37  C   UNL     1       6.937   5.491  16.116  0.00  0.00    +0.000 C 
ATOM     38  C   UNL     1       7.221   4.452  17.218  0.00  0.00    +0.000 C 
ENDBRANCH  32  33
ENDBRANCH  31  32
ENDBRANCH  30  31
ENDBRANCH  28  30
ENDBRANCH  25  28
ENDBRANCH   4  25
TORSDOF 10
ENDMDL
MODEL 4
REMARK VINA RESULT:      -7.8      1.097      1.718
REMARK  Name = 
REMARK  10 active torsions:
REMARK  status: ('A' for Active; 'I' for Inactive)
REMARK    1  A    between atoms: C_2  and  C_23
REMARK    2  A    between atoms: N_3  and  C_4
REMARK    3  A    between atoms: C_7  and  S_8
REMARK    4  A    between atoms: S_8  and  N_11
REMARK    5  A    between atoms: N_11  and  C_12
REMARK    6  A    between atoms: C_12  and  C_13
REMARK    7  A    between atoms: C_13  and  C_14
REMARK    8  A    between atoms: C_14  and  N_15
REMARK    9  A    between atoms: C_25  and  C_26
REMARK   10  A    between atoms: C_31  and  O_32
REMARK                            x       y       z     vdW  Elec       q    Type
REMARK                         _______ _______ _______ _____ _____    ______ ____
ROOT
ATOM      1  C   UNL     1       1.911   7.535  19.185  0.00  0.00    +0.000 A 
ATOM      2  C   UNL     1       1.827   6.916  20.433  0.00  0.00    +0.000 A 
ATOM      3  C   UNL     1       1.773   5.531  20.549  0.00  0.00    +0.000 A 
ATOM      4  C   UNL     1       1.784   4.740  19.403  0.00  0.00    +0.000 A 
ATOM      5  C   UNL     1       1.860   5.332  18.139  0.00  0.00    +0.000 A 
ATOM      6  C   UNL     1       1.908   6.732  18.033  0.00  0.00    +0.000 A 
ENDROOT
BRANCH   1   9
ATOM      7  O   UNL     1      -0.113   9.559  19.830  0.00  0.00    +0.000 OA
ATOM      8  C   UNL     1       0.972   9.839  19.326  0.00  0.00    +0.000 C 
ATOM      9  N   UNL     1       1.988   8.937  19.046  0.00  0.00    +0.000 N 
ATOM     10  H   UNL     1       2.891   9.324  18.805  0.00  0.00    +0.000 HD
BRANCH   8  11
ATOM     11  C   UNL     1       1.277  11.208  19.027  0.00  0.00    +0.000 A 
ATOM     12  C   UNL     1       0.831  12.403  19.533  0.00  0.00    +0.000 A 
ATOM     13  C   UNL     1       1.455  13.418  18.760  0.00  0.00    +0.000 A 
ATOM     14  N   UNL     1       2.325  12.875  17.890  0.00  0.00    +0.000 NA
ATOM     15  N   UNL     1       2.198  11.551  18.077  0.00  0.00    +0.000 N 
ATOM     16  H   UNL     1       2.756  10.916  17.513  0.00  0.00    +0.000 HD
BRANCH  13  17
ATOM     17  C   UNL     1       1.246  14.863  18.863  0.00  0.00    +0.000 A 
ATOM     18  C   UNL     1      -0.034  15.394  18.653  0.00  0.00    +0.000 A 
ATOM     19  C   UNL     1      -0.255  16.774  18.716  0.00  0.00    +0.000 A 
ATOM     20  C   UNL     1       0.803  17.635  18.998  0.00  0.00    +0.000 A 
ATOM     21  C   UNL     1       2.079  17.124  19.226  0.00  0.00    +0.000 A 
ATOM     22  C   UNL     1       2.296  15.748  19.159  0.00  0.00    +0.000 A 
BRANCH  22  23
ATOM     23  O   UNL     1       3.563  15.277  19.408  0.00  0.00    +0.000 OA
ATOM     24  H   UNL     1       3.518  14.609  20.112  0.00  0.00    +0.000 HD
ENDBRANCH  22  23
ENDBRANCH  13  17
ENDBRANCH   8  11
ENDBRANCH   1   9
BRANCH   4  25
ATOM     25  S   UNL     1       1.779   2.978  19.600  0.00  0.00    +0.000 S 
ATOM     26  O   UNL     1       1.794   2.703  21.019  0.00  0.00    +0.000 OA
ATOM     27  O   UNL     1       0.775   2.412  18.726  0.00  0.00    +0.000 OA
BRANCH  25  28
ATOM     28  N   UNL     1       3.287   2.506  19.012  0.00  0.00    +0.000 NA
ATOM     29  H   UNL     1       3.283   2.561  17.991  0.00  0.00    +0.000 HD
BRANCH  28  30
ATOM     30  C   UNL     1       4.492   3.005  19.698  0.00  0.00    +0.000 C 
BRANCH  30  31
ATOM     31  C   UNL     1       5.148   4.073  18.818  0.00  0.00    +0.000 C 
BRANCH  31  32
ATOM     32  C   UNL     1       5.054   3.745  17.316  0.00  0.00    +0.000 C 
BRANCH  32  33
ATOM     33  N   UNL     1       4.976   4.957  16.484  0.00  0.00    +0.000 NA
ATOM     34  C   UNL     1       5.485   4.788  15.105  0.00  0.00    +0.000 C 
ATOM     35  C   UNL     1       7.018   4.766  14.994  0.00  0.00    +0.000 C 
ATOM     36  O   UNL     1       7.590   5.956  15.545  0.00  0.00    +0.000 OA
ATOM     37  C   UNL     1       7.211   6.105  16.919  0.00  0.00    +0.000 C 
ATOM     38  C   UNL     1       5.680   6.111  17.093  0.00  0.00    +0.000 C 
ENDBRANCH  32  33
ENDBRANCH  31  32
ENDBRANCH  30  31
ENDBRANCH  28  30
ENDBRANCH  25  28
ENDBRANCH   4  25
TORSDOF 10
ENDMDL
MODEL 5
REMARK VINA RESULT:      -7.7      1.554      1.966
REMARK  Name = 
REMARK  10 active torsions:
REMARK  status: ('A' for Active; 'I' for Inactive)
REMARK    1  A    between atoms: C_2  and  C_23
REMARK    2  A    between atoms: N_3  and  C_4
REMARK    3  A    between atoms: C_7  and  S_8
REMARK    4  A    between atoms: S_8  and  N_11
REMARK    5  A    between atoms: N_11  and  C_12
REMARK    6  A    between atoms: C_12  and  C_13
REMARK    7  A    between atoms: C_13  and  C_14
REMARK    8  A    between atoms: C_14  and  N_15
REMARK    9  A    between atoms: C_25  and  C_26
REMARK   10  A    between atoms: C_31  and  O_32
REMARK                            x       y       z     vdW  Elec       q    Type
REMARK                         _______ _______ _______ _____ _____    ______ ____
ROOT
ATOM      1  C   UNL     1       1.855   8.082  19.649  0.00  0.00    +0.000 A 
ATOM      2  C   UNL     1       1.585   7.258  20.742  0.00  0.00    +0.000 A 
ATOM      3  C   UNL     1       1.697   5.875  20.647  0.00  0.00    +0.000 A 
ATOM      4  C   UNL     1       2.067   5.291  19.437  0.00  0.00    +0.000 A 
ATOM      5  C   UNL     1       2.337   6.092  18.323  0.00  0.00    +0.000 A 
ATOM      6  C   UNL     1       2.215   7.488  18.428  0.00  0.00    +0.000 A 
ENDROOT
BRANCH   1   9
ATOM      7  O   UNL     1      -0.491   9.803  19.272  0.00  0.00    +0.000 OA
ATOM      8  C   UNL     1       0.632  10.248  19.492  0.00  0.00    +0.000 C 
ATOM      9  N   UNL     1       1.768   9.488  19.730  0.00  0.00    +0.000 N 
ATOM     10  H   UNL     1       2.583   9.978  20.076  0.00  0.00    +0.000 HD
BRANCH   8  11
ATOM     11  C   UNL     1       0.826  11.667  19.565  0.00  0.00    +0.000 A 
ATOM     12  C   UNL     1       0.428  12.713  18.770  0.00  0.00    +0.000 A 
ATOM     13  C   UNL     1       1.009  13.881  19.332  0.00  0.00    +0.000 A 
ATOM     14  N   UNL     1       1.645  13.581  20.478  0.00  0.00    +0.000 NA
ATOM     15  N   UNL     1       1.515  12.250  20.592  0.00  0.00    +0.000 N 
ATOM     16  H   UNL     1       1.933  11.778  21.389  0.00  0.00    +0.000 HD
BRANCH  13  17
ATOM     17  C   UNL     1       0.939  15.244  18.805  0.00  0.00    +0.000 A 
ATOM     18  C   UNL     1      -0.310  15.861  18.645  0.00  0.00    +0.000 A 
ATOM     19  C   UNL     1      -0.406  17.152  18.115  0.00  0.00    +0.000 A 
ATOM     20  C   UNL     1       0.747  17.842  17.750  0.00  0.00    +0.000 A 
ATOM     21  C   UNL     1       1.998  17.252  17.917  0.00  0.00    +0.000 A 
ATOM     22  C   UNL     1       2.090  15.962  18.442  0.00  0.00    +0.000 A 
BRANCH  22  23
ATOM     23  O   UNL     1       3.341  15.417  18.612  0.00  0.00    +0.000 OA
ATOM     24  H   UNL     1       3.983  16.135  18.738  0.00  0.00    +0.000 HD
ENDBRANCH  22  23
ENDBRANCH  13  17
ENDBRANCH   8  11
ENDBRANCH   1   9
BRANCH   4  25
ATOM     25  S   UNL     1       2.260   3.531  19.379  0.00  0.00    +0.000 S 
ATOM     26  O   UNL     1       2.280   3.054  20.744  0.00  0.00    +0.000 OA
ATOM     27  O   UNL     1       1.343   2.991  18.399  0.00  0.00    +0.000 OA
BRANCH  25  28
ATOM     28  N   UNL     1       3.822   3.319  18.782  0.00  0.00    +0.000 NA
ATOM     29  H   UNL     1       4.398   2.868  19.495  0.00  0.00    +0.000 HD
BRANCH  28  30
ATOM     30  C   UNL     1       3.980   2.833  17.398  0.00  0.00    +0.000 C 
BRANCH  30  31
ATOM     31  C   UNL     1       4.562   3.965  16.547  0.00  0.00    +0.000 C 
BRANCH  31  32
ATOM     32  C   UNL     1       5.897   4.499  17.100  0.00  0.00    +0.000 C 
BRANCH  32  33
ATOM     33  N   UNL     1       5.709   5.648  18.002  0.00  0.00    +0.000 NA
ATOM     34  C   UNL     1       6.070   6.955  17.412  0.00  0.00    +0.000 C 
ATOM     35  C   UNL     1       7.582   7.219  17.332  0.00  0.00    +0.000 C 
ATOM     36  O   UNL     1       8.189   7.121  18.624  0.00  0.00    +0.000 OA
ATOM     37  C   UNL     1       7.958   5.826  19.191  0.00  0.00    +0.000 C 
ATOM     38  C   UNL     1       6.455   5.498  19.275  0.00  0.00    +0.000 C 
ENDBRANCH  32  33
ENDBRANCH  31  32
ENDBRANCH  30  31
ENDBRANCH  28  30
ENDBRANCH  25  28
ENDBRANCH   4  25
TORSDOF 10
ENDMDL
MODEL 6
REMARK VINA RESULT:      -7.7      3.529      5.536
REMARK  Name = 
REMARK  10 active torsions:
REMARK  status: ('A' for Active; 'I' for Inactive)
REMARK    1  A    between atoms: C_2  and  C_23
REMARK    2  A    between atoms: N_3  and  C_4
REMARK    3  A    between atoms: C_7  and  S_8
REMARK    4  A    between atoms: S_8  and  N_11
REMARK    5  A    between atoms: N_11  and  C_12
REMARK    6  A    between atoms: C_12  and  C_13
REMARK    7  A    between atoms: C_13  and  C_14
REMARK    8  A    between atoms: C_14  and  N_15
REMARK    9  A    between atoms: C_25  and  C_26
REMARK   10  A    between atoms: C_31  and  O_32
REMARK                            x       y       z     vdW  Elec       q    Type
REMARK                         _______ _______ _______ _____ _____    ______ ____
ROOT
ATOM      1  C   UNL     1       2.497   7.783  18.453  0.00  0.00    +0.000 A 
ATOM      2  C   UNL     1       2.809   6.841  19.434  0.00  0.00    +0.000 A 
ATOM      3  C   UNL     1       3.926   6.020  19.315  0.00  0.00    +0.000 A 
ATOM      4  C   UNL     1       4.742   6.120  18.192  0.00  0.00    +0.000 A 
ATOM      5  C   UNL     1       4.450   7.049  17.189  0.00  0.00    +0.000 A 
ATOM      6  C   UNL     1       3.316   7.870  17.316  0.00  0.00    +0.000 A 
ENDROOT
BRANCH   1   9
ATOM      7  O   UNL     1       2.351  10.677  17.994  0.00  0.00    +0.000 OA
ATOM      8  C   UNL     1       1.390  10.015  18.379  0.00  0.00    +0.000 C 
ATOM      9  N   UNL     1       1.381   8.640  18.564  0.00  0.00    +0.000 N 
ATOM     10  H   UNL     1       0.480   8.203  18.706  0.00  0.00    +0.000 HD
BRANCH   8  11
ATOM     11  C   UNL     1       0.138  10.668  18.626  0.00  0.00    +0.000 A 
ATOM     12  C   UNL     1      -1.144  10.437  18.194  0.00  0.00    +0.000 A 
ATOM     13  C   UNL     1      -1.937  11.488  18.727  0.00  0.00    +0.000 A 
ATOM     14  N   UNL     1      -1.197  12.267  19.536  0.00  0.00    +0.000 NA
ATOM     15  N   UNL     1       0.039  11.748  19.457  0.00  0.00    +0.000 N 
ATOM     16  H   UNL     1       0.792  12.183  19.983  0.00  0.00    +0.000 HD
BRANCH  13  17
ATOM     17  C   UNL     1      -3.361  11.728  18.493  0.00  0.00    +0.000 A 
ATOM     18  C   UNL     1      -3.916  11.429  17.240  0.00  0.00    +0.000 A 
ATOM     19  C   UNL     1      -5.268  11.677  16.980  0.00  0.00    +0.000 A 
ATOM     20  C   UNL     1      -6.079  12.219  17.974  0.00  0.00    +0.000 A 
ATOM     21  C   UNL     1      -5.550  12.507  19.230  0.00  0.00    +0.000 A 
ATOM     22  C   UNL     1      -4.200  12.262  19.485  0.00  0.00    +0.000 A 
BRANCH  22  23
ATOM     23  O   UNL     1      -3.714  12.540  20.740  0.00  0.00    +0.000 OA
ATOM     24  H   UNL     1      -4.159  13.334  21.081  0.00  0.00    +0.000 HD
ENDBRANCH  22  23
ENDBRANCH  13  17
ENDBRANCH   8  11
ENDBRANCH   1   9
BRANCH   4  25
ATOM     25  S   UNL     1       6.189   5.100  18.113  0.00  0.00    +0.000 S 
ATOM     26  O   UNL     1       7.045   5.644  17.083  0.00  0.00    +0.000 OA
ATOM     27  O   UNL     1       6.671   4.865  19.457  0.00  0.00    +0.000 OA
BRANCH  25  28
ATOM     28  N   UNL     1       5.612   3.631  17.519  0.00  0.00    +0.000 NA
ATOM     29  H   UNL     1       5.755   2.903  18.223  0.00  0.00    +0.000 HD
BRANCH  28  30
ATOM     30  C   UNL     1       4.318   3.624  16.812  0.00  0.00    +0.000 C 
BRANCH  30  31
ATOM     31  C   UNL     1       3.385   2.631  17.512  0.00  0.00    +0.000 C 
BRANCH  31  32
ATOM     32  C   UNL     1       3.748   2.417  18.993  0.00  0.00    +0.000 C 
BRANCH  32  33
ATOM     33  N   UNL     1       2.606   1.929  19.784  0.00  0.00    +0.000 NA
ATOM     34  C   UNL     1       1.281   2.297  19.240  0.00  0.00    +0.000 C 
ATOM     35  C   UNL     1       0.877   3.758  19.491  0.00  0.00    +0.000 C 
ATOM     36  O   UNL     1       0.894   4.063  20.888  0.00  0.00    +0.000 OA
ATOM     37  C   UNL     1       2.195   3.824  21.439  0.00  0.00    +0.000 C 
ATOM     38  C   UNL     1       2.661   2.376  21.197  0.00  0.00    +0.000 C 
ENDBRANCH  32  33
ENDBRANCH  31  32
ENDBRANCH  30  31
ENDBRANCH  28  30
ENDBRANCH  25  28
ENDBRANCH   4  25
TORSDOF 10
ENDMDL
MODEL 7
REMARK VINA RESULT:      -7.6      3.915      5.689
REMARK  Name = 
REMARK  10 active torsions:
REMARK  status: ('A' for Active; 'I' for Inactive)
REMARK    1  A    between atoms: C_2  and  C_23
REMARK    2  A    between atoms: N_3  and  C_4
REMARK    3  A    between atoms: C_7  and  S_8
REMARK    4  A    between atoms: S_8  and  N_11
REMARK    5  A    between atoms: N_11  and  C_12
REMARK    6  A    between atoms: C_12  and  C_13
REMARK    7  A    between atoms: C_13  and  C_14
REMARK    8  A    between atoms: C_14  and  N_15
REMARK    9  A    between atoms: C_25  and  C_26
REMARK   10  A    between atoms: C_31  and  O_32
REMARK                            x       y       z     vdW  Elec       q    Type
REMARK                         _______ _______ _______ _____ _____    ______ ____
ROOT
ATOM      1  C   UNL     1       1.103   8.929  19.821  0.00  0.00    +0.000 A 
ATOM      2  C   UNL     1       1.653   7.783  20.397  0.00  0.00    +0.000 A 
ATOM      3  C   UNL     1       2.590   7.013  19.715  0.00  0.00    +0.000 A 
ATOM      4  C   UNL     1       2.977   7.373  18.427  0.00  0.00    +0.000 A 
ATOM      5  C   UNL     1       2.437   8.512  17.821  0.00  0.00    +0.000 A 
ATOM      6  C   UNL     1       1.487   9.280  18.517  0.00  0.00    +0.000 A 
ENDROOT
BRANCH   1   9
ATOM      7  O   UNL     1       1.534  11.495  21.177  0.00  0.00    +0.000 OA
ATOM      8  C   UNL     1       0.448  10.921  21.168  0.00  0.00    +0.000 C 
ATOM      9  N   UNL     1       0.168   9.736  20.503  0.00  0.00    +0.000 N 
ATOM     10  H   UNL     1      -0.806   9.473  20.428  0.00  0.00    +0.000 HD
BRANCH   8  11
ATOM     11  C   UNL     1      -0.666  11.512  21.849  0.00  0.00    +0.000 A 
ATOM     12  C   UNL     1      -1.360  12.684  21.676  0.00  0.00    +0.000 A 
ATOM     13  C   UNL     1      -2.313  12.739  22.728  0.00  0.00    +0.000 A 
ATOM     14  N   UNL     1      -2.278  11.605  23.450  0.00  0.00    +0.000 NA
ATOM     15  N   UNL     1      -1.285  10.890  22.897  0.00  0.00    +0.000 N 
ATOM     16  H   UNL     1      -1.055   9.980  23.286  0.00  0.00    +0.000 HD
BRANCH  13  17
ATOM     17  C   UNL     1      -3.245  13.829  23.022  0.00  0.00    +0.000 A 
ATOM     18  C   UNL     1      -2.760  15.139  23.143  0.00  0.00    +0.000 A 
ATOM     19  C   UNL     1      -3.625  16.194  23.453  0.00  0.00    +0.000 A 
ATOM     20  C   UNL     1      -4.983  15.949  23.636  0.00  0.00    +0.000 A 
ATOM     21  C   UNL     1      -5.486  14.656  23.503  0.00  0.00    +0.000 A 
ATOM     22  C   UNL     1      -4.620  13.605  23.197  0.00  0.00    +0.000 A 
BRANCH  22  23
ATOM     23  O   UNL     1      -5.151  12.346  23.055  0.00  0.00    +0.000 OA
ATOM     24  H   UNL     1      -4.610  11.845  22.422  0.00  0.00    +0.000 HD
ENDBRANCH  22  23
ENDBRANCH  13  17
ENDBRANCH   8  11
ENDBRANCH   1   9
BRANCH   4  25
ATOM     25  S   UNL     1       4.220   6.401  17.621  0.00  0.00    +0.000 S 
ATOM     26  O   UNL     1       4.485   7.014  16.339  0.00  0.00    +0.000 OA
ATOM     27  O   UNL     1       5.281   6.122  18.564  0.00  0.00    +0.000 OA
BRANCH  25  28
ATOM     28  N   UNL     1       3.438   4.943  17.295  0.00  0.00    +0.000 NA
ATOM     29  H   UNL     1       2.556   5.133  16.814  0.00  0.00    +0.000 HD
BRANCH  28  30
ATOM     30  C   UNL     1       4.243   3.818  16.782  0.00  0.00    +0.000 C 
BRANCH  30  31
ATOM     31  C   UNL     1       3.890   2.561  17.583  0.00  0.00    +0.000 C 
BRANCH  31  32
ATOM     32  C   UNL     1       4.035   2.764  19.103  0.00  0.00    +0.000 C 
BRANCH  32  33
ATOM     33  N   UNL     1       2.956   2.109  19.861  0.00  0.00    +0.000 NA
ATOM     34  C   UNL     1       1.616   2.229  19.246  0.00  0.00    +0.000 C 
ATOM     35  C   UNL     1       0.957   3.605  19.426  0.00  0.00    +0.000 C 
ATOM     36  O   UNL     1       0.853   3.947  20.812  0.00  0.00    +0.000 OA
ATOM     37  C   UNL     1       2.146   3.951  21.427  0.00  0.00    +0.000 C 
ATOM     38  C   UNL     1       2.864   2.599  21.257  0.00  0.00    +0.000 C 
ENDBRANCH  32  33
ENDBRANCH  31  32
ENDBRANCH  30  31
ENDBRANCH  28  30
ENDBRANCH  25  28
ENDBRANCH   4  25
TORSDOF 10
ENDMDL
MODEL 8
REMARK VINA RESULT:      -7.6      4.301     10.876
REMARK  Name = 
REMARK  10 active torsions:
REMARK  status: ('A' for Active; 'I' for Inactive)
REMARK    1  A    between atoms: C_2  and  C_23
REMARK    2  A    between atoms: N_3  and  C_4
REMARK    3  A    between atoms: C_7  and  S_8
REMARK    4  A    between atoms: S_8  and  N_11
REMARK    5  A    between atoms: N_11  and  C_12
REMARK    6  A    between atoms: C_12  and  C_13
REMARK    7  A    between atoms: C_13  and  C_14
REMARK    8  A    between atoms: C_14  and  N_15
REMARK    9  A    between atoms: C_25  and  C_26
REMARK   10  A    between atoms: C_31  and  O_32
REMARK                            x       y       z     vdW  Elec       q    Type
REMARK                         _______ _______ _______ _____ _____    ______ ____
ROOT
ATOM      1  C   UNL     1       2.271   7.794  18.850  0.00  0.00    +0.000 A 
ATOM      2  C   UNL     1       2.027   7.517  20.195  0.00  0.00    +0.000 A 
ATOM      3  C   UNL     1       1.303   8.398  20.992  0.00  0.00    +0.000 A 
ATOM      4  C   UNL     1       0.826   9.590  20.452  0.00  0.00    +0.000 A 
ATOM      5  C   UNL     1       1.062   9.897  19.108  0.00  0.00    +0.000 A 
ATOM      6  C   UNL     1       1.799   9.003  18.313  0.00  0.00    +0.000 A 
ENDROOT
BRANCH   1   9
ATOM      7  O   UNL     1       4.161   5.683  19.610  0.00  0.00    +0.000 OA
ATOM      8  C   UNL     1       3.904   5.956  18.440  0.00  0.00    +0.000 C 
ATOM      9  N   UNL     1       2.983   6.904  18.018  0.00  0.00    +0.000 N 
ATOM     10  H   UNL     1       2.737   6.898  17.036  0.00  0.00    +0.000 HD
BRANCH   8  11
ATOM     11  C   UNL     1       4.549   5.227  17.388  0.00  0.00    +0.000 A 
ATOM     12  C   UNL     1       5.016   5.582  16.147  0.00  0.00    +0.000 A 
ATOM     13  C   UNL     1       5.481   4.384  15.541  0.00  0.00    +0.000 A 
ATOM     14  N   UNL     1       5.401   3.360  16.408  0.00  0.00    +0.000 NA
ATOM     15  N   UNL     1       4.842   3.897  17.505  0.00  0.00    +0.000 N 
ATOM     16  H   UNL     1       4.665   3.304  18.311  0.00  0.00    +0.000 HD
BRANCH  13  17
ATOM     17  C   UNL     1       6.007   4.226  14.185  0.00  0.00    +0.000 A 
ATOM     18  C   UNL     1       5.313   3.431  13.262  0.00  0.00    +0.000 A 
ATOM     19  C   UNL     1       5.810   3.238  11.968  0.00  0.00    +0.000 A 
ATOM     20  C   UNL     1       7.002   3.847  11.584  0.00  0.00    +0.000 A 
ATOM     21  C   UNL     1       7.697   4.655  12.482  0.00  0.00    +0.000 A 
ATOM     22  C   UNL     1       7.201   4.841  13.772  0.00  0.00    +0.000 A 
BRANCH  22  23
ATOM     23  O   UNL     1       7.901   5.659  14.627  0.00  0.00    +0.000 OA
ATOM     24  H   UNL     1       7.708   5.397  15.542  0.00  0.00    +0.000 HD
ENDBRANCH  22  23
ENDBRANCH  13  17
ENDBRANCH   8  11
ENDBRANCH   1   9
BRANCH   4  25
ATOM     25  S   UNL     1      -0.144  10.651  21.487  0.00  0.00    +0.000 S 
ATOM     26  O   UNL     1      -0.795   9.816  22.472  0.00  0.00    +0.000 OA
ATOM     27  O   UNL     1       0.657  11.794  21.868  0.00  0.00    +0.000 OA
BRANCH  25  28
ATOM     28  N   UNL     1      -1.361  11.207  20.461  0.00  0.00    +0.000 NA
ATOM     29  H   UNL     1      -2.253  10.792  20.738  0.00  0.00    +0.000 HD
BRANCH  28  30
ATOM     30  C   UNL     1      -1.378  12.639  20.109  0.00  0.00    +0.000 C 
BRANCH  30  31
ATOM     31  C   UNL     1      -2.818  13.150  20.214  0.00  0.00    +0.000 C 
BRANCH  31  32
ATOM     32  C   UNL     1      -3.102  13.856  21.554  0.00  0.00    +0.000 C 
BRANCH  32  33
ATOM     33  N   UNL     1      -2.374  13.239  22.675  0.00  0.00    +0.000 NA
ATOM     34  C   UNL     1      -3.193  12.344  23.520  0.00  0.00    +0.000 C 
ATOM     35  C   UNL     1      -4.138  13.074  24.488  0.00  0.00    +0.000 C 
ATOM     36  O   UNL     1      -3.412  13.964  25.341  0.00  0.00    +0.000 OA
ATOM     37  C   UNL     1      -2.685  14.923  24.564  0.00  0.00    +0.000 C 
ATOM     38  C   UNL     1      -1.735  14.245  23.559  0.00  0.00    +0.000 C 
ENDBRANCH  32  33
ENDBRANCH  31  32
ENDBRANCH  30  31
ENDBRANCH  28  30
ENDBRANCH  25  28
ENDBRANCH   4  25
TORSDOF 10
ENDMDL
MODEL 9
REMARK VINA RESULT:      -7.5      5.503     11.583
REMARK  Name = 
REMARK  10 active torsions:
REMARK  status: ('A' for Active; 'I' for Inactive)
REMARK    1  A    between atoms: C_2  and  C_23
REMARK    2  A    between atoms: N_3  and  C_4
REMARK    3  A    between atoms: C_7  and  S_8
REMARK    4  A    between atoms: S_8  and  N_11
REMARK    5  A    between atoms: N_11  and  C_12
REMARK    6  A    between atoms: C_12  and  C_13
REMARK    7  A    between atoms: C_13  and  C_14
REMARK    8  A    between atoms: C_14  and  N_15
REMARK    9  A    between atoms: C_25  and  C_26
REMARK   10  A    between atoms: C_31  and  O_32
REMARK                            x       y       z     vdW  Elec       q    Type
REMARK                         _______ _______ _______ _____ _____    ______ ____
ROOT
ATOM      1  C   UNL     1       0.403   9.838  21.251  0.00  0.00    +0.000 A 
ATOM      2  C   UNL     1       0.009  11.017  20.617  0.00  0.00    +0.000 A 
ATOM      3  C   UNL     1      -0.881  11.898  21.223  0.00  0.00    +0.000 A 
ATOM      4  C   UNL     1      -1.409  11.598  22.476  0.00  0.00    +0.000 A 
ATOM      5  C   UNL     1      -1.037  10.420  23.133  0.00  0.00    +0.000 A 
ATOM      6  C   UNL     1      -0.142   9.533  22.510  0.00  0.00    +0.000 A 
ENDROOT
BRANCH   1   9
ATOM      7  O   UNL     1       0.895   9.312  18.407  0.00  0.00    +0.000 OA
ATOM      8  C   UNL     1       1.471   8.704  19.305  0.00  0.00    +0.000 C 
ATOM      9  N   UNL     1       1.320   8.941  20.664  0.00  0.00    +0.000 N 
ATOM     10  H   UNL     1       1.987   8.497  21.283  0.00  0.00    +0.000 HD
BRANCH   8  11
ATOM     11  C   UNL     1       2.422   7.686  18.970  0.00  0.00    +0.000 A 
ATOM     12  C   UNL     1       3.249   7.490  17.892  0.00  0.00    +0.000 A 
ATOM     13  C   UNL     1       3.897   6.245  18.110  0.00  0.00    +0.000 A 
ATOM     14  N   UNL     1       3.563   5.750  19.315  0.00  0.00    +0.000 NA
ATOM     15  N   UNL     1       2.683   6.636  19.806  0.00  0.00    +0.000 N 
ATOM     16  H   UNL     1       2.270   6.470  20.720  0.00  0.00    +0.000 HD
BRANCH  13  17
ATOM     17  C   UNL     1       4.823   5.559  17.208  0.00  0.00    +0.000 A 
ATOM     18  C   UNL     1       6.017   6.190  16.831  0.00  0.00    +0.000 A 
ATOM     19  C   UNL     1       6.904   5.570  15.946  0.00  0.00    +0.000 A 
ATOM     20  C   UNL     1       6.610   4.307  15.438  0.00  0.00    +0.000 A 
ATOM     21  C   UNL     1       5.437   3.657  15.814  0.00  0.00    +0.000 A 
ATOM     22  C   UNL     1       4.552   4.280  16.694  0.00  0.00    +0.000 A 
BRANCH  22  23
ATOM     23  O   UNL     1       3.413   3.603  17.059  0.00  0.00    +0.000 OA
ATOM     24  H   UNL     1       3.663   2.835  17.600  0.00  0.00    +0.000 HD
ENDBRANCH  22  23
ENDBRANCH  13  17
ENDBRANCH   8  11
ENDBRANCH   1   9
BRANCH   4  25
ATOM     25  S   UNL     1      -2.488  12.779  23.238  0.00  0.00    +0.000 S 
ATOM     26  O   UNL     1      -3.546  12.039  23.889  0.00  0.00    +0.000 OA
ATOM     27  O   UNL     1      -1.689  13.751  23.951  0.00  0.00    +0.000 OA
BRANCH  25  28
ATOM     28  N   UNL     1      -3.200  13.571  21.931  0.00  0.00    +0.000 NA
ATOM     29  H   UNL     1      -4.071  13.096  21.682  0.00  0.00    +0.000 HD
BRANCH  28  30
ATOM     30  C   UNL     1      -3.228  15.045  21.938  0.00  0.00    +0.000 C 
BRANCH  30  31
ATOM     31  C   UNL     1      -4.689  15.506  21.906  0.00  0.00    +0.000 C 
BRANCH  31  32
ATOM     32  C   UNL     1      -5.468  15.099  23.170  0.00  0.00    +0.000 C 
BRANCH  32  33
ATOM     33  N   UNL     1      -6.856  14.711  22.870  0.00  0.00    +0.000 NA
ATOM     34  C   UNL     1      -7.518  13.928  23.937  0.00  0.00    +0.000 C 
ATOM     35  C   UNL     1      -7.082  12.456  24.005  0.00  0.00    +0.000 C 
ATOM     36  O   UNL     1      -7.303  11.797  22.754  0.00  0.00    +0.000 OA
ATOM     37  C   UNL     1      -6.590  12.460  21.704  0.00  0.00    +0.000 C 
ATOM     38  C   UNL     1      -6.972  13.949  21.604  0.00  0.00    +0.000 C 
ENDBRANCH  32  33
ENDBRANCH  31  32
ENDBRANCH  30  31
ENDBRANCH  28  30
ENDBRANCH  25  28
ENDBRANCH   4  25
TORSDOF 10
ENDMDL
