MODEL 1
REMARK VINA RESULT:      -8.6      0.000      0.000
REMARK  Name = 
REMARK  7 active torsions:
REMARK  status: ('A' for Active; 'I' for Inactive)
REMARK    1  A    between atoms: C_1  and  C_2
REMARK    2  A    between atoms: C_5  and  N_6
REMARK    3  A    between atoms: C_7  and  C_9
REMARK    4  A    between atoms: N_11  and  C_12
REMARK    5  A    between atoms: C_12  and  C_13
REMARK    6  A    between atoms: C_13  and  C_14
REMARK    7  A    between atoms: C_24  and  C_25
REMARK                            x       y       z     vdW  Elec       q    Type
REMARK                         _______ _______ _______ _____ _____    ______ ____
ROOT
ATOM      1  C   UNL     1       3.106   4.463  19.840  0.00  0.00    +0.000 C 
ATOM      2  O   UNL     1       3.237   3.462  20.521  0.00  0.00    +0.000 OA
ATOM      3  N   UNL     1       3.825   4.796  18.706  0.00  0.00    +0.000 N 
ATOM      4  H   UNL     1       3.572   5.678  18.266  0.00  0.00    +0.000 HD
ENDROOT
BRANCH   1   6
ATOM      5  N   UNL     1       2.458   6.840  20.031  0.00  0.00    +0.000 N 
ATOM      6  C   UNL     1       2.046   5.527  20.202  0.00  0.00    +0.000 C 
ATOM      7  O   UNL     1       0.965   5.106  20.599  0.00  0.00    +0.000 OA
ATOM      8  H   UNL     1       3.402   6.966  19.681  0.00  0.00    +0.000 HD
BRANCH   5  13
ATOM      9  C   UNL     1      -0.659  11.552  21.142  0.00  0.00    +0.000 C 
ATOM     10  C   UNL     1       0.131  10.298  20.885  0.00  0.00    +0.000 A 
ATOM     11  C   UNL     1       0.620  10.069  19.598  0.00  0.00    +0.000 A 
ATOM     12  C   UNL     1       1.376   8.933  19.311  0.00  0.00    +0.000 A 
ATOM     13  C   UNL     1       1.674   7.993  20.294  0.00  0.00    +0.000 A 
ATOM     14  C   UNL     1       1.175   8.209  21.591  0.00  0.00    +0.000 A 
ATOM     15  C   UNL     1       0.399   9.352  21.895  0.00  0.00    +0.000 A 
ATOM     16  C   UNL     1      -0.139   9.558  23.286  0.00  0.00    +0.000 C 
ENDBRANCH   5  13
ENDBRANCH   1   6
BRANCH   3  17
ATOM     17  C   UNL     1       4.875   3.959  18.157  0.00  0.00    +0.000 C 
BRANCH  17  18
ATOM     18  C   UNL     1       4.744   3.735  16.644  0.00  0.00    +0.000 C 
BRANCH  18  19
ATOM     19  C   UNL     1       5.843   4.394  15.865  0.00  0.00    +0.000 A 
ATOM     20  C   UNL     1       6.764   5.304  16.352  0.00  0.00    +0.000 A 
ATOM     21  N   UNL     1       7.599   5.669  15.329  0.00  0.00    +0.000 N 
ATOM     22  C   UNL     1       7.240   5.023  14.169  0.00  0.00    +0.000 A 
ATOM     23  C   UNL     1       7.798   5.102  12.887  0.00  0.00    +0.000 A 
ATOM     24  C   UNL     1       7.219   4.326  11.879  0.00  0.00    +0.000 A 
ATOM     25  C   UNL     1       6.131   3.499  12.150  0.00  0.00    +0.000 A 
ATOM     26  C   UNL     1       5.590   3.429  13.441  0.00  0.00    +0.000 A 
ATOM     27  C   UNL     1       6.148   4.209  14.474  0.00  0.00    +0.000 A 
ATOM     28  H   UNL     1       8.366   6.321  15.405  0.00  0.00    +0.000 HD
ENDBRANCH  18  19
ENDBRANCH  17  18
ENDBRANCH   3  17
TORSDOF 5
ENDMDL
MODEL 2
REMARK VINA RESULT:      -8.5      5.706      8.161
REMARK  Name = 
REMARK  7 active torsions:
REMARK  status: ('A' for Active; 'I' for Inactive)
REMARK    1  A    between atoms: C_1  and  C_2
REMARK    2  A    between atoms: C_5  and  N_6
REMARK    3  A    between atoms: C_7  and  C_9
REMARK    4  A    between atoms: N_11  and  C_12
REMARK    5  A    between atoms: C_12  and  C_13
REMARK    6  A    between atoms: C_13  and  C_14
REMARK    7  A    between atoms: C_24  and  C_25
REMARK                            x       y       z     vdW  Elec       q    Type
REMARK                         _______ _______ _______ _____ _____    ______ ____
ROOT
ATOM      1  C   UNL     1       7.260   6.651  17.166  0.00  0.00    +0.000 C 
ATOM      2  O   UNL     1       7.911   6.538  16.143  0.00  0.00    +0.000 OA
ATOM      3  N   UNL     1       7.246   7.733  18.027  0.00  0.00    +0.000 N 
ATOM      4  H   UNL     1       6.635   7.647  18.836  0.00  0.00    +0.000 HD
ENDROOT
BRANCH   1   6
ATOM      5  N   UNL     1       4.967   5.787  17.489  0.00  0.00    +0.000 N 
ATOM      6  C   UNL     1       6.320   5.516  17.628  0.00  0.00    +0.000 C 
ATOM      7  O   UNL     1       6.860   4.506  18.067  0.00  0.00    +0.000 OA
ATOM      8  H   UNL     1       4.737   6.692  17.092  0.00  0.00    +0.000 HD
BRANCH   5  13
ATOM      9  C   UNL     1       0.612   2.292  18.895  0.00  0.00    +0.000 C 
ATOM     10  C   UNL     1       1.757   3.216  18.573  0.00  0.00    +0.000 A 
ATOM     11  C   UNL     1       2.527   2.953  17.439  0.00  0.00    +0.000 A 
ATOM     12  C   UNL     1       3.587   3.787  17.085  0.00  0.00    +0.000 A 
ATOM     13  C   UNL     1       3.908   4.912  17.841  0.00  0.00    +0.000 A 
ATOM     14  C   UNL     1       3.145   5.177  18.992  0.00  0.00    +0.000 A 
ATOM     15  C   UNL     1       2.074   4.334  19.369  0.00  0.00    +0.000 A 
ATOM     16  C   UNL     1       1.277   4.627  20.613  0.00  0.00    +0.000 C 
ENDBRANCH   5  13
ENDBRANCH   1   6
BRANCH   3  17
ATOM     17  C   UNL     1       8.040   8.929  17.813  0.00  0.00    +0.000 C 
BRANCH  17  18
ATOM     18  C   UNL     1       8.952   9.273  18.998  0.00  0.00    +0.000 C 
BRANCH  18  19
ATOM     19  C   UNL     1       9.433  10.693  18.964  0.00  0.00    +0.000 A 
ATOM     20  C   UNL     1       9.964  11.355  17.870  0.00  0.00    +0.000 A 
ATOM     21  N   UNL     1      10.281  12.633  18.247  0.00  0.00    +0.000 N 
ATOM     22  C   UNL     1       9.979  12.827  19.574  0.00  0.00    +0.000 A 
ATOM     23  C   UNL     1      10.147  13.962  20.379  0.00  0.00    +0.000 A 
ATOM     24  C   UNL     1       9.752  13.872  21.716  0.00  0.00    +0.000 A 
ATOM     25  C   UNL     1       9.203  12.697  22.222  0.00  0.00    +0.000 A 
ATOM     26  C   UNL     1       9.037  11.574  21.401  0.00  0.00    +0.000 A 
ATOM     27  C   UNL     1       9.438  11.632  20.051  0.00  0.00    +0.000 A 
ATOM     28  H   UNL     1      10.684  13.337  17.645  0.00  0.00    +0.000 HD
ENDBRANCH  18  19
ENDBRANCH  17  18
ENDBRANCH   3  17
TORSDOF 5
ENDMDL
MODEL 3
REMARK VINA RESULT:      -8.5      5.583      7.989
REMARK  Name = 
REMARK  7 active torsions:
REMARK  status: ('A' for Active; 'I' for Inactive)
REMARK    1  A    between atoms: C_1  and  C_2
REMARK    2  A    between atoms: C_5  and  N_6
REMARK    3  A    between atoms: C_7  and  C_9
REMARK    4  A    between atoms: N_11  and  C_12
REMARK    5  A    between atoms: C_12  and  C_13
REMARK    6  A    between atoms: C_13  and  C_14
REMARK    7  A    between atoms: C_24  and  C_25
REMARK                            x       y       z     vdW  Elec       q    Type
REMARK                         _______ _______ _______ _____ _____    ______ ____
ROOT
ATOM      1  C   UNL     1       7.788   7.372  17.979  0.00  0.00    +0.000 C 
ATOM      2  O   UNL     1       8.090   6.580  18.854  0.00  0.00    +0.000 OA
ATOM      3  N   UNL     1       7.132   7.090  16.794  0.00  0.00    +0.000 N 
ATOM      4  H   UNL     1       6.964   7.886  16.183  0.00  0.00    +0.000 HD
ENDROOT
BRANCH   1   6
ATOM      5  N   UNL     1       9.094   9.159  19.079  0.00  0.00    +0.000 N 
ATOM      6  C   UNL     1       8.131   8.871  18.123  0.00  0.00    +0.000 C 
ATOM      7  O   UNL     1       7.524   9.642  17.388  0.00  0.00    +0.000 OA
ATOM      8  H   UNL     1       9.477   8.360  19.575  0.00  0.00    +0.000 HD
BRANCH   5  13
ATOM      9  C   UNL     1      11.002  14.443  20.340  0.00  0.00    +0.000 C 
ATOM     10  C   UNL     1      10.538  13.058  19.979  0.00  0.00    +0.000 A 
ATOM     11  C   UNL     1       9.905  12.290  20.957  0.00  0.00    +0.000 A 
ATOM     12  C   UNL     1       9.438  11.008  20.670  0.00  0.00    +0.000 A 
ATOM     13  C   UNL     1       9.579  10.453  19.401  0.00  0.00    +0.000 A 
ATOM     14  C   UNL     1      10.227  11.213  18.412  0.00  0.00    +0.000 A 
ATOM     15  C   UNL     1      10.715  12.512  18.692  0.00  0.00    +0.000 A 
ATOM     16  C   UNL     1      11.419  13.306  17.623  0.00  0.00    +0.000 C 
ENDBRANCH   5  13
ENDBRANCH   1   6
BRANCH   3  17
ATOM     17  C   UNL     1       6.698   5.757  16.424  0.00  0.00    +0.000 C 
BRANCH  17  18
ATOM     18  C   UNL     1       5.200   5.674  16.098  0.00  0.00    +0.000 C 
BRANCH  18  19
ATOM     19  C   UNL     1       4.437   4.852  17.093  0.00  0.00    +0.000 A 
ATOM     20  C   UNL     1       4.393   3.470  17.157  0.00  0.00    +0.000 A 
ATOM     21  N   UNL     1       3.588   3.107  18.203  0.00  0.00    +0.000 N 
ATOM     22  C   UNL     1       3.088   4.225  18.829  0.00  0.00    +0.000 A 
ATOM     23  C   UNL     1       2.221   4.330  19.924  0.00  0.00    +0.000 A 
ATOM     24  C   UNL     1       1.870   5.614  20.351  0.00  0.00    +0.000 A 
ATOM     25  C   UNL     1       2.375   6.743  19.712  0.00  0.00    +0.000 A 
ATOM     26  C   UNL     1       3.246   6.618  18.622  0.00  0.00    +0.000 A 
ATOM     27  C   UNL     1       3.609   5.335  18.162  0.00  0.00    +0.000 A 
ATOM     28  H   UNL     1       3.381   2.158  18.480  0.00  0.00    +0.000 HD
ENDBRANCH  18  19
ENDBRANCH  17  18
ENDBRANCH   3  17
TORSDOF 5
ENDMDL
MODEL 4
REMARK VINA RESULT:      -8.5      5.312      7.448
REMARK  Name = 
REMARK  7 active torsions:
REMARK  status: ('A' for Active; 'I' for Inactive)
REMARK    1  A    between atoms: C_1  and  C_2
REMARK    2  A    between atoms: C_5  and  N_6
REMARK    3  A    between atoms: C_7  and  C_9
REMARK    4  A    between atoms: N_11  and  C_12
REMARK    5  A    between atoms: C_12  and  C_13
REMARK    6  A    between atoms: C_13  and  C_14
REMARK    7  A    between atoms: C_24  and  C_25
REMARK                            x       y       z     vdW  Elec       q    Type
REMARK                         _______ _______ _______ _____ _____    ______ ____
ROOT
ATOM      1  C   UNL     1       7.743   6.645  18.264  0.00  0.00    +0.000 C 
ATOM      2  O   UNL     1       8.094   6.060  19.274  0.00  0.00    +0.000 OA
ATOM      3  N   UNL     1       7.065   6.106  17.186  0.00  0.00    +0.000 N 
ATOM      4  H   UNL     1       6.854   6.753  16.429  0.00  0.00    +0.000 HD
ENDROOT
BRANCH   1   6
ATOM      5  N   UNL     1       8.845   8.706  19.068  0.00  0.00    +0.000 N 
ATOM      6  C   UNL     1       8.042   8.149  18.084  0.00  0.00    +0.000 C 
ATOM      7  O   UNL     1       7.542   8.689  17.103  0.00  0.00    +0.000 OA
ATOM      8  H   UNL     1       9.159   8.070  19.794  0.00  0.00    +0.000 HD
BRANCH   5  13
ATOM      9  C   UNL     1      10.596  14.184  19.353  0.00  0.00    +0.000 C 
ATOM     10  C   UNL     1      10.110  12.760  19.315  0.00  0.00    +0.000 A 
ATOM     11  C   UNL     1      10.092  12.094  18.089  0.00  0.00    +0.000 A 
ATOM     12  C   UNL     1       9.670  10.767  18.001  0.00  0.00    +0.000 A 
ATOM     13  C   UNL     1       9.259  10.062  19.129  0.00  0.00    +0.000 A 
ATOM     14  C   UNL     1       9.261  10.729  20.366  0.00  0.00    +0.000 A 
ATOM     15  C   UNL     1       9.677  12.077  20.469  0.00  0.00    +0.000 A 
ATOM     16  C   UNL     1       9.659  12.779  21.801  0.00  0.00    +0.000 C 
ENDBRANCH   5  13
ENDBRANCH   1   6
BRANCH   3  17
ATOM     17  C   UNL     1       6.664   4.714  17.114  0.00  0.00    +0.000 C 
BRANCH  17  18
ATOM     18  C   UNL     1       5.309   4.507  16.423  0.00  0.00    +0.000 C 
BRANCH  18  19
ATOM     19  C   UNL     1       4.149   4.846  17.311  0.00  0.00    +0.000 A 
ATOM     20  C   UNL     1       3.722   6.116  17.655  0.00  0.00    +0.000 A 
ATOM     21  N   UNL     1       2.635   6.000  18.481  0.00  0.00    +0.000 N 
ATOM     22  C   UNL     1       2.341   4.675  18.698  0.00  0.00    +0.000 A 
ATOM     23  C   UNL     1       1.334   4.093  19.479  0.00  0.00    +0.000 A 
ATOM     24  C   UNL     1       1.272   2.698  19.522  0.00  0.00    +0.000 A 
ATOM     25  C   UNL     1       2.177   1.920  18.804  0.00  0.00    +0.000 A 
ATOM     26  C   UNL     1       3.174   2.519  18.024  0.00  0.00    +0.000 A 
ATOM     27  C   UNL     1       3.267   3.925  17.971  0.00  0.00    +0.000 A 
ATOM     28  H   UNL     1       2.121   6.772  18.882  0.00  0.00    +0.000 HD
ENDBRANCH  18  19
ENDBRANCH  17  18
ENDBRANCH   3  17
TORSDOF 5
ENDMDL
MODEL 5
REMARK VINA RESULT:      -8.4      5.190      7.607
REMARK  Name = 
REMARK  7 active torsions:
REMARK  status: ('A' for Active; 'I' for Inactive)
REMARK    1  A    between atoms: C_1  and  C_2
REMARK    2  A    between atoms: C_5  and  N_6
REMARK    3  A    between atoms: C_7  and  C_9
REMARK    4  A    between atoms: N_11  and  C_12
REMARK    5  A    between atoms: C_12  and  C_13
REMARK    6  A    between atoms: C_13  and  C_14
REMARK    7  A    between atoms: C_24  and  C_25
REMARK                            x       y       z     vdW  Elec       q    Type
REMARK                         _______ _______ _______ _____ _____    ______ ____
ROOT
ATOM      1  C   UNL     1       7.640   6.633  18.216  0.00  0.00    +0.000 C 
ATOM      2  O   UNL     1       7.937   6.045  19.240  0.00  0.00    +0.000 OA
ATOM      3  N   UNL     1       7.024   6.097  17.099  0.00  0.00    +0.000 N 
ATOM      4  H   UNL     1       6.854   6.747  16.335  0.00  0.00    +0.000 HD
ENDROOT
BRANCH   1   6
ATOM      5  N   UNL     1       8.845   8.651  18.979  0.00  0.00    +0.000 N 
ATOM      6  C   UNL     1       7.943   8.140  18.059  0.00  0.00    +0.000 C 
ATOM      7  O   UNL     1       7.361   8.720  17.149  0.00  0.00    +0.000 OA
ATOM      8  H   UNL     1       9.217   7.987  19.650  0.00  0.00    +0.000 HD
BRANCH   5  13
ATOM      9  C   UNL     1      10.695  14.095  19.288  0.00  0.00    +0.000 C 
ATOM     10  C   UNL     1      10.183  12.681  19.244  0.00  0.00    +0.000 A 
ATOM     11  C   UNL     1      10.173  12.014  18.018  0.00  0.00    +0.000 A 
ATOM     12  C   UNL     1       9.727  10.696  17.924  0.00  0.00    +0.000 A 
ATOM     13  C   UNL     1       9.284   9.999  19.046  0.00  0.00    +0.000 A 
ATOM     14  C   UNL     1       9.278  10.668  20.283  0.00  0.00    +0.000 A 
ATOM     15  C   UNL     1       9.719  12.008  20.391  0.00  0.00    +0.000 A 
ATOM     16  C   UNL     1       9.692  12.711  21.722  0.00  0.00    +0.000 C 
ENDBRANCH   5  13
ENDBRANCH   1   6
BRANCH   3  17
ATOM     17  C   UNL     1       6.633   4.704  16.999  0.00  0.00    +0.000 C 
BRANCH  17  18
ATOM     18  C   UNL     1       5.206   4.511  16.469  0.00  0.00    +0.000 C 
BRANCH  18  19
ATOM     19  C   UNL     1       4.254   4.040  17.528  0.00  0.00    +0.000 A 
ATOM     20  C   UNL     1       3.932   2.726  17.818  0.00  0.00    +0.000 A 
ATOM     21  N   UNL     1       3.030   2.716  18.848  0.00  0.00    +0.000 N 
ATOM     22  C   UNL     1       2.740   4.002  19.239  0.00  0.00    +0.000 A 
ATOM     23  C   UNL     1       1.869   4.464  20.234  0.00  0.00    +0.000 A 
ATOM     24  C   UNL     1       1.766   5.847  20.413  0.00  0.00    +0.000 A 
ATOM     25  C   UNL     1       2.513   6.726  19.633  0.00  0.00    +0.000 A 
ATOM     26  C   UNL     1       3.383   6.245  18.647  0.00  0.00    +0.000 A 
ATOM     27  C   UNL     1       3.498   4.856  18.436  0.00  0.00    +0.000 A 
ATOM     28  H   UNL     1       2.625   1.889  19.263  0.00  0.00    +0.000 HD
ENDBRANCH  18  19
ENDBRANCH  17  18
ENDBRANCH   3  17
TORSDOF 5
ENDMDL
MODEL 6
REMARK VINA RESULT:      -8.2      5.423      8.014
REMARK  Name = 
REMARK  7 active torsions:
REMARK  status: ('A' for Active; 'I' for Inactive)
REMARK    1  A    between atoms: C_1  and  C_2
REMARK    2  A    between atoms: C_5  and  N_6
REMARK    3  A    between atoms: C_7  and  C_9
REMARK    4  A    between atoms: N_11  and  C_12
REMARK    5  A    between atoms: C_12  and  C_13
REMARK    6  A    between atoms: C_13  and  C_14
REMARK    7  A    between atoms: C_24  and  C_25
REMARK                            x       y       z     vdW  Elec       q    Type
REMARK                         _______ _______ _______ _____ _____    ______ ____
ROOT
ATOM      1  C   UNL     1       7.836   6.921  18.330  0.00  0.00    +0.000 C 
ATOM      2  O   UNL     1       8.399   6.246  19.174  0.00  0.00    +0.000 OA
ATOM      3  N   UNL     1       6.904   6.487  17.405  0.00  0.00    +0.000 N 
ATOM      4  H   UNL     1       6.540   7.200  16.777  0.00  0.00    +0.000 HD
ENDROOT
BRANCH   1   6
ATOM      5  N   UNL     1       8.984   8.939  19.178  0.00  0.00    +0.000 N 
ATOM      6  C   UNL     1       8.130   8.433  18.209  0.00  0.00    +0.000 C 
ATOM      7  O   UNL     1       7.585   9.020  17.282  0.00  0.00    +0.000 OA
ATOM      8  H   UNL     1       9.331   8.269  19.855  0.00  0.00    +0.000 HD
BRANCH   5  13
ATOM      9  C   UNL     1      10.627  14.444  19.564  0.00  0.00    +0.000 C 
ATOM     10  C   UNL     1      10.230  12.999  19.429  0.00  0.00    +0.000 A 
ATOM     11  C   UNL     1       9.722  12.340  20.550  0.00  0.00    +0.000 A 
ATOM     12  C   UNL     1       9.320  11.006  20.475  0.00  0.00    +0.000 A 
ATOM     13  C   UNL     1       9.405  10.290  19.284  0.00  0.00    +0.000 A 
ATOM     14  C   UNL     1       9.928  10.942  18.153  0.00  0.00    +0.000 A 
ATOM     15  C   UNL     1      10.348  12.291  18.217  0.00  0.00    +0.000 A 
ATOM     16  C   UNL     1      10.919  12.968  16.998  0.00  0.00    +0.000 C 
ENDBRANCH   5  13
ENDBRANCH   1   6
BRANCH   3  17
ATOM     17  C   UNL     1       6.454   5.111  17.316  0.00  0.00    +0.000 C 
BRANCH  17  18
ATOM     18  C   UNL     1       5.664   4.649  18.548  0.00  0.00    +0.000 C 
BRANCH  18  19
ATOM     19  C   UNL     1       4.321   4.083  18.194  0.00  0.00    +0.000 A 
ATOM     20  C   UNL     1       3.908   3.668  16.941  0.00  0.00    +0.000 A 
ATOM     21  N   UNL     1       2.619   3.215  17.034  0.00  0.00    +0.000 N 
ATOM     22  C   UNL     1       2.167   3.332  18.328  0.00  0.00    +0.000 A 
ATOM     23  C   UNL     1       0.919   3.009  18.876  0.00  0.00    +0.000 A 
ATOM     24  C   UNL     1       0.732   3.241  20.242  0.00  0.00    +0.000 A 
ATOM     25  C   UNL     1       1.757   3.766  21.024  0.00  0.00    +0.000 A 
ATOM     26  C   UNL     1       3.001   4.077  20.459  0.00  0.00    +0.000 A 
ATOM     27  C   UNL     1       3.214   3.864  19.082  0.00  0.00    +0.000 A 
ATOM     28  H   UNL     1       2.070   2.852  16.269  0.00  0.00    +0.000 HD
ENDBRANCH  18  19
ENDBRANCH  17  18
ENDBRANCH   3  17
TORSDOF 5
ENDMDL
MODEL 7
REMARK VINA RESULT:      -8.2      5.195      7.893
REMARK  Name = 
REMARK  7 active torsions:
REMARK  status: ('A' for Active; 'I' for Inactive)
REMARK    1  A    between atoms: C_1  and  C_2
REMARK    2  A    between atoms: C_5  and  N_6
REMARK    3  A    between atoms: C_7  and  C_9
REMARK    4  A    between atoms: N_11  and  C_12
REMARK    5  A    between atoms: C_12  and  C_13
REMARK    6  A    between atoms: C_13  and  C_14
REMARK    7  A    between atoms: C_24  and  C_25
REMARK                            x       y       z     vdW  Elec       q    Type
REMARK                         _______ _______ _______ _____ _____    ______ ____
ROOT
ATOM      1  C   UNL     1       7.045   7.068  17.263  0.00  0.00    +0.000 C 
ATOM      2  O   UNL     1       7.439   6.284  16.418  0.00  0.00    +0.000 OA
ATOM      3  N   UNL     1       5.732   7.318  17.617  0.00  0.00    +0.000 N 
ATOM      4  H   UNL     1       5.596   8.011  18.350  0.00  0.00    +0.000 HD
ENDROOT
BRANCH   1   6
ATOM      5  N   UNL     1       8.149   9.239  17.683  0.00  0.00    +0.000 N 
ATOM      6  C   UNL     1       8.048   7.914  18.079  0.00  0.00    +0.000 C 
ATOM      7  O   UNL     1       8.645   7.333  18.978  0.00  0.00    +0.000 OA
ATOM      8  H   UNL     1       7.551   9.517  16.911  0.00  0.00    +0.000 HD
BRANCH   5  13
ATOM      9  C   UNL     1      11.623  13.139  20.107  0.00  0.00    +0.000 C 
ATOM     10  C   UNL     1      10.681  12.134  19.502  0.00  0.00    +0.000 A 
ATOM     11  C   UNL     1      10.864  11.766  18.168  0.00  0.00    +0.000 A 
ATOM     12  C   UNL     1      10.031  10.824  17.565  0.00  0.00    +0.000 A 
ATOM     13  C   UNL     1       8.996  10.215  18.269  0.00  0.00    +0.000 A 
ATOM     14  C   UNL     1       8.796  10.589  19.610  0.00  0.00    +0.000 A 
ATOM     15  C   UNL     1       9.626  11.550  20.232  0.00  0.00    +0.000 A 
ATOM     16  C   UNL     1       9.387  11.948  21.665  0.00  0.00    +0.000 C 
ENDBRANCH   5  13
ENDBRANCH   1   6
BRANCH   3  17
ATOM     17  C   UNL     1       4.602   6.648  17.001  0.00  0.00    +0.000 C 
BRANCH  17  18
ATOM     18  C   UNL     1       3.248   7.248  17.402  0.00  0.00    +0.000 C 
BRANCH  18  19
ATOM     19  C   UNL     1       2.656   6.584  18.610  0.00  0.00    +0.000 A 
ATOM     20  C   UNL     1       2.497   7.149  19.863  0.00  0.00    +0.000 A 
ATOM     21  N   UNL     1       1.920   6.221  20.689  0.00  0.00    +0.000 N 
ATOM     22  C   UNL     1       1.702   5.047  20.006  0.00  0.00    +0.000 A 
ATOM     23  C   UNL     1       1.153   3.837  20.451  0.00  0.00    +0.000 A 
ATOM     24  C   UNL     1       1.055   2.792  19.528  0.00  0.00    +0.000 A 
ATOM     25  C   UNL     1       1.482   2.958  18.213  0.00  0.00    +0.000 A 
ATOM     26  C   UNL     1       2.023   4.178  17.785  0.00  0.00    +0.000 A 
ATOM     27  C   UNL     1       2.145   5.245  18.697  0.00  0.00    +0.000 A 
ATOM     28  H   UNL     1       1.689   6.366  21.661  0.00  0.00    +0.000 HD
ENDBRANCH  18  19
ENDBRANCH  17  18
ENDBRANCH   3  17
TORSDOF 5
ENDMDL
MODEL 8
REMARK VINA RESULT:      -8.2      5.872      7.968
REMARK  Name = 
REMARK  7 active torsions:
REMARK  status: ('A' for Active; 'I' for Inactive)
REMARK    1  A    between atoms: C_1  and  C_2
REMARK    2  A    between atoms: C_5  and  N_6
REMARK    3  A    between atoms: C_7  and  C_9
REMARK    4  A    between atoms: N_11  and  C_12
REMARK    5  A    between atoms: C_12  and  C_13
REMARK    6  A    between atoms: C_13  and  C_14
REMARK    7  A    between atoms: C_24  and  C_25
REMARK                            x       y       z     vdW  Elec       q    Type
REMARK                         _______ _______ _______ _____ _____    ______ ____
ROOT
ATOM      1  C   UNL     1       7.313   7.010  17.351  0.00  0.00    +0.000 C 
ATOM      2  O   UNL     1       7.828   6.701  16.291  0.00  0.00    +0.000 OA
ATOM      3  N   UNL     1       7.521   8.175  18.067  0.00  0.00    +0.000 N 
ATOM      4  H   UNL     1       6.998   8.258  18.936  0.00  0.00    +0.000 HD
ENDROOT
BRANCH   1   6
ATOM      5  N   UNL     1       5.150   5.815  17.315  0.00  0.00    +0.000 N 
ATOM      6  C   UNL     1       6.306   6.063  18.040  0.00  0.00    +0.000 C 
ATOM      7  O   UNL     1       6.628   5.636  19.143  0.00  0.00    +0.000 OA
ATOM      8  H   UNL     1       5.090   6.270  16.410  0.00  0.00    +0.000 HD
BRANCH   5  13
ATOM      9  C   UNL     1       0.738   2.505  18.969  0.00  0.00    +0.000 C 
ATOM     10  C   UNL     1       1.898   3.383  18.581  0.00  0.00    +0.000 A 
ATOM     11  C   UNL     1       2.659   3.029  17.467  0.00  0.00    +0.000 A 
ATOM     12  C   UNL     1       3.732   3.818  17.053  0.00  0.00    +0.000 A 
ATOM     13  C   UNL     1       4.076   4.985  17.729  0.00  0.00    +0.000 A 
ATOM     14  C   UNL     1       3.323   5.343  18.861  0.00  0.00    +0.000 A 
ATOM     15  C   UNL     1       2.238   4.547  19.298  0.00  0.00    +0.000 A 
ATOM     16  C   UNL     1       1.451   4.940  20.521  0.00  0.00    +0.000 C 
ENDBRANCH   5  13
ENDBRANCH   1   6
BRANCH   3  17
ATOM     17  C   UNL     1       8.418   9.227  17.630  0.00  0.00    +0.000 C 
BRANCH  17  18
ATOM     18  C   UNL     1       8.888  10.138  18.772  0.00  0.00    +0.000 C 
BRANCH  18  19
ATOM     19  C   UNL     1       9.871  11.176  18.316  0.00  0.00    +0.000 A 
ATOM     20  C   UNL     1      11.191  10.960  17.965  0.00  0.00    +0.000 A 
ATOM     21  N   UNL     1      11.749  12.158  17.608  0.00  0.00    +0.000 N 
ATOM     22  C   UNL     1      10.823  13.168  17.726  0.00  0.00    +0.000 A 
ATOM     23  C   UNL     1      10.955  14.541  17.484  0.00  0.00    +0.000 A 
ATOM     24  C   UNL     1       9.832  15.347  17.696  0.00  0.00    +0.000 A 
ATOM     25  C   UNL     1       8.627  14.796  18.124  0.00  0.00    +0.000 A 
ATOM     26  C   UNL     1       8.513  13.419  18.355  0.00  0.00    +0.000 A 
ATOM     27  C   UNL     1       9.632  12.583  18.160  0.00  0.00    +0.000 A 
ATOM     28  H   UNL     1      12.703  12.292  17.305  0.00  0.00    +0.000 HD
ENDBRANCH  18  19
ENDBRANCH  17  18
ENDBRANCH   3  17
TORSDOF 5
ENDMDL
MODEL 9
REMARK VINA RESULT:      -8.1      4.972      8.205
REMARK  Name = 
REMARK  7 active torsions:
REMARK  status: ('A' for Active; 'I' for Inactive)
REMARK    1  A    between atoms: C_1  and  C_2
REMARK    2  A    between atoms: C_5  and  N_6
REMARK    3  A    between atoms: C_7  and  C_9
REMARK    4  A    between atoms: N_11  and  C_12
REMARK    5  A    between atoms: C_12  and  C_13
REMARK    6  A    between atoms: C_13  and  C_14
REMARK    7  A    between atoms: C_24  and  C_25
REMARK                            x       y       z     vdW  Elec       q    Type
REMARK                         _______ _______ _______ _____ _____    ______ ____
ROOT
ATOM      1  C   UNL     1       6.973   6.868  17.071  0.00  0.00    +0.000 C 
ATOM      2  O   UNL     1       7.421   6.223  16.140  0.00  0.00    +0.000 OA
ATOM      3  N   UNL     1       5.645   6.980  17.442  0.00  0.00    +0.000 N 
ATOM      4  H   UNL     1       5.462   7.567  18.253  0.00  0.00    +0.000 HD
ENDROOT
BRANCH   1   6
ATOM      5  N   UNL     1       8.050   9.015  17.654  0.00  0.00    +0.000 N 
ATOM      6  C   UNL     1       7.915   7.677  17.991  0.00  0.00    +0.000 C 
ATOM      7  O   UNL     1       8.439   7.059  18.911  0.00  0.00    +0.000 OA
ATOM      8  H   UNL     1       7.514   9.325  16.850  0.00  0.00    +0.000 HD
BRANCH   5  13
ATOM      9  C   UNL     1      11.260  12.923  20.408  0.00  0.00    +0.000 C 
ATOM     10  C   UNL     1      10.452  11.902  19.652  0.00  0.00    +0.000 A 
ATOM     11  C   UNL     1       9.700  10.976  20.378  0.00  0.00    +0.000 A 
ATOM     12  C   UNL     1       8.918  10.022  19.727  0.00  0.00    +0.000 A 
ATOM     13  C   UNL     1       8.854   9.963  18.338  0.00  0.00    +0.000 A 
ATOM     14  C   UNL     1       9.618  10.883  17.599  0.00  0.00    +0.000 A 
ATOM     15  C   UNL     1      10.423  11.851  18.244  0.00  0.00    +0.000 A 
ATOM     16  C   UNL     1      11.245  12.819  17.435  0.00  0.00    +0.000 C 
ENDBRANCH   5  13
ENDBRANCH   1   6
BRANCH   3  17
ATOM     17  C   UNL     1       4.565   6.313  16.741  0.00  0.00    +0.000 C 
BRANCH  17  18
ATOM     18  C   UNL     1       3.753   5.367  17.636  0.00  0.00    +0.000 C 
BRANCH  18  19
ATOM     19  C   UNL     1       3.050   6.087  18.749  0.00  0.00    +0.000 A 
ATOM     20  C   UNL     1       2.864   5.622  20.039  0.00  0.00    +0.000 A 
ATOM     21  N   UNL     1       2.178   6.572  20.749  0.00  0.00    +0.000 N 
ATOM     22  C   UNL     1       1.898   7.654  19.949  0.00  0.00    +0.000 A 
ATOM     23  C   UNL     1       1.210   8.838  20.245  0.00  0.00    +0.000 A 
ATOM     24  C   UNL     1       1.066   9.778  19.221  0.00  0.00    +0.000 A 
ATOM     25  C   UNL     1       1.599   9.543  17.956  0.00  0.00    +0.000 A 
ATOM     26  C   UNL     1       2.289   8.356  17.679  0.00  0.00    +0.000 A 
ATOM     27  C   UNL     1       2.439   7.385  18.690  0.00  0.00    +0.000 A 
ATOM     28  H   UNL     1       1.908   6.495  21.719  0.00  0.00    +0.000 HD
ENDBRANCH  18  19
ENDBRANCH  17  18
ENDBRANCH   3  17
TORSDOF 5
ENDMDL
