MODEL 1
REMARK VINA RESULT:      -6.6      0.000      0.000
REMARK  Name = 
REMARK  16 active torsions:
REMARK  status: ('A' for Active; 'I' for Inactive)
REMARK    1  A    between atoms: C_2  and  C_3
REMARK    2  A    between atoms: C_3  and  C_4
REMARK    3  A    between atoms: C_4  and  N_5
REMARK    4  A    between atoms: C_9  and  C_10
REMARK    5  A    between atoms: C_10  and  C_11
REMARK    6  A    between atoms: C_10  and  N_16
REMARK    7  A    between atoms: C_11  and  C_12
REMARK    8  A    between atoms: C_12  and  C_13
REMARK    9  A    between atoms: C_13  and  O_15
REMARK   10  A    between atoms: N_19  and  CA_20
REMARK   11  A    between atoms: CA_20  and  CB_21
REMARK   12  A    between atoms: CA_20  and  C_26
REMARK   13  A    between atoms: CB_21  and  CG_22
REMARK   14  A    between atoms: CG_22  and  CD_23
REMARK   15  A    between atoms: CD_23  and  OE2_25
REMARK   16  A    between atoms: C_26  and  OXT_28
REMARK                            x       y       z     vdW  Elec       q    Type
REMARK                         _______ _______ _______ _____ _____    ______ ____
ROOT
ATOM      1  N   UNK A   0       3.783   5.912  17.841  0.00  0.00    +0.000 N 
ATOM      2  C   UNK A   0       2.571   6.448  18.136  0.00  0.00    +0.000 C 
ATOM      3  O   UNK A   0       1.507   5.915  17.853  0.00  0.00    +0.000 OA
ATOM      4  N   GLU A   1       2.675   7.638  18.787  0.00  0.00    +0.000 N 
ATOM      5  H   UNK A   0       4.594   6.282  18.319  0.00  0.00    +0.000 HD
ATOM      6  H   GLU A   1       3.586   8.029  19.004  0.00  0.00    +0.000 HD
ENDROOT
BRANCH   4   7
ATOM      7  CA  GLU A   1       1.496   8.340  19.273  0.00  0.00    +0.000 C 
BRANCH   7   8
ATOM      8  C   GLU A   1       1.418   9.660  18.505  0.00  0.00    +0.000 C 
ATOM      9  O   GLU A   1       0.813  10.642  18.921  0.00  0.00    +0.000 OA
BRANCH   8  10
ATOM     10  OXT GLU A   1       2.098   9.666  17.338  0.00  0.00    +0.000 OA
ATOM     11  HXT GLU A   1       1.702   9.117  16.628  0.00  0.00    +0.000 HD
ENDBRANCH   8  10
ENDBRANCH   7   8
BRANCH   7  12
ATOM     12  CB  GLU A   1       1.605   8.562  20.788  0.00  0.00    +0.000 C 
BRANCH  12  13
ATOM     13  CG  GLU A   1       0.268   8.689  21.505  0.00  0.00    +0.000 C 
BRANCH  13  14
ATOM     14  CD  GLU A   1       0.285   9.845  22.461  0.00  0.00    +0.000 C 
ATOM     15  OE1 GLU A   1       0.208   9.694  23.676  0.00  0.00    +0.000 OA
BRANCH  14  16
ATOM     16  OE2 GLU A   1       0.489  11.043  21.876  0.00  0.00    +0.000 OA
ATOM     17  HE2 GLU A   1      -0.279  11.641  21.895  0.00  0.00    +0.000 HD
ENDBRANCH  14  16
ENDBRANCH  13  14
ENDBRANCH  12  13
ENDBRANCH   7  12
ENDBRANCH   4   7
BRANCH   1  18
ATOM     18  C   UNK A   0       3.918   4.594  17.237  0.00  0.00    +0.000 C 
BRANCH  18  23
ATOM     19  N   UNK A   0       3.256   2.836  19.015  0.00  0.00    +0.000 N 
ATOM     20  N   UNK A   0       3.848   2.243  20.068  0.00  0.00    +0.000 NA
ATOM     21  N   UNK A   0       5.098   2.669  20.062  0.00  0.00    +0.000 NA
ATOM     22  N   UNK A   0       5.317   3.514  19.012  0.00  0.00    +0.000 NA
ATOM     23  C   UNK A   0       4.167   3.635  18.365  0.00  0.00    +0.000 A 
BRANCH  19  24
ATOM     24  C   UNK A   0       1.856   2.576  18.779  0.00  0.00    +0.000 C 
BRANCH  24  25
ATOM     25  C   UNK A   0       1.005   2.881  20.008  0.00  0.00    +0.000 C 
BRANCH  25  27
ATOM     26  N   UNK A   0       1.758   5.135  21.124  0.00  0.00    +0.000 NA
ATOM     27  C   UNK A   0       1.426   4.143  20.623  0.00  0.00    +0.000 C 
ENDBRANCH  25  27
ENDBRANCH  24  25
ENDBRANCH  19  24
ENDBRANCH  18  23
BRANCH  18  28
ATOM     28  C   UNK A   0       4.952   4.663  16.100  0.00  0.00    +0.000 C 
BRANCH  28  29
ATOM     29  C   UNK A   0       5.701   5.987  15.937  0.00  0.00    +0.000 C 
BRANCH  29  30
ATOM     30  C   UNK A   0       7.063   5.939  16.561  0.00  0.00    +0.000 C 
ATOM     31  O   UNK A   0       7.778   6.907  16.767  0.00  0.00    +0.000 OA
BRANCH  30  32
ATOM     32  O   UNK A   0       7.447   4.695  16.876  0.00  0.00    +0.000 OA
ATOM     33  H   UNK A   0       8.058   4.425  16.159  0.00  0.00    +0.000 HD
ENDBRANCH  30  32
ENDBRANCH  29  30
ENDBRANCH  28  29
ENDBRANCH  18  28
ENDBRANCH   1  18
TORSDOF 16
ENDMDL
MODEL 2
REMARK VINA RESULT:      -6.5      1.128      1.378
REMARK  Name = 
REMARK  16 active torsions:
REMARK  status: ('A' for Active; 'I' for Inactive)
REMARK    1  A    between atoms: C_2  and  C_3
REMARK    2  A    between atoms: C_3  and  C_4
REMARK    3  A    between atoms: C_4  and  N_5
REMARK    4  A    between atoms: C_9  and  C_10
REMARK    5  A    between atoms: C_10  and  C_11
REMARK    6  A    between atoms: C_10  and  N_16
REMARK    7  A    between atoms: C_11  and  C_12
REMARK    8  A    between atoms: C_12  and  C_13
REMARK    9  A    between atoms: C_13  and  O_15
REMARK   10  A    between atoms: N_19  and  CA_20
REMARK   11  A    between atoms: CA_20  and  CB_21
REMARK   12  A    between atoms: CA_20  and  C_26
REMARK   13  A    between atoms: CB_21  and  CG_22
REMARK   14  A    between atoms: CG_22  and  CD_23
REMARK   15  A    between atoms: CD_23  and  OE2_25
REMARK   16  A    between atoms: C_26  and  OXT_28
REMARK                            x       y       z     vdW  Elec       q    Type
REMARK                         _______ _______ _______ _____ _____    ______ ____
ROOT
ATOM      1  N   UNK A   0       4.047   5.992  18.203  0.00  0.00    +0.000 N 
ATOM      2  C   UNK A   0       2.808   6.535  18.309  0.00  0.00    +0.000 C 
ATOM      3  O   UNK A   0       1.830   6.115  17.707  0.00  0.00    +0.000 OA
ATOM      4  N   GLU A   1       2.777   7.595  19.162  0.00  0.00    +0.000 N 
ATOM      5  H   UNK A   0       4.732   6.234  18.907  0.00  0.00    +0.000 HD
ATOM      6  H   GLU A   1       3.619   7.895  19.641  0.00  0.00    +0.000 HD
ENDROOT
BRANCH   4   7
ATOM      7  CA  GLU A   1       1.528   8.269  19.485  0.00  0.00    +0.000 C 
BRANCH   7   8
ATOM      8  C   GLU A   1       1.412   9.466  18.541  0.00  0.00    +0.000 C 
ATOM      9  O   GLU A   1       2.037   9.553  17.490  0.00  0.00    +0.000 OA
BRANCH   8  10
ATOM     10  OXT GLU A   1       0.537  10.411  18.947  0.00  0.00    +0.000 OA
ATOM     11  HXT GLU A   1       0.943  11.273  19.186  0.00  0.00    +0.000 HD
ENDBRANCH   8  10
ENDBRANCH   7   8
BRANCH   7  12
ATOM     12  CB  GLU A   1       1.530   8.698  20.960  0.00  0.00    +0.000 C 
BRANCH  12  13
ATOM     13  CG  GLU A   1       0.153   8.732  21.609  0.00  0.00    +0.000 C 
BRANCH  13  14
ATOM     14  CD  GLU A   1      -0.016   9.977  22.430  0.00  0.00    +0.000 C 
ATOM     15  OE1 GLU A   1      -0.453   9.952  23.576  0.00  0.00    +0.000 OA
BRANCH  14  16
ATOM     16  OE2 GLU A   1       0.443  11.097  21.837  0.00  0.00    +0.000 OA
ATOM     17  HE2 GLU A   1       0.443  11.888  22.405  0.00  0.00    +0.000 HD
ENDBRANCH  14  16
ENDBRANCH  13  14
ENDBRANCH  12  13
ENDBRANCH   7  12
ENDBRANCH   4   7
BRANCH   1  18
ATOM     18  C   UNK A   0       4.299   4.786  17.427  0.00  0.00    +0.000 C 
BRANCH  18  23
ATOM     19  N   UNK A   0       3.399   2.689  18.644  0.00  0.00    +0.000 N 
ATOM     20  N   UNK A   0       3.759   1.951  19.710  0.00  0.00    +0.000 NA
ATOM     21  N   UNK A   0       4.910   2.452  20.119  0.00  0.00    +0.000 NA
ATOM     22  N   UNK A   0       5.298   3.490  19.322  0.00  0.00    +0.000 NA
ATOM     23  C   UNK A   0       4.351   3.653  18.409  0.00  0.00    +0.000 A 
BRANCH  19  24
ATOM     24  C   UNK A   0       2.149   2.386  17.990  0.00  0.00    +0.000 C 
BRANCH  24  25
ATOM     25  C   UNK A   0       0.993   2.295  18.982  0.00  0.00    +0.000 C 
BRANCH  25  27
ATOM     26  N   UNK A   0       0.955   4.415  20.532  0.00  0.00    +0.000 NA
ATOM     27  C   UNK A   0       0.973   3.473  19.854  0.00  0.00    +0.000 C 
ENDBRANCH  25  27
ENDBRANCH  24  25
ENDBRANCH  19  24
ENDBRANCH  18  23
BRANCH  18  28
ATOM     28  C   UNK A   0       5.517   5.017  16.517  0.00  0.00    +0.000 C 
BRANCH  28  29
ATOM     29  C   UNK A   0       5.914   3.857  15.601  0.00  0.00    +0.000 C 
BRANCH  29  30
ATOM     30  C   UNK A   0       6.702   4.326  14.414  0.00  0.00    +0.000 C 
ATOM     31  O   UNK A   0       7.445   5.294  14.400  0.00  0.00    +0.000 OA
BRANCH  30  32
ATOM     32  O   UNK A   0       6.504   3.569  13.327  0.00  0.00    +0.000 OA
ATOM     33  H   UNK A   0       6.610   2.644  13.634  0.00  0.00    +0.000 HD
ENDBRANCH  30  32
ENDBRANCH  29  30
ENDBRANCH  28  29
ENDBRANCH  18  28
ENDBRANCH   1  18
TORSDOF 16
ENDMDL
MODEL 3
REMARK VINA RESULT:      -6.5      2.352      4.280
REMARK  Name = 
REMARK  16 active torsions:
REMARK  status: ('A' for Active; 'I' for Inactive)
REMARK    1  A    between atoms: C_2  and  C_3
REMARK    2  A    between atoms: C_3  and  C_4
REMARK    3  A    between atoms: C_4  and  N_5
REMARK    4  A    between atoms: C_9  and  C_10
REMARK    5  A    between atoms: C_10  and  C_11
REMARK    6  A    between atoms: C_10  and  N_16
REMARK    7  A    between atoms: C_11  and  C_12
REMARK    8  A    between atoms: C_12  and  C_13
REMARK    9  A    between atoms: C_13  and  O_15
REMARK   10  A    between atoms: N_19  and  CA_20
REMARK   11  A    between atoms: CA_20  and  CB_21
REMARK   12  A    between atoms: CA_20  and  C_26
REMARK   13  A    between atoms: CB_21  and  CG_22
REMARK   14  A    between atoms: CG_22  and  CD_23
REMARK   15  A    between atoms: CD_23  and  OE2_25
REMARK   16  A    between atoms: C_26  and  OXT_28
REMARK                            x       y       z     vdW  Elec       q    Type
REMARK                         _______ _______ _______ _____ _____    ______ ____
ROOT
ATOM      1  N   UNK A   0       3.677   6.137  18.536  0.00  0.00    +0.000 N 
ATOM      2  C   UNK A   0       2.629   6.692  19.195  0.00  0.00    +0.000 C 
ATOM      3  O   UNK A   0       2.056   6.153  20.132  0.00  0.00    +0.000 OA
ATOM      4  N   GLU A   1       2.293   7.914  18.701  0.00  0.00    +0.000 N 
ATOM      5  H   UNK A   0       4.242   6.740  17.951  0.00  0.00    +0.000 HD
ATOM      6  H   GLU A   1       2.810   8.317  17.927  0.00  0.00    +0.000 HD
ENDROOT
BRANCH   4   7
ATOM      7  CA  GLU A   1       1.252   8.720  19.321  0.00  0.00    +0.000 C 
BRANCH   7   8
ATOM      8  C   GLU A   1       1.278  10.085  18.632  0.00  0.00    +0.000 C 
ATOM      9  O   GLU A   1       0.835  11.105  19.149  0.00  0.00    +0.000 OA
BRANCH   8  10
ATOM     10  OXT GLU A   1       1.858  10.082  17.413  0.00  0.00    +0.000 OA
ATOM     11  HXT GLU A   1       1.260  10.321  16.672  0.00  0.00    +0.000 HD
ENDBRANCH   8  10
ENDBRANCH   7   8
BRANCH   7  12
ATOM     12  CB  GLU A   1       1.506   8.834  20.832  0.00  0.00    +0.000 C 
BRANCH  12  13
ATOM     13  CG  GLU A   1       0.250   8.765  21.690  0.00  0.00    +0.000 C 
BRANCH  13  14
ATOM     14  CD  GLU A   1       0.210   9.904  22.665  0.00  0.00    +0.000 C 
ATOM     15  OE1 GLU A   1       0.167   9.727  23.878  0.00  0.00    +0.000 OA
BRANCH  14  16
ATOM     16  OE2 GLU A   1       0.323  11.122  22.098  0.00  0.00    +0.000 OA
ATOM     17  HE2 GLU A   1       1.150  11.592  22.305  0.00  0.00    +0.000 HD
ENDBRANCH  14  16
ENDBRANCH  13  14
ENDBRANCH  12  13
ENDBRANCH   7  12
ENDBRANCH   4   7
BRANCH   1  18
ATOM     18  C   UNK A   0       4.276   4.878  18.955  0.00  0.00    +0.000 C 
BRANCH  18  23
ATOM     19  N   UNK A   0       6.259   4.915  17.294  0.00  0.00    +0.000 N 
ATOM     20  N   UNK A   0       7.600   4.838  17.376  0.00  0.00    +0.000 NA
ATOM     21  N   UNK A   0       7.880   4.822  18.666  0.00  0.00    +0.000 NA
ATOM     22  N   UNK A   0       6.738   4.903  19.411  0.00  0.00    +0.000 NA
ATOM     23  C   UNK A   0       5.723   4.945  18.560  0.00  0.00    +0.000 A 
BRANCH  19  24
ATOM     24  C   UNK A   0       5.650   4.924  15.986  0.00  0.00    +0.000 C 
BRANCH  24  25
ATOM     25  C   UNK A   0       6.416   4.054  14.995  0.00  0.00    +0.000 C 
BRANCH  25  27
ATOM     26  N   UNK A   0       7.906   5.535  13.418  0.00  0.00    +0.000 NA
ATOM     27  C   UNK A   0       7.250   4.885  14.121  0.00  0.00    +0.000 C 
ENDBRANCH  25  27
ENDBRANCH  24  25
ENDBRANCH  19  24
ENDBRANCH  18  23
BRANCH  18  28
ATOM     28  C   UNK A   0       3.429   3.712  18.419  0.00  0.00    +0.000 C 
BRANCH  28  29
ATOM     29  C   UNK A   0       2.659   2.893  19.458  0.00  0.00    +0.000 C 
BRANCH  29  30
ATOM     30  C   UNK A   0       3.536   2.471  20.599  0.00  0.00    +0.000 C 
ATOM     31  O   UNK A   0       4.681   2.062  20.493  0.00  0.00    +0.000 OA
BRANCH  30  32
ATOM     32  O   UNK A   0       2.928   2.575  21.788  0.00  0.00    +0.000 OA
ATOM     33  H   UNK A   0       2.393   1.760  21.876  0.00  0.00    +0.000 HD
ENDBRANCH  30  32
ENDBRANCH  29  30
ENDBRANCH  28  29
ENDBRANCH  18  28
ENDBRANCH   1  18
TORSDOF 16
ENDMDL
MODEL 4
REMARK VINA RESULT:      -6.5      1.184      1.349
REMARK  Name = 
REMARK  16 active torsions:
REMARK  status: ('A' for Active; 'I' for Inactive)
REMARK    1  A    between atoms: C_2  and  C_3
REMARK    2  A    between atoms: C_3  and  C_4
REMARK    3  A    between atoms: C_4  and  N_5
REMARK    4  A    between atoms: C_9  and  C_10
REMARK    5  A    between atoms: C_10  and  C_11
REMARK    6  A    between atoms: C_10  and  N_16
REMARK    7  A    between atoms: C_11  and  C_12
REMARK    8  A    between atoms: C_12  and  C_13
REMARK    9  A    between atoms: C_13  and  O_15
REMARK   10  A    between atoms: N_19  and  CA_20
REMARK   11  A    between atoms: CA_20  and  CB_21
REMARK   12  A    between atoms: CA_20  and  C_26
REMARK   13  A    between atoms: CB_21  and  CG_22
REMARK   14  A    between atoms: CG_22  and  CD_23
REMARK   15  A    between atoms: CD_23  and  OE2_25
REMARK   16  A    between atoms: C_26  and  OXT_28
REMARK                            x       y       z     vdW  Elec       q    Type
REMARK                         _______ _______ _______ _____ _____    ______ ____
ROOT
ATOM      1  N   UNK A   0       4.085   6.027  18.895  0.00  0.00    +0.000 N 
ATOM      2  C   UNK A   0       2.845   6.574  18.836  0.00  0.00    +0.000 C 
ATOM      3  O   UNK A   0       2.036   6.327  17.952  0.00  0.00    +0.000 OA
ATOM      4  N   GLU A   1       2.602   7.424  19.871  0.00  0.00    +0.000 N 
ATOM      5  H   UNK A   0       4.588   6.088  19.771  0.00  0.00    +0.000 HD
ATOM      6  H   GLU A   1       3.308   7.585  20.581  0.00  0.00    +0.000 HD
ENDROOT
BRANCH   4   7
ATOM      7  CA  GLU A   1       1.301   8.051  20.045  0.00  0.00    +0.000 C 
BRANCH   7   8
ATOM      8  C   GLU A   1       1.304   9.323  19.196  0.00  0.00    +0.000 C 
ATOM      9  O   GLU A   1       1.501  10.439  19.662  0.00  0.00    +0.000 OA
BRANCH   8  10
ATOM     10  OXT GLU A   1       1.100   9.111  17.877  0.00  0.00    +0.000 OA
ATOM     11  HXT GLU A   1       1.832   9.409  17.295  0.00  0.00    +0.000 HD
ENDBRANCH   8  10
ENDBRANCH   7   8
BRANCH   7  12
ATOM     12  CB  GLU A   1       1.058   8.353  21.531  0.00  0.00    +0.000 C 
BRANCH  12  13
ATOM     13  CG  GLU A   1      -0.345   8.851  21.853  0.00  0.00    +0.000 C 
BRANCH  13  14
ATOM     14  CD  GLU A   1      -0.334   9.709  23.083  0.00  0.00    +0.000 C 
ATOM     15  OE1 GLU A   1       0.567   9.654  23.914  0.00  0.00    +0.000 OA
BRANCH  14  16
ATOM     16  OE2 GLU A   1      -1.341  10.604  23.142  0.00  0.00    +0.000 OA
ATOM     17  HE2 GLU A   1      -1.166  11.444  22.682  0.00  0.00    +0.000 HD
ENDBRANCH  14  16
ENDBRANCH  13  14
ENDBRANCH  12  13
ENDBRANCH   7  12
ENDBRANCH   4   7
BRANCH   1  18
ATOM     18  C   UNK A   0       4.528   5.012  17.950  0.00  0.00    +0.000 C 
BRANCH  18  23
ATOM     19  N   UNK A   0       3.451   2.764  18.641  0.00  0.00    +0.000 N 
ATOM     20  N   UNK A   0       3.699   1.803  19.549  0.00  0.00    +0.000 NA
ATOM     21  N   UNK A   0       4.837   2.141  20.127  0.00  0.00    +0.000 NA
ATOM     22  N   UNK A   0       5.327   3.298  19.591  0.00  0.00    +0.000 NA
ATOM     23  C   UNK A   0       4.459   3.699  18.675  0.00  0.00    +0.000 A 
BRANCH  19  24
ATOM     24  C   UNK A   0       2.241   2.674  17.859  0.00  0.00    +0.000 C 
BRANCH  24  25
ATOM     25  C   UNK A   0       1.002   2.546  18.740  0.00  0.00    +0.000 C 
BRANCH  25  27
ATOM     26  N   UNK A   0       1.002   4.386  20.613  0.00  0.00    +0.000 NA
ATOM     27  C   UNK A   0       1.003   3.579  19.780  0.00  0.00    +0.000 C 
ENDBRANCH  25  27
ENDBRANCH  24  25
ENDBRANCH  19  24
ENDBRANCH  18  23
BRANCH  18  28
ATOM     28  C   UNK A   0       5.877   5.438  17.346  0.00  0.00    +0.000 C 
BRANCH  28  29
ATOM     29  C   UNK A   0       6.970   5.847  18.335  0.00  0.00    +0.000 C 
BRANCH  29  30
ATOM     30  C   UNK A   0       7.638   7.128  17.932  0.00  0.00    +0.000 C 
ATOM     31  O   UNK A   0       7.419   7.742  16.900  0.00  0.00    +0.000 OA
BRANCH  30  32
ATOM     32  O   UNK A   0       8.536   7.551  18.831  0.00  0.00    +0.000 OA
ATOM     33  H   UNK A   0       9.052   8.246  18.372  0.00  0.00    +0.000 HD
ENDBRANCH  30  32
ENDBRANCH  29  30
ENDBRANCH  28  29
ENDBRANCH  18  28
ENDBRANCH   1  18
TORSDOF 16
ENDMDL
MODEL 5
REMARK VINA RESULT:      -6.4      1.414      2.593
REMARK  Name = 
REMARK  16 active torsions:
REMARK  status: ('A' for Active; 'I' for Inactive)
REMARK    1  A    between atoms: C_2  and  C_3
REMARK    2  A    between atoms: C_3  and  C_4
REMARK    3  A    between atoms: C_4  and  N_5
REMARK    4  A    between atoms: C_9  and  C_10
REMARK    5  A    between atoms: C_10  and  C_11
REMARK    6  A    between atoms: C_10  and  N_16
REMARK    7  A    between atoms: C_11  and  C_12
REMARK    8  A    between atoms: C_12  and  C_13
REMARK    9  A    between atoms: C_13  and  O_15
REMARK   10  A    between atoms: N_19  and  CA_20
REMARK   11  A    between atoms: CA_20  and  CB_21
REMARK   12  A    between atoms: CA_20  and  C_26
REMARK   13  A    between atoms: CB_21  and  CG_22
REMARK   14  A    between atoms: CG_22  and  CD_23
REMARK   15  A    between atoms: CD_23  and  OE2_25
REMARK   16  A    between atoms: C_26  and  OXT_28
REMARK                            x       y       z     vdW  Elec       q    Type
REMARK                         _______ _______ _______ _____ _____    ______ ____
ROOT
ATOM      1  N   UNK A   0       2.926   6.159  19.687  0.00  0.00    +0.000 N 
ATOM      2  C   UNK A   0       2.397   7.409  19.672  0.00  0.00    +0.000 C 
ATOM      3  O   UNK A   0       2.401   8.135  18.688  0.00  0.00    +0.000 OA
ATOM      4  N   GLU A   1       1.859   7.759  20.872  0.00  0.00    +0.000 N 
ATOM      5  H   UNK A   0       2.665   5.543  20.447  0.00  0.00    +0.000 HD
ATOM      6  H   GLU A   1       1.877   7.112  21.653  0.00  0.00    +0.000 HD
ENDROOT
BRANCH   4   7
ATOM      7  CA  GLU A   1       1.163   9.025  21.048  0.00  0.00    +0.000 C 
BRANCH   7   8
ATOM      8  C   GLU A   1       1.150   9.319  22.549  0.00  0.00    +0.000 C 
ATOM      9  O   GLU A   1       0.118   9.451  23.196  0.00  0.00    +0.000 OA
BRANCH   8  10
ATOM     10  OXT GLU A   1       2.375   9.393  23.112  0.00  0.00    +0.000 OA
ATOM     11  HXT GLU A   1       2.551  10.222  23.608  0.00  0.00    +0.000 HD
ENDBRANCH   8  10
ENDBRANCH   7   8
BRANCH   7  12
ATOM     12  CB  GLU A   1      -0.256   8.928  20.469  0.00  0.00    +0.000 C 
BRANCH  12  13
ATOM     13  CG  GLU A   1      -0.774  10.219  19.849  0.00  0.00    +0.000 C 
BRANCH  13  14
ATOM     14  CD  GLU A   1       0.161  10.708  18.783  0.00  0.00    +0.000 C 
ATOM     15  OE1 GLU A   1       0.837  11.722  18.918  0.00  0.00    +0.000 OA
BRANCH  14  16
ATOM     16  OE2 GLU A   1       0.261   9.888  17.716  0.00  0.00    +0.000 OA
ATOM     17  HE2 GLU A   1      -0.042  10.275  16.876  0.00  0.00    +0.000 HD
ENDBRANCH  14  16
ENDBRANCH  13  14
ENDBRANCH  12  13
ENDBRANCH   7  12
ENDBRANCH   4   7
BRANCH   1  18
ATOM     18  C   UNK A   0       3.464   5.533  18.488  0.00  0.00    +0.000 C 
BRANCH  18  23
ATOM     19  N   UNK A   0       3.169   3.017  19.012  0.00  0.00    +0.000 N 
ATOM     20  N   UNK A   0       3.920   2.040  19.552  0.00  0.00    +0.000 NA
ATOM     21  N   UNK A   0       5.109   2.574  19.758  0.00  0.00    +0.000 NA
ATOM     22  N   UNK A   0       5.134   3.875  19.345  0.00  0.00    +0.000 NA
ATOM     23  C   UNK A   0       3.921   4.162  18.894  0.00  0.00    +0.000 A 
BRANCH  19  24
ATOM     24  C   UNK A   0       1.790   2.730  18.698  0.00  0.00    +0.000 C 
BRANCH  24  25
ATOM     25  C   UNK A   0       0.837   3.299  19.745  0.00  0.00    +0.000 C 
BRANCH  25  27
ATOM     26  N   UNK A   0       1.594   2.568  22.151  0.00  0.00    +0.000 NA
ATOM     27  C   UNK A   0       1.252   2.893  21.091  0.00  0.00    +0.000 C 
ENDBRANCH  25  27
ENDBRANCH  24  25
ENDBRANCH  19  24
ENDBRANCH  18  23
BRANCH  18  28
ATOM     28  C   UNK A   0       4.489   6.480  17.841  0.00  0.00    +0.000 C 
BRANCH  28  29
ATOM     29  C   UNK A   0       5.176   5.976  16.570  0.00  0.00    +0.000 C 
BRANCH  29  30
ATOM     30  C   UNK A   0       6.670   5.985  16.701  0.00  0.00    +0.000 C 
ATOM     31  O   UNK A   0       7.287   6.284  17.711  0.00  0.00    +0.000 OA
BRANCH  30  32
ATOM     32  O   UNK A   0       7.293   5.633  15.569  0.00  0.00    +0.000 OA
ATOM     33  H   UNK A   0       6.603   5.212  15.015  0.00  0.00    +0.000 HD
ENDBRANCH  30  32
ENDBRANCH  29  30
ENDBRANCH  28  29
ENDBRANCH  18  28
ENDBRANCH   1  18
TORSDOF 16
ENDMDL
MODEL 6
REMARK VINA RESULT:      -6.4      2.955      6.790
REMARK  Name = 
REMARK  16 active torsions:
REMARK  status: ('A' for Active; 'I' for Inactive)
REMARK    1  A    between atoms: C_2  and  C_3
REMARK    2  A    between atoms: C_3  and  C_4
REMARK    3  A    between atoms: C_4  and  N_5
REMARK    4  A    between atoms: C_9  and  C_10
REMARK    5  A    between atoms: C_10  and  C_11
REMARK    6  A    between atoms: C_10  and  N_16
REMARK    7  A    between atoms: C_11  and  C_12
REMARK    8  A    between atoms: C_12  and  C_13
REMARK    9  A    between atoms: C_13  and  O_15
REMARK   10  A    between atoms: N_19  and  CA_20
REMARK   11  A    between atoms: CA_20  and  CB_21
REMARK   12  A    between atoms: CA_20  and  C_26
REMARK   13  A    between atoms: CB_21  and  CG_22
REMARK   14  A    between atoms: CG_22  and  CD_23
REMARK   15  A    between atoms: CD_23  and  OE2_25
REMARK   16  A    between atoms: C_26  and  OXT_28
REMARK                            x       y       z     vdW  Elec       q    Type
REMARK                         _______ _______ _______ _____ _____    ______ ____
ROOT
ATOM      1  N   UNK A   0       3.775   5.824  18.486  0.00  0.00    +0.000 N 
ATOM      2  C   UNK A   0       2.675   5.045  18.645  0.00  0.00    +0.000 C 
ATOM      3  O   UNK A   0       1.684   5.118  17.932  0.00  0.00    +0.000 OA
ATOM      4  N   GLU A   1       2.802   4.173  19.682  0.00  0.00    +0.000 N 
ATOM      5  H   UNK A   0       4.629   5.536  18.946  0.00  0.00    +0.000 HD
ATOM      6  H   GLU A   1       3.652   4.151  20.235  0.00  0.00    +0.000 HD
ENDROOT
BRANCH   4   7
ATOM      7  CA  GLU A   1       1.771   3.188  19.971  0.00  0.00    +0.000 C 
BRANCH   7   8
ATOM      8  C   GLU A   1       1.914   2.816  21.448  0.00  0.00    +0.000 C 
ATOM      9  O   GLU A   1       0.955   2.658  22.195  0.00  0.00    +0.000 OA
BRANCH   8  10
ATOM     10  OXT GLU A   1       3.189   2.645  21.857  0.00  0.00    +0.000 OA
ATOM     11  HXT GLU A   1       3.419   1.725  22.113  0.00  0.00    +0.000 HD
ENDBRANCH   8  10
ENDBRANCH   7   8
BRANCH   7  12
ATOM     12  CB  GLU A   1       1.939   1.968  19.053  0.00  0.00    +0.000 C 
BRANCH  12  13
ATOM     13  CG  GLU A   1       3.200   1.989  18.200  0.00  0.00    +0.000 C 
BRANCH  13  14
ATOM     14  CD  GLU A   1       4.395   1.579  19.008  0.00  0.00    +0.000 C 
ATOM     15  OE1 GLU A   1       5.000   2.366  19.729  0.00  0.00    +0.000 OA
BRANCH  14  16
ATOM     16  OE2 GLU A   1       4.680   0.262  18.946  0.00  0.00    +0.000 OA
ATOM     17  HE2 GLU A   1       4.390  -0.179  18.128  0.00  0.00    +0.000 HD
ENDBRANCH  14  16
ENDBRANCH  13  14
ENDBRANCH  12  13
ENDBRANCH   7  12
ENDBRANCH   4   7
BRANCH   1  18
ATOM     18  C   UNK A   0       3.907   6.759  17.377  0.00  0.00    +0.000 C 
BRANCH  18  23
ATOM     19  N   UNK A   0       5.860   5.634  16.108  0.00  0.00    +0.000 N 
ATOM     20  N   UNK A   0       7.191   5.809  16.016  0.00  0.00    +0.000 NA
ATOM     21  N   UNK A   0       7.459   6.895  16.717  0.00  0.00    +0.000 NA
ATOM     22  N   UNK A   0       6.317   7.425  17.245  0.00  0.00    +0.000 NA
ATOM     23  C   UNK A   0       5.318   6.633  16.883  0.00  0.00    +0.000 A 
BRANCH  19  24
ATOM     24  C   UNK A   0       5.271   4.493  15.451  0.00  0.00    +0.000 C 
BRANCH  24  25
ATOM     25  C   UNK A   0       6.274   3.767  14.560  0.00  0.00    +0.000 C 
BRANCH  25  27
ATOM     26  N   UNK A   0       5.295   3.484  12.140  0.00  0.00    +0.000 NA
ATOM     27  C   UNK A   0       5.733   3.603  13.208  0.00  0.00    +0.000 C 
ENDBRANCH  25  27
ENDBRANCH  24  25
ENDBRANCH  19  24
ENDBRANCH  18  23
BRANCH  18  28
ATOM     28  C   UNK A   0       3.413   8.145  17.824  0.00  0.00    +0.000 C 
BRANCH  28  29
ATOM     29  C   UNK A   0       1.923   8.434  17.631  0.00  0.00    +0.000 C 
BRANCH  29  30
ATOM     30  C   UNK A   0       1.600   9.881  17.856  0.00  0.00    +0.000 C 
ATOM     31  O   UNK A   0       2.422  10.778  17.962  0.00  0.00    +0.000 OA
BRANCH  30  32
ATOM     32  O   UNK A   0       0.284  10.113  17.944  0.00  0.00    +0.000 OA
ATOM     33  H   UNK A   0       0.192  11.088  17.926  0.00  0.00    +0.000 HD
ENDBRANCH  30  32
ENDBRANCH  29  30
ENDBRANCH  28  29
ENDBRANCH  18  28
ENDBRANCH   1  18
TORSDOF 16
ENDMDL
MODEL 7
REMARK VINA RESULT:      -6.4      2.454      4.428
REMARK  Name = 
REMARK  16 active torsions:
REMARK  status: ('A' for Active; 'I' for Inactive)
REMARK    1  A    between atoms: C_2  and  C_3
REMARK    2  A    between atoms: C_3  and  C_4
REMARK    3  A    between atoms: C_4  and  N_5
REMARK    4  A    between atoms: C_9  and  C_10
REMARK    5  A    between atoms: C_10  and  C_11
REMARK    6  A    between atoms: C_10  and  N_16
REMARK    7  A    between atoms: C_11  and  C_12
REMARK    8  A    between atoms: C_12  and  C_13
REMARK    9  A    between atoms: C_13  and  O_15
REMARK   10  A    between atoms: N_19  and  CA_20
REMARK   11  A    between atoms: CA_20  and  CB_21
REMARK   12  A    between atoms: CA_20  and  C_26
REMARK   13  A    between atoms: CB_21  and  CG_22
REMARK   14  A    between atoms: CG_22  and  CD_23
REMARK   15  A    between atoms: CD_23  and  OE2_25
REMARK   16  A    between atoms: C_26  and  OXT_28
REMARK                            x       y       z     vdW  Elec       q    Type
REMARK                         _______ _______ _______ _____ _____    ______ ____
ROOT
ATOM      1  N   UNK A   0       3.593   6.295  18.696  0.00  0.00    +0.000 N 
ATOM      2  C   UNK A   0       2.529   6.770  19.393  0.00  0.00    +0.000 C 
ATOM      3  O   UNK A   0       2.007   6.172  20.324  0.00  0.00    +0.000 OA
ATOM      4  N   GLU A   1       2.114   7.985  18.942  0.00  0.00    +0.000 N 
ATOM      5  H   UNK A   0       4.110   6.946  18.120  0.00  0.00    +0.000 HD
ATOM      6  H   GLU A   1       2.591   8.438  18.171  0.00  0.00    +0.000 HD
ENDROOT
BRANCH   4   7
ATOM      7  CA  GLU A   1       1.042   8.711  19.606  0.00  0.00    +0.000 C 
BRANCH   7   8
ATOM      8  C   GLU A   1       0.821  10.000  18.812  0.00  0.00    +0.000 C 
ATOM      9  O   GLU A   1       1.278  11.084  19.155  0.00  0.00    +0.000 OA
BRANCH   8  10
ATOM     10  OXT GLU A   1       0.103   9.839  17.680  0.00  0.00    +0.000 OA
ATOM     11  HXT GLU A   1       0.034   8.911  17.365  0.00  0.00    +0.000 HD
ENDBRANCH   8  10
ENDBRANCH   7   8
BRANCH   7  12
ATOM     12  CB  GLU A   1       1.426   8.995  21.066  0.00  0.00    +0.000 C 
BRANCH  12  13
ATOM     13  CG  GLU A   1       0.267   8.912  22.051  0.00  0.00    +0.000 C 
BRANCH  13  14
ATOM     14  CD  GLU A   1      -0.097  10.275  22.559  0.00  0.00    +0.000 C 
ATOM     15  OE1 GLU A   1      -0.889  10.442  23.480  0.00  0.00    +0.000 OA
BRANCH  14  16
ATOM     16  OE2 GLU A   1       0.592  11.282  21.983  0.00  0.00    +0.000 OA
ATOM     17  HE2 GLU A   1       0.382  11.434  21.045  0.00  0.00    +0.000 HD
ENDBRANCH  14  16
ENDBRANCH  13  14
ENDBRANCH  12  13
ENDBRANCH   7  12
ENDBRANCH   4   7
BRANCH   1  18
ATOM     18  C   UNK A   0       4.270   5.061  19.066  0.00  0.00    +0.000 C 
BRANCH  18  23
ATOM     19  N   UNK A   0       6.416   5.624  17.736  0.00  0.00    +0.000 N 
ATOM     20  N   UNK A   0       7.740   5.619  17.974  0.00  0.00    +0.000 NA
ATOM     21  N   UNK A   0       7.873   5.316  19.252  0.00  0.00    +0.000 NA
ATOM     22  N   UNK A   0       6.652   5.140  19.838  0.00  0.00    +0.000 NA
ATOM     23  C   UNK A   0       5.740   5.316  18.892  0.00  0.00    +0.000 A 
BRANCH  19  24
ATOM     24  C   UNK A   0       5.961   5.904  16.395  0.00  0.00    +0.000 C 
BRANCH  24  25
ATOM     25  C   UNK A   0       6.183   4.720  15.459  0.00  0.00    +0.000 C 
BRANCH  25  27
ATOM     26  N   UNK A   0       7.864   5.350  13.543  0.00  0.00    +0.000 NA
ATOM     27  C   UNK A   0       7.126   5.076  14.395  0.00  0.00    +0.000 C 
ENDBRANCH  25  27
ENDBRANCH  24  25
ENDBRANCH  19  24
ENDBRANCH  18  23
BRANCH  18  28
ATOM     28  C   UNK A   0       3.640   3.888  18.298  0.00  0.00    +0.000 C 
BRANCH  28  29
ATOM     29  C   UNK A   0       2.575   3.078  19.041  0.00  0.00    +0.000 C 
BRANCH  29  30
ATOM     30  C   UNK A   0       1.248   3.128  18.345  0.00  0.00    +0.000 C 
ATOM     31  O   UNK A   0       0.327   2.347  18.526  0.00  0.00    +0.000 OA
BRANCH  30  32
ATOM     32  O   UNK A   0       1.160   4.134  17.465  0.00  0.00    +0.000 OA
ATOM     33  H   UNK A   0       1.085   3.704  16.588  0.00  0.00    +0.000 HD
ENDBRANCH  30  32
ENDBRANCH  29  30
ENDBRANCH  28  29
ENDBRANCH  18  28
ENDBRANCH   1  18
TORSDOF 16
ENDMDL
MODEL 8
REMARK VINA RESULT:      -6.3      3.124      6.740
REMARK  Name = 
REMARK  16 active torsions:
REMARK  status: ('A' for Active; 'I' for Inactive)
REMARK    1  A    between atoms: C_2  and  C_3
REMARK    2  A    between atoms: C_3  and  C_4
REMARK    3  A    between atoms: C_4  and  N_5
REMARK    4  A    between atoms: C_9  and  C_10
REMARK    5  A    between atoms: C_10  and  C_11
REMARK    6  A    between atoms: C_10  and  N_16
REMARK    7  A    between atoms: C_11  and  C_12
REMARK    8  A    between atoms: C_12  and  C_13
REMARK    9  A    between atoms: C_13  and  O_15
REMARK   10  A    between atoms: N_19  and  CA_20
REMARK   11  A    between atoms: CA_20  and  CB_21
REMARK   12  A    between atoms: CA_20  and  C_26
REMARK   13  A    between atoms: CB_21  and  CG_22
REMARK   14  A    between atoms: CG_22  and  CD_23
REMARK   15  A    between atoms: CD_23  and  OE2_25
REMARK   16  A    between atoms: C_26  and  OXT_28
REMARK                            x       y       z     vdW  Elec       q    Type
REMARK                         _______ _______ _______ _____ _____    ______ ____
ROOT
ATOM      1  N   UNK A   0       3.720   5.272  17.617  0.00  0.00    +0.000 N 
ATOM      2  C   UNK A   0       4.034   4.882  18.878  0.00  0.00    +0.000 C 
ATOM      3  O   UNK A   0       4.675   5.570  19.661  0.00  0.00    +0.000 OA
ATOM      4  N   GLU A   1       3.553   3.644  19.174  0.00  0.00    +0.000 N 
ATOM      5  H   UNK A   0       2.992   4.764  17.132  0.00  0.00    +0.000 HD
ATOM      6  H   GLU A   1       3.019   3.122  18.487  0.00  0.00    +0.000 HD
ENDROOT
BRANCH   4   7
ATOM      7  CA  GLU A   1       3.703   3.072  20.503  0.00  0.00    +0.000 C 
BRANCH   7   8
ATOM      8  C   GLU A   1       4.661   1.887  20.371  0.00  0.00    +0.000 C 
ATOM      9  O   GLU A   1       5.396   1.516  21.279  0.00  0.00    +0.000 OA
BRANCH   8  10
ATOM     10  OXT GLU A   1       4.607   1.260  19.176  0.00  0.00    +0.000 OA
ATOM     11  HXT GLU A   1       3.743   1.327  18.714  0.00  0.00    +0.000 HD
ENDBRANCH   8  10
ENDBRANCH   7   8
BRANCH   7  12
ATOM     12  CB  GLU A   1       2.332   2.644  21.049  0.00  0.00    +0.000 C 
BRANCH  12  13
ATOM     13  CG  GLU A   1       1.144   3.195  20.271  0.00  0.00    +0.000 C 
BRANCH  13  14
ATOM     14  CD  GLU A   1       0.844   2.333  19.080  0.00  0.00    +0.000 C 
ATOM     15  OE1 GLU A   1       0.008   2.646  18.239  0.00  0.00    +0.000 OA
BRANCH  14  16
ATOM     16  OE2 GLU A   1       1.635   1.247  18.969  0.00  0.00    +0.000 OA
ATOM     17  HE2 GLU A   1       1.630   0.828  18.091  0.00  0.00    +0.000 HD
ENDBRANCH  14  16
ENDBRANCH  13  14
ENDBRANCH  12  13
ENDBRANCH   7  12
ENDBRANCH   4   7
BRANCH   1  18
ATOM     18  C   UNK A   0       4.042   6.601  17.117  0.00  0.00    +0.000 C 
BRANCH  18  23
ATOM     19  N   UNK A   0       6.094   5.908  15.701  0.00  0.00    +0.000 N 
ATOM     20  N   UNK A   0       7.431   6.010  15.808  0.00  0.00    +0.000 NA
ATOM     21  N   UNK A   0       7.649   6.725  16.896  0.00  0.00    +0.000 NA
ATOM     22  N   UNK A   0       6.471   7.094  17.478  0.00  0.00    +0.000 NA
ATOM     23  C   UNK A   0       5.497   6.573  16.746  0.00  0.00    +0.000 A 
BRANCH  19  24
ATOM     24  C   UNK A   0       5.549   5.147  14.602  0.00  0.00    +0.000 C 
BRANCH  24  25
ATOM     25  C   UNK A   0       6.380   3.903  14.303  0.00  0.00    +0.000 C 
BRANCH  25  27
ATOM     26  N   UNK A   0       5.905   3.063  11.861  0.00  0.00    +0.000 NA
ATOM     27  C   UNK A   0       6.122   3.429  12.940  0.00  0.00    +0.000 C 
ENDBRANCH  25  27
ENDBRANCH  24  25
ENDBRANCH  19  24
ENDBRANCH  18  23
BRANCH  18  28
ATOM     28  C   UNK A   0       3.571   7.653  18.135  0.00  0.00    +0.000 C 
BRANCH  28  29
ATOM     29  C   UNK A   0       2.068   7.704  18.417  0.00  0.00    +0.000 C 
BRANCH  29  30
ATOM     30  C   UNK A   0       1.781   7.967  19.865  0.00  0.00    +0.000 C 
ATOM     31  O   UNK A   0       1.333   9.009  20.317  0.00  0.00    +0.000 OA
BRANCH  30  32
ATOM     32  O   UNK A   0       2.079   6.925  20.652  0.00  0.00    +0.000 OA
ATOM     33  H   UNK A   0       2.699   6.376  20.128  0.00  0.00    +0.000 HD
ENDBRANCH  30  32
ENDBRANCH  29  30
ENDBRANCH  28  29
ENDBRANCH  18  28
ENDBRANCH   1  18
TORSDOF 16
ENDMDL
MODEL 9
REMARK VINA RESULT:      -6.3      2.216      3.840
REMARK  Name = 
REMARK  16 active torsions:
REMARK  status: ('A' for Active; 'I' for Inactive)
REMARK    1  A    between atoms: C_2  and  C_3
REMARK    2  A    between atoms: C_3  and  C_4
REMARK    3  A    between atoms: C_4  and  N_5
REMARK    4  A    between atoms: C_9  and  C_10
REMARK    5  A    between atoms: C_10  and  C_11
REMARK    6  A    between atoms: C_10  and  N_16
REMARK    7  A    between atoms: C_11  and  C_12
REMARK    8  A    between atoms: C_12  and  C_13
REMARK    9  A    between atoms: C_13  and  O_15
REMARK   10  A    between atoms: N_19  and  CA_20
REMARK   11  A    between atoms: CA_20  and  CB_21
REMARK   12  A    between atoms: CA_20  and  C_26
REMARK   13  A    between atoms: CB_21  and  CG_22
REMARK   14  A    between atoms: CG_22  and  CD_23
REMARK   15  A    between atoms: CD_23  and  OE2_25
REMARK   16  A    between atoms: C_26  and  OXT_28
REMARK                            x       y       z     vdW  Elec       q    Type
REMARK                         _______ _______ _______ _____ _____    ______ ____
ROOT
ATOM      1  N   UNK A   0       1.861   6.894  20.787  0.00  0.00    +0.000 N 
ATOM      2  C   UNK A   0       1.472   8.144  20.431  0.00  0.00    +0.000 C 
ATOM      3  O   UNK A   0       1.575   8.589  19.296  0.00  0.00    +0.000 OA
ATOM      4  N   GLU A   1       0.951   8.843  21.476  0.00  0.00    +0.000 N 
ATOM      5  H   UNK A   0       1.519   6.524  21.665  0.00  0.00    +0.000 HD
ATOM      6  H   GLU A   1       0.882   8.421  22.395  0.00  0.00    +0.000 HD
ENDROOT
BRANCH   4   7
ATOM      7  CA  GLU A   1       0.393  10.175  21.292  0.00  0.00    +0.000 C 
BRANCH   7   8
ATOM      8  C   GLU A   1      -0.319  10.542  22.594  0.00  0.00    +0.000 C 
ATOM      9  O   GLU A   1      -1.238  11.351  22.650  0.00  0.00    +0.000 OA
BRANCH   8  10
ATOM     10  OXT GLU A   1       0.130   9.876  23.680  0.00  0.00    +0.000 OA
ATOM     11  HXT GLU A   1       0.436   8.960  23.503  0.00  0.00    +0.000 HD
ENDBRANCH   8  10
ENDBRANCH   7   8
BRANCH   7  12
ATOM     12  CB  GLU A   1      -0.565  10.181  20.091  0.00  0.00    +0.000 C 
BRANCH  12  13
ATOM     13  CG  GLU A   1      -0.470  11.423  19.214  0.00  0.00    +0.000 C 
BRANCH  13  14
ATOM     14  CD  GLU A   1      -1.565  11.433  18.189  0.00  0.00    +0.000 C 
ATOM     15  OE1 GLU A   1      -2.502  10.642  18.222  0.00  0.00    +0.000 OA
BRANCH  14  16
ATOM     16  OE2 GLU A   1      -1.477  12.439  17.295  0.00  0.00    +0.000 OA
ATOM     17  HE2 GLU A   1      -2.274  12.993  17.227  0.00  0.00    +0.000 HD
ENDBRANCH  14  16
ENDBRANCH  13  14
ENDBRANCH  12  13
ENDBRANCH   7  12
ENDBRANCH   4   7
BRANCH   1  18
ATOM     18  C   UNK A   0       2.352   5.930  19.813  0.00  0.00    +0.000 C 
BRANCH  18  23
ATOM     19  N   UNK A   0       1.546   3.473  19.890  0.00  0.00    +0.000 N 
ATOM     20  N   UNK A   0       1.457   2.506  20.820  0.00  0.00    +0.000 NA
ATOM     21  N   UNK A   0       2.016   3.003  21.908  0.00  0.00    +0.000 NA
ATOM     22  N   UNK A   0       2.475   4.269  21.682  0.00  0.00    +0.000 NA
ATOM     23  C   UNK A   0       2.170   4.574  20.429  0.00  0.00    +0.000 A 
BRANCH  19  24
ATOM     24  C   UNK A   0       0.986   3.224  18.583  0.00  0.00    +0.000 C 
BRANCH  24  25
ATOM     25  C   UNK A   0       2.070   3.007  17.531  0.00  0.00    +0.000 C 
BRANCH  25  27
ATOM     26  N   UNK A   0       3.762   1.161  18.322  0.00  0.00    +0.000 NA
ATOM     27  C   UNK A   0       3.010   1.971  17.969  0.00  0.00    +0.000 C 
ENDBRANCH  25  27
ENDBRANCH  24  25
ENDBRANCH  19  24
ENDBRANCH  18  23
BRANCH  18  28
ATOM     28  C   UNK A   0       3.765   6.341  19.364  0.00  0.00    +0.000 C 
BRANCH  28  29
ATOM     29  C   UNK A   0       4.527   5.334  18.501  0.00  0.00    +0.000 C 
BRANCH  29  30
ATOM     30  C   UNK A   0       5.673   4.715  19.244  0.00  0.00    +0.000 C 
ATOM     31  O   UNK A   0       6.600   5.329  19.747  0.00  0.00    +0.000 OA
BRANCH  30  32
ATOM     32  O   UNK A   0       5.594   3.379  19.301  0.00  0.00    +0.000 OA
ATOM     33  H   UNK A   0       5.509   3.167  20.254  0.00  0.00    +0.000 HD
ENDBRANCH  30  32
ENDBRANCH  29  30
ENDBRANCH  28  29
ENDBRANCH  18  28
ENDBRANCH   1  18
TORSDOF 16
ENDMDL
