MODEL 1
REMARK VINA RESULT:      -8.6      0.000      0.000
REMARK  Name = 
REMARK  10 active torsions:
REMARK  status: ('A' for Active; 'I' for Inactive)
REMARK    1  A    between atoms: C_1  and  O_2
REMARK    2  A    between atoms: O_2  and  C_3
REMARK    3  A    between atoms: C_6  and  C_7
REMARK    4  A    between atoms: C_7  and  C_8
REMARK    5  A    between atoms: C_7  and  N_12
REMARK    6  A    between atoms: C_8  and  C_9
REMARK    7  A    between atoms: C_9  and  O_11
REMARK    8  A    between atoms: N_15  and  N_16
REMARK    9  A    between atoms: C_17  and  C_19
REMARK   10  A    between atoms: C_23  and  N_24
REMARK                            x       y       z     vdW  Elec       q    Type
REMARK                         _______ _______ _______ _____ _____    ______ ____
ROOT
ATOM      1  N   UNL     1       6.732   6.692  17.467  0.00  0.00    +0.000 N 
ATOM      2  C   UNL     1       7.711   7.445  18.066  0.00  0.00    +0.000 C 
ATOM      3  O   UNL     1       8.484   7.017  18.917  0.00  0.00    +0.000 OA
ATOM      4  N   UNL     1       7.749   8.745  17.609  0.00  0.00    +0.000 N 
ATOM      5  H   UNL     1       6.003   7.195  16.987  0.00  0.00    +0.000 HD
ATOM      6  H   UNL     1       7.274   9.056  16.765  0.00  0.00    +0.000 HD
ENDROOT
BRANCH   4   7
ATOM      7  N   UNL     1       8.751   9.604  18.098  0.00  0.00    +0.000 N 
ATOM      8  C   UNL     1       8.629  10.963  17.863  0.00  0.00    +0.000 C 
ATOM      9  O   UNL     1       7.712  11.428  17.190  0.00  0.00    +0.000 OA
ATOM     10  H   UNL     1       9.558   9.154  18.523  0.00  0.00    +0.000 HD
BRANCH   8  11
ATOM     11  C   UNL     1       9.655  11.868  18.476  0.00  0.00    +0.000 A 
ATOM     12  C   UNL     1      10.450  11.481  19.558  0.00  0.00    +0.000 A 
ATOM     13  C   UNL     1      11.338  12.382  20.134  0.00  0.00    +0.000 A 
ATOM     14  C   UNL     1      11.409  13.692  19.651  0.00  0.00    +0.000 A 
ATOM     15  C   UNL     1      10.613  14.126  18.581  0.00  0.00    +0.000 A 
ATOM     16  C   UNL     1       9.752  13.189  17.992  0.00  0.00    +0.000 A 
BRANCH  15  17
ATOM     17  N   UNL     1      10.660  15.490  18.242  0.00  0.00    +0.000 N 
ATOM     18  C   UNL     1      10.834  16.107  17.048  0.00  0.00    +0.000 C 
ATOM     19  N   UNL     1      10.921  15.644  15.856  0.00  0.00    +0.000 NA
ATOM     20  N   UNL     1      10.850  17.456  17.165  0.00  0.00    +0.000 N 
ATOM     21  H   UNL     1      10.637  16.111  19.038  0.00  0.00    +0.000 HD
ATOM     22  H   UNL     1      10.826  14.627  15.866  0.00  0.00    +0.000 HD
ATOM     23  H   UNL     1      10.024  17.821  17.622  0.00  0.00    +0.000 HD
ATOM     24  H   UNL     1      10.894  17.843  16.224  0.00  0.00    +0.000 HD
ENDBRANCH  15  17
ENDBRANCH   8  11
ENDBRANCH   4   7
BRANCH   1  25
ATOM     25  C   UNL     1       6.517   5.273  17.805  0.00  0.00    +0.000 C 
BRANCH  25  29
ATOM     26  C   UNL     1       2.461   4.341  19.129  0.00  0.00    +0.000 A 
ATOM     27  C   UNL     1       3.557   3.609  19.578  0.00  0.00    +0.000 A 
ATOM     28  C   UNL     1       4.851   3.955  19.183  0.00  0.00    +0.000 A 
ATOM     29  C   UNL     1       5.085   5.012  18.286  0.00  0.00    +0.000 A 
ATOM     30  C   UNL     1       3.968   5.727  17.823  0.00  0.00    +0.000 A 
ATOM     31  C   UNL     1       2.670   5.407  18.256  0.00  0.00    +0.000 A 
BRANCH  26  33
ATOM     32  C   UNL     1       0.782   2.677  18.981  0.00  0.00    +0.000 C 
ATOM     33  O   UNL     1       1.247   3.888  19.564  0.00  0.00    +0.000 OA
ENDBRANCH  26  33
ENDBRANCH  25  29
BRANCH  25  34
ATOM     34  C   UNL     1       6.876   4.396  16.593  0.00  0.00    +0.000 C 
BRANCH  34  35
ATOM     35  C   UNL     1       6.867   5.140  15.277  0.00  0.00    +0.000 C 
ATOM     36  O   UNL     1       7.853   5.562  14.695  0.00  0.00    +0.000 OA
BRANCH  35  37
ATOM     37  O   UNL     1       5.614   5.374  14.815  0.00  0.00    +0.000 OA
ATOM     38  H   UNL     1       5.372   4.863  14.021  0.00  0.00    +0.000 HD
ENDBRANCH  35  37
ENDBRANCH  34  35
ENDBRANCH  25  34
ENDBRANCH   1  25
TORSDOF 9
ENDMDL
MODEL 2
REMARK VINA RESULT:      -8.4      0.412      1.124
REMARK  Name = 
REMARK  10 active torsions:
REMARK  status: ('A' for Active; 'I' for Inactive)
REMARK    1  A    between atoms: C_1  and  O_2
REMARK    2  A    between atoms: O_2  and  C_3
REMARK    3  A    between atoms: C_6  and  C_7
REMARK    4  A    between atoms: C_7  and  C_8
REMARK    5  A    between atoms: C_7  and  N_12
REMARK    6  A    between atoms: C_8  and  C_9
REMARK    7  A    between atoms: C_9  and  O_11
REMARK    8  A    between atoms: N_15  and  N_16
REMARK    9  A    between atoms: C_17  and  C_19
REMARK   10  A    between atoms: C_23  and  N_24
REMARK                            x       y       z     vdW  Elec       q    Type
REMARK                         _______ _______ _______ _____ _____    ______ ____
ROOT
ATOM      1  N   UNL     1       6.913   6.716  17.349  0.00  0.00    +0.000 N 
ATOM      2  C   UNL     1       7.811   7.515  18.012  0.00  0.00    +0.000 C 
ATOM      3  O   UNL     1       8.524   7.131  18.934  0.00  0.00    +0.000 OA
ATOM      4  N   UNL     1       7.844   8.807  17.532  0.00  0.00    +0.000 N 
ATOM      5  H   UNL     1       6.210   7.184  16.799  0.00  0.00    +0.000 HD
ATOM      6  H   UNL     1       7.431   9.085  16.645  0.00  0.00    +0.000 HD
ENDROOT
BRANCH   4   7
ATOM      7  N   UNL     1       8.770   9.711  18.084  0.00  0.00    +0.000 N 
ATOM      8  C   UNL     1       8.582  11.065  17.870  0.00  0.00    +0.000 C 
ATOM      9  O   UNL     1       7.672  11.492  17.163  0.00  0.00    +0.000 OA
ATOM     10  H   UNL     1       9.581   9.298  18.539  0.00  0.00    +0.000 HD
BRANCH   8  11
ATOM     11  C   UNL     1       9.524  12.013  18.549  0.00  0.00    +0.000 A 
ATOM     12  C   UNL     1      10.201  11.687  19.727  0.00  0.00    +0.000 A 
ATOM     13  C   UNL     1      11.011  12.627  20.354  0.00  0.00    +0.000 A 
ATOM     14  C   UNL     1      11.117  13.916  19.823  0.00  0.00    +0.000 A 
ATOM     15  C   UNL     1      10.437  14.290  18.655  0.00  0.00    +0.000 A 
ATOM     16  C   UNL     1       9.656  13.313  18.019  0.00  0.00    +0.000 A 
BRANCH  15  17
ATOM     17  N   UNL     1      10.504  15.638  18.261  0.00  0.00    +0.000 N 
ATOM     18  C   UNL     1      10.749  16.205  17.055  0.00  0.00    +0.000 C 
ATOM     19  N   UNL     1      10.906  15.692  15.891  0.00  0.00    +0.000 NA
ATOM     20  N   UNL     1      10.758  17.558  17.115  0.00  0.00    +0.000 N 
ATOM     21  H   UNL     1      10.434  16.293  19.028  0.00  0.00    +0.000 HD
ATOM     22  H   UNL     1      10.811  14.676  15.938  0.00  0.00    +0.000 HD
ATOM     23  H   UNL     1       9.906  17.939  17.506  0.00  0.00    +0.000 HD
ATOM     24  H   UNL     1      10.858  17.905  16.164  0.00  0.00    +0.000 HD
ENDBRANCH  15  17
ENDBRANCH   8  11
ENDBRANCH   4   7
BRANCH   1  25
ATOM     25  C   UNL     1       6.719   5.298  17.698  0.00  0.00    +0.000 C 
BRANCH  25  29
ATOM     26  C   UNL     1       2.747   4.744  19.427  0.00  0.00    +0.000 A 
ATOM     27  C   UNL     1       3.046   5.849  18.636  0.00  0.00    +0.000 A 
ATOM     28  C   UNL     1       4.308   5.982  18.050  0.00  0.00    +0.000 A 
ATOM     29  C   UNL     1       5.325   5.039  18.280  0.00  0.00    +0.000 A 
ATOM     30  C   UNL     1       5.016   3.941  19.099  0.00  0.00    +0.000 A 
ATOM     31  C   UNL     1       3.733   3.785  19.651  0.00  0.00    +0.000 A 
BRANCH  26  33
ATOM     32  C   UNL     1       0.851   3.474  20.062  0.00  0.00    +0.000 C 
ATOM     33  O   UNL     1       1.490   4.741  19.965  0.00  0.00    +0.000 OA
ENDBRANCH  26  33
ENDBRANCH  25  29
BRANCH  25  34
ATOM     34  C   UNL     1       6.987   4.422  16.461  0.00  0.00    +0.000 C 
BRANCH  34  35
ATOM     35  C   UNL     1       6.640   5.093  15.152  0.00  0.00    +0.000 C 
ATOM     36  O   UNL     1       5.515   5.212  14.694  0.00  0.00    +0.000 OA
BRANCH  35  37
ATOM     37  O   UNL     1       7.735   5.502  14.465  0.00  0.00    +0.000 OA
ATOM     38  H   UNL     1       7.890   6.464  14.484  0.00  0.00    +0.000 HD
ENDBRANCH  35  37
ENDBRANCH  34  35
ENDBRANCH  25  34
ENDBRANCH   1  25
TORSDOF 9
ENDMDL
MODEL 3
REMARK VINA RESULT:      -8.3      2.503      3.104
REMARK  Name = 
REMARK  10 active torsions:
REMARK  status: ('A' for Active; 'I' for Inactive)
REMARK    1  A    between atoms: C_1  and  O_2
REMARK    2  A    between atoms: O_2  and  C_3
REMARK    3  A    between atoms: C_6  and  C_7
REMARK    4  A    between atoms: C_7  and  C_8
REMARK    5  A    between atoms: C_7  and  N_12
REMARK    6  A    between atoms: C_8  and  C_9
REMARK    7  A    between atoms: C_9  and  O_11
REMARK    8  A    between atoms: N_15  and  N_16
REMARK    9  A    between atoms: C_17  and  C_19
REMARK   10  A    between atoms: C_23  and  N_24
REMARK                            x       y       z     vdW  Elec       q    Type
REMARK                         _______ _______ _______ _____ _____    ______ ____
ROOT
ATOM      1  N   UNL     1       6.377   6.631  16.677  0.00  0.00    +0.000 N 
ATOM      2  C   UNL     1       7.270   7.177  17.566  0.00  0.00    +0.000 C 
ATOM      3  O   UNL     1       7.798   6.554  18.481  0.00  0.00    +0.000 OA
ATOM      4  N   UNL     1       7.526   8.510  17.324  0.00  0.00    +0.000 N 
ATOM      5  H   UNL     1       5.819   7.275  16.141  0.00  0.00    +0.000 HD
ATOM      6  H   UNL     1       7.274   8.981  16.458  0.00  0.00    +0.000 HD
ENDROOT
BRANCH   4   7
ATOM      7  N   UNL     1       8.474   9.173  18.126  0.00  0.00    +0.000 N 
ATOM      8  C   UNL     1       8.546  10.553  18.061  0.00  0.00    +0.000 C 
ATOM      9  O   UNL     1       7.856  11.205  17.281  0.00  0.00    +0.000 OA
ATOM     10  H   UNL     1       9.115   8.578  18.645  0.00  0.00    +0.000 HD
BRANCH   8  11
ATOM     11  C   UNL     1       9.494  11.244  18.994  0.00  0.00    +0.000 A 
ATOM     12  C   UNL     1      10.880  11.229  18.806  0.00  0.00    +0.000 A 
ATOM     13  C   UNL     1      11.720  11.827  19.738  0.00  0.00    +0.000 A 
ATOM     14  C   UNL     1      11.178  12.413  20.886  0.00  0.00    +0.000 A 
ATOM     15  C   UNL     1       9.796  12.430  21.122  0.00  0.00    +0.000 A 
ATOM     16  C   UNL     1       8.966  11.855  20.149  0.00  0.00    +0.000 A 
BRANCH  15  17
ATOM     17  N   UNL     1       9.350  12.930  22.358  0.00  0.00    +0.000 N 
ATOM     18  C   UNL     1       8.675  12.334  23.371  0.00  0.00    +0.000 C 
ATOM     19  N   UNL     1       8.316  11.117  23.554  0.00  0.00    +0.000 NA
ATOM     20  N   UNL     1       8.406  13.193  24.383  0.00  0.00    +0.000 N 
ATOM     21  H   UNL     1       9.489  13.925  22.472  0.00  0.00    +0.000 HD
ATOM     22  H   UNL     1       8.627  10.538  22.772  0.00  0.00    +0.000 HD
ATOM     23  H   UNL     1       9.235  13.647  24.744  0.00  0.00    +0.000 HD
ATOM     24  H   UNL     1       7.982  12.654  25.136  0.00  0.00    +0.000 HD
ENDBRANCH  15  17
ENDBRANCH   8  11
ENDBRANCH   4   7
BRANCH   1  25
ATOM     25  C   UNL     1       5.965   5.217  16.751  0.00  0.00    +0.000 C 
BRANCH  25  29
ATOM     26  C   UNL     1       2.800   4.418  19.653  0.00  0.00    +0.000 A 
ATOM     27  C   UNL     1       4.079   3.892  19.811  0.00  0.00    +0.000 A 
ATOM     28  C   UNL     1       5.091   4.201  18.899  0.00  0.00    +0.000 A 
ATOM     29  C   UNL     1       4.842   5.005  17.773  0.00  0.00    +0.000 A 
ATOM     30  C   UNL     1       3.541   5.509  17.613  0.00  0.00    +0.000 A 
ATOM     31  C   UNL     1       2.535   5.235  18.555  0.00  0.00    +0.000 A 
BRANCH  26  33
ATOM     32  C   UNL     1       0.957   3.029  20.186  0.00  0.00    +0.000 C 
ATOM     33  O   UNL     1       1.892   4.021  20.594  0.00  0.00    +0.000 OA
ENDBRANCH  26  33
ENDBRANCH  25  29
BRANCH  25  34
ATOM     34  C   UNL     1       5.556   4.727  15.350  0.00  0.00    +0.000 C 
BRANCH  34  35
ATOM     35  C   UNL     1       6.718   4.562  14.398  0.00  0.00    +0.000 C 
ATOM     36  O   UNL     1       7.691   5.296  14.334  0.00  0.00    +0.000 OA
BRANCH  35  37
ATOM     37  O   UNL     1       6.546   3.532  13.534  0.00  0.00    +0.000 OA
ATOM     38  H   UNL     1       7.329   2.963  13.420  0.00  0.00    +0.000 HD
ENDBRANCH  35  37
ENDBRANCH  34  35
ENDBRANCH  25  34
ENDBRANCH   1  25
TORSDOF 9
ENDMDL
MODEL 4
REMARK VINA RESULT:      -8.2      6.471      9.194
REMARK  Name = 
REMARK  10 active torsions:
REMARK  status: ('A' for Active; 'I' for Inactive)
REMARK    1  A    between atoms: C_1  and  O_2
REMARK    2  A    between atoms: O_2  and  C_3
REMARK    3  A    between atoms: C_6  and  C_7
REMARK    4  A    between atoms: C_7  and  C_8
REMARK    5  A    between atoms: C_7  and  N_12
REMARK    6  A    between atoms: C_8  and  C_9
REMARK    7  A    between atoms: C_9  and  O_11
REMARK    8  A    between atoms: N_15  and  N_16
REMARK    9  A    between atoms: C_17  and  C_19
REMARK   10  A    between atoms: C_23  and  N_24
REMARK                            x       y       z     vdW  Elec       q    Type
REMARK                         _______ _______ _______ _____ _____    ______ ____
ROOT
ATOM      1  N   UNL     1       2.888   5.648  20.232  0.00  0.00    +0.000 N 
ATOM      2  C   UNL     1       2.300   6.785  19.736  0.00  0.00    +0.000 C 
ATOM      3  O   UNL     1       2.035   6.963  18.551  0.00  0.00    +0.000 OA
ATOM      4  N   UNL     1       2.023   7.720  20.711  0.00  0.00    +0.000 N 
ATOM      5  H   UNL     1       3.290   5.710  21.153  0.00  0.00    +0.000 HD
ATOM      6  H   UNL     1       2.032   7.510  21.706  0.00  0.00    +0.000 HD
ENDROOT
BRANCH   4   7
ATOM      7  N   UNL     1       1.359   8.905  20.342  0.00  0.00    +0.000 N 
ATOM      8  C   UNL     1       0.147   9.199  20.942  0.00  0.00    +0.000 C 
ATOM      9  O   UNL     1      -0.392   8.428  21.732  0.00  0.00    +0.000 OA
ATOM     10  H   UNL     1       1.779   9.434  19.582  0.00  0.00    +0.000 HD
BRANCH   8  11
ATOM     11  C   UNL     1      -0.493  10.512  20.607  0.00  0.00    +0.000 A 
ATOM     12  C   UNL     1      -0.608  11.551  21.535  0.00  0.00    +0.000 A 
ATOM     13  C   UNL     1      -1.273  12.724  21.196  0.00  0.00    +0.000 A 
ATOM     14  C   UNL     1      -1.861  12.848  19.933  0.00  0.00    +0.000 A 
ATOM     15  C   UNL     1      -1.786  11.821  18.982  0.00  0.00    +0.000 A 
ATOM     16  C   UNL     1      -1.078  10.662  19.333  0.00  0.00    +0.000 A 
BRANCH  15  17
ATOM     17  N   UNL     1      -2.508  11.982  17.787  0.00  0.00    +0.000 N 
ATOM     18  C   UNL     1      -3.673  11.430  17.365  0.00  0.00    +0.000 C 
ATOM     19  N   UNL     1      -4.513  10.664  17.956  0.00  0.00    +0.000 NA
ATOM     20  N   UNL     1      -4.009  11.832  16.116  0.00  0.00    +0.000 N 
ATOM     21  H   UNL     1      -2.036  12.548  17.095  0.00  0.00    +0.000 HD
ATOM     22  H   UNL     1      -4.207  10.477  18.912  0.00  0.00    +0.000 HD
ATOM     23  H   UNL     1      -4.056  12.839  16.027  0.00  0.00    +0.000 HD
ATOM     24  H   UNL     1      -4.929  11.449  15.910  0.00  0.00    +0.000 HD
ENDBRANCH  15  17
ENDBRANCH   8  11
ENDBRANCH   4   7
BRANCH   1  25
ATOM     25  C   UNL     1       3.266   4.519  19.362  0.00  0.00    +0.000 C 
BRANCH  25  29
ATOM     26  C   UNL     1       6.520   5.393  16.584  0.00  0.00    +0.000 A 
ATOM     27  C   UNL     1       5.270   4.984  16.130  0.00  0.00    +0.000 A 
ATOM     28  C   UNL     1       4.226   4.758  17.032  0.00  0.00    +0.000 A 
ATOM     29  C   UNL     1       4.417   4.886  18.419  0.00  0.00    +0.000 A 
ATOM     30  C   UNL     1       5.691   5.276  18.864  0.00  0.00    +0.000 A 
ATOM     31  C   UNL     1       6.727   5.546  17.954  0.00  0.00    +0.000 A 
BRANCH  26  33
ATOM     32  C   UNL     1       7.190   4.932  14.360  0.00  0.00    +0.000 C 
ATOM     33  O   UNL     1       7.464   5.554  15.609  0.00  0.00    +0.000 OA
ENDBRANCH  26  33
ENDBRANCH  25  29
BRANCH  25  34
ATOM     34  C   UNL     1       3.613   3.296  20.230  0.00  0.00    +0.000 C 
BRANCH  34  35
ATOM     35  C   UNL     1       3.983   2.067  19.432  0.00  0.00    +0.000 C 
ATOM     36  O   UNL     1       3.308   1.568  18.546  0.00  0.00    +0.000 OA
BRANCH  35  37
ATOM     37  O   UNL     1       5.139   1.497  19.852  0.00  0.00    +0.000 OA
ATOM     38  H   UNL     1       5.120   1.169  20.769  0.00  0.00    +0.000 HD
ENDBRANCH  35  37
ENDBRANCH  34  35
ENDBRANCH  25  34
ENDBRANCH   1  25
TORSDOF 9
ENDMDL
MODEL 5
REMARK VINA RESULT:      -8.2      5.558      7.893
REMARK  Name = 
REMARK  10 active torsions:
REMARK  status: ('A' for Active; 'I' for Inactive)
REMARK    1  A    between atoms: C_1  and  O_2
REMARK    2  A    between atoms: O_2  and  C_3
REMARK    3  A    between atoms: C_6  and  C_7
REMARK    4  A    between atoms: C_7  and  C_8
REMARK    5  A    between atoms: C_7  and  N_12
REMARK    6  A    between atoms: C_8  and  C_9
REMARK    7  A    between atoms: C_9  and  O_11
REMARK    8  A    between atoms: N_15  and  N_16
REMARK    9  A    between atoms: C_17  and  C_19
REMARK   10  A    between atoms: C_23  and  N_24
REMARK                            x       y       z     vdW  Elec       q    Type
REMARK                         _______ _______ _______ _____ _____    ______ ____
ROOT
ATOM      1  N   UNL     1       2.490   5.213  20.119  0.00  0.00    +0.000 N 
ATOM      2  C   UNL     1       2.211   6.507  19.753  0.00  0.00    +0.000 C 
ATOM      3  O   UNL     1       2.129   6.891  18.590  0.00  0.00    +0.000 OA
ATOM      4  N   UNL     1       2.020   7.344  20.831  0.00  0.00    +0.000 N 
ATOM      5  H   UNL     1       2.785   5.065  21.070  0.00  0.00    +0.000 HD
ATOM      6  H   UNL     1       1.869   7.010  21.780  0.00  0.00    +0.000 HD
ENDROOT
BRANCH   4   7
ATOM      7  N   UNL     1       1.663   8.685  20.592  0.00  0.00    +0.000 N 
ATOM      8  C   UNL     1       0.449   9.142  21.073  0.00  0.00    +0.000 C 
ATOM      9  O   UNL     1      -0.347   8.399  21.643  0.00  0.00    +0.000 OA
ATOM     10  H   UNL     1       2.292   9.215  19.994  0.00  0.00    +0.000 HD
BRANCH   8  11
ATOM     11  C   UNL     1       0.133  10.596  20.892  0.00  0.00    +0.000 A 
ATOM     12  C   UNL     1      -1.107  11.145  21.235  0.00  0.00    +0.000 A 
ATOM     13  C   UNL     1      -1.374  12.485  20.982  0.00  0.00    +0.000 A 
ATOM     14  C   UNL     1      -0.411  13.277  20.349  0.00  0.00    +0.000 A 
ATOM     15  C   UNL     1       0.836  12.760  19.970  0.00  0.00    +0.000 A 
ATOM     16  C   UNL     1       1.097  11.414  20.269  0.00  0.00    +0.000 A 
BRANCH  15  17
ATOM     17  N   UNL     1       1.693  13.593  19.231  0.00  0.00    +0.000 N 
ATOM     18  C   UNL     1       2.453  13.346  18.136  0.00  0.00    +0.000 C 
ATOM     19  N   UNL     1       2.557  12.309  17.389  0.00  0.00    +0.000 NA
ATOM     20  N   UNL     1       3.168  14.430  17.752  0.00  0.00    +0.000 N 
ATOM     21  H   UNL     1       1.821  14.511  19.634  0.00  0.00    +0.000 HD
ATOM     22  H   UNL     1       1.927  11.575  17.717  0.00  0.00    +0.000 HD
ATOM     23  H   UNL     1       2.590  15.245  17.591  0.00  0.00    +0.000 HD
ATOM     24  H   UNL     1       3.638  14.193  16.881  0.00  0.00    +0.000 HD
ENDBRANCH  15  17
ENDBRANCH   8  11
ENDBRANCH   4   7
BRANCH   1  25
ATOM     25  C   UNL     1       2.726   4.151  19.124  0.00  0.00    +0.000 C 
BRANCH  25  29
ATOM     26  C   UNL     1       6.410   4.619  16.825  0.00  0.00    +0.000 A 
ATOM     27  C   UNL     1       5.195   4.351  16.201  0.00  0.00    +0.000 A 
ATOM     28  C   UNL     1       4.019   4.256  16.949  0.00  0.00    +0.000 A 
ATOM     29  C   UNL     1       4.031   4.375  18.350  0.00  0.00    +0.000 A 
ATOM     30  C   UNL     1       5.267   4.622  18.969  0.00  0.00    +0.000 A 
ATOM     31  C   UNL     1       6.443   4.762  18.211  0.00  0.00    +0.000 A 
BRANCH  26  33
ATOM     32  C   UNL     1       7.212   4.864  14.610  0.00  0.00    +0.000 C 
ATOM     33  O   UNL     1       7.491   4.662  15.990  0.00  0.00    +0.000 OA
ENDBRANCH  26  33
ENDBRANCH  25  29
BRANCH  25  34
ATOM     34  C   UNL     1       2.710   2.780  19.822  0.00  0.00    +0.000 C 
BRANCH  34  35
ATOM     35  C   UNL     1       1.998   2.782  21.155  0.00  0.00    +0.000 C 
ATOM     36  O   UNL     1       2.531   2.630  22.243  0.00  0.00    +0.000 OA
BRANCH  35  37
ATOM     37  O   UNL     1       0.653   2.896  21.032  0.00  0.00    +0.000 OA
ATOM     38  H   UNL     1       0.314   2.747  20.130  0.00  0.00    +0.000 HD
ENDBRANCH  35  37
ENDBRANCH  34  35
ENDBRANCH  25  34
ENDBRANCH   1  25
TORSDOF 9
ENDMDL
MODEL 6
REMARK VINA RESULT:      -8.1      3.479     10.354
REMARK  Name = 
REMARK  10 active torsions:
REMARK  status: ('A' for Active; 'I' for Inactive)
REMARK    1  A    between atoms: C_1  and  O_2
REMARK    2  A    between atoms: O_2  and  C_3
REMARK    3  A    between atoms: C_6  and  C_7
REMARK    4  A    between atoms: C_7  and  C_8
REMARK    5  A    between atoms: C_7  and  N_12
REMARK    6  A    between atoms: C_8  and  C_9
REMARK    7  A    between atoms: C_9  and  O_11
REMARK    8  A    between atoms: N_15  and  N_16
REMARK    9  A    between atoms: C_17  and  C_19
REMARK   10  A    between atoms: C_23  and  N_24
REMARK                            x       y       z     vdW  Elec       q    Type
REMARK                         _______ _______ _______ _____ _____    ______ ____
ROOT
ATOM      1  N   UNL     1       9.546  10.036  19.769  0.00  0.00    +0.000 N 
ATOM      2  C   UNL     1       8.770   9.409  18.826  0.00  0.00    +0.000 C 
ATOM      3  O   UNL     1       8.228   9.984  17.887  0.00  0.00    +0.000 OA
ATOM      4  N   UNL     1       8.663   8.049  19.031  0.00  0.00    +0.000 N 
ATOM      5  H   UNL     1       9.723   9.529  20.621  0.00  0.00    +0.000 HD
ATOM      6  H   UNL     1       9.269   7.529  19.660  0.00  0.00    +0.000 HD
ENDROOT
BRANCH   4   7
ATOM      7  N   UNL     1       7.947   7.279  18.096  0.00  0.00    +0.000 N 
ATOM      8  C   UNL     1       7.605   5.981  18.432  0.00  0.00    +0.000 C 
ATOM      9  O   UNL     1       7.962   5.466  19.489  0.00  0.00    +0.000 OA
ATOM     10  H   UNL     1       7.801   7.704  17.184  0.00  0.00    +0.000 HD
BRANCH   8  11
ATOM     11  C   UNL     1       6.759   5.212  17.463  0.00  0.00    +0.000 A 
ATOM     12  C   UNL     1       6.959   5.268  16.080  0.00  0.00    +0.000 A 
ATOM     13  C   UNL     1       6.104   4.590  15.220  0.00  0.00    +0.000 A 
ATOM     14  C   UNL     1       5.017   3.880  15.738  0.00  0.00    +0.000 A 
ATOM     15  C   UNL     1       4.768   3.816  17.117  0.00  0.00    +0.000 A 
ATOM     16  C   UNL     1       5.667   4.477  17.968  0.00  0.00    +0.000 A 
BRANCH  15  17
ATOM     17  N   UNL     1       3.587   3.184  17.541  0.00  0.00    +0.000 N 
ATOM     18  C   UNL     1       3.369   1.945  18.047  0.00  0.00    +0.000 C 
ATOM     19  N   UNL     1       4.178   1.007  18.376  0.00  0.00    +0.000 NA
ATOM     20  N   UNL     1       2.058   1.717  18.298  0.00  0.00    +0.000 N 
ATOM     21  H   UNL     1       2.749   3.720  17.364  0.00  0.00    +0.000 HD
ATOM     22  H   UNL     1       5.142   1.302  18.217  0.00  0.00    +0.000 HD
ATOM     23  H   UNL     1       1.648   2.413  18.908  0.00  0.00    +0.000 HD
ATOM     24  H   UNL     1       1.989   0.809  18.755  0.00  0.00    +0.000 HD
ENDBRANCH  15  17
ENDBRANCH   8  11
ENDBRANCH   4   7
BRANCH   1  25
ATOM     25  C   UNL     1       9.796  11.489  19.737  0.00  0.00    +0.000 C 
BRANCH  25  29
ATOM     26  C   UNL     1       8.476  13.345  23.463  0.00  0.00    +0.000 A 
ATOM     27  C   UNL     1       8.219  12.005  23.191  0.00  0.00    +0.000 A 
ATOM     28  C   UNL     1       8.694  11.416  22.015  0.00  0.00    +0.000 A 
ATOM     29  C   UNL     1       9.396  12.164  21.054  0.00  0.00    +0.000 A 
ATOM     30  C   UNL     1       9.627  13.521  21.331  0.00  0.00    +0.000 A 
ATOM     31  C   UNL     1       9.188  14.101  22.534  0.00  0.00    +0.000 A 
BRANCH  26  33
ATOM     32  C   UNL     1       8.176  13.026  25.791  0.00  0.00    +0.000 C 
ATOM     33  O   UNL     1       7.936  13.811  24.629  0.00  0.00    +0.000 OA
ENDBRANCH  26  33
ENDBRANCH  25  29
BRANCH  25  34
ATOM     34  C   UNL     1      11.273  11.749  19.393  0.00  0.00    +0.000 C 
BRANCH  34  35
ATOM     35  C   UNL     1      11.473  12.740  18.270  0.00  0.00    +0.000 C 
ATOM     36  O   UNL     1      11.416  12.482  17.079  0.00  0.00    +0.000 OA
BRANCH  35  37
ATOM     37  O   UNL     1      11.809  13.976  18.715  0.00  0.00    +0.000 OA
ATOM     38  H   UNL     1      11.349  14.254  19.528  0.00  0.00    +0.000 HD
ENDBRANCH  35  37
ENDBRANCH  34  35
ENDBRANCH  25  34
ENDBRANCH   1  25
TORSDOF 9
ENDMDL
MODEL 7
REMARK VINA RESULT:      -8.0      1.006      1.151
REMARK  Name = 
REMARK  10 active torsions:
REMARK  status: ('A' for Active; 'I' for Inactive)
REMARK    1  A    between atoms: C_1  and  O_2
REMARK    2  A    between atoms: O_2  and  C_3
REMARK    3  A    between atoms: C_6  and  C_7
REMARK    4  A    between atoms: C_7  and  C_8
REMARK    5  A    between atoms: C_7  and  N_12
REMARK    6  A    between atoms: C_8  and  C_9
REMARK    7  A    between atoms: C_9  and  O_11
REMARK    8  A    between atoms: N_15  and  N_16
REMARK    9  A    between atoms: C_17  and  C_19
REMARK   10  A    between atoms: C_23  and  N_24
REMARK                            x       y       z     vdW  Elec       q    Type
REMARK                         _______ _______ _______ _____ _____    ______ ____
ROOT
ATOM      1  N   UNL     1       6.243   7.155  16.734  0.00  0.00    +0.000 N 
ATOM      2  C   UNL     1       7.309   7.672  17.429  0.00  0.00    +0.000 C 
ATOM      3  O   UNL     1       8.166   6.990  17.981  0.00  0.00    +0.000 OA
ATOM      4  N   UNL     1       7.330   9.050  17.441  0.00  0.00    +0.000 N 
ATOM      5  H   UNL     1       5.477   7.782  16.548  0.00  0.00    +0.000 HD
ATOM      6  H   UNL     1       6.765   9.624  16.819  0.00  0.00    +0.000 HD
ENDROOT
BRANCH   4   7
ATOM      7  N   UNL     1       8.408   9.705  18.066  0.00  0.00    +0.000 N 
ATOM      8  C   UNL     1       8.543  11.071  17.891  0.00  0.00    +0.000 C 
ATOM      9  O   UNL     1       7.791  11.712  17.159  0.00  0.00    +0.000 OA
ATOM     10  H   UNL     1       9.078   9.107  18.542  0.00  0.00    +0.000 HD
BRANCH   8  11
ATOM     11  C   UNL     1       9.639  11.763  18.644  0.00  0.00    +0.000 A 
ATOM     12  C   UNL     1      10.281  11.182  19.741  0.00  0.00    +0.000 A 
ATOM     13  C   UNL     1      11.245  11.893  20.447  0.00  0.00    +0.000 A 
ATOM     14  C   UNL     1      11.544  13.208  20.080  0.00  0.00    +0.000 A 
ATOM     15  C   UNL     1      10.907  13.835  18.999  0.00  0.00    +0.000 A 
ATOM     16  C   UNL     1       9.967  13.085  18.278  0.00  0.00    +0.000 A 
BRANCH  15  17
ATOM     17  N   UNL     1      11.181  15.196  18.778  0.00  0.00    +0.000 N 
ATOM     18  C   UNL     1      11.828  15.824  17.766  0.00  0.00    +0.000 C 
ATOM     19  N   UNL     1      12.309  15.383  16.662  0.00  0.00    +0.000 NA
ATOM     20  N   UNL     1      11.904  17.162  17.957  0.00  0.00    +0.000 N 
ATOM     21  H   UNL     1      10.916  15.797  19.546  0.00  0.00    +0.000 HD
ATOM     22  H   UNL     1      12.139  14.380  16.580  0.00  0.00    +0.000 HD
ATOM     23  H   UNL     1      10.999  17.590  18.103  0.00  0.00    +0.000 HD
ATOM     24  H   UNL     1      12.320  17.566  17.120  0.00  0.00    +0.000 HD
ENDBRANCH  15  17
ENDBRANCH   8  11
ENDBRANCH   4   7
BRANCH   1  25
ATOM     25  C   UNL     1       6.030   5.704  16.593  0.00  0.00    +0.000 C 
BRANCH  25  29
ATOM     26  C   UNL     1       3.165   4.024  19.429  0.00  0.00    +0.000 A 
ATOM     27  C   UNL     1       4.516   3.691  19.481  0.00  0.00    +0.000 A 
ATOM     28  C   UNL     1       5.425   4.279  18.596  0.00  0.00    +0.000 A 
ATOM     29  C   UNL     1       5.002   5.178  17.601  0.00  0.00    +0.000 A 
ATOM     30  C   UNL     1       3.633   5.486  17.547  0.00  0.00    +0.000 A 
ATOM     31  C   UNL     1       2.726   4.929  18.465  0.00  0.00    +0.000 A 
BRANCH  26  33
ATOM     32  C   UNL     1       1.093   3.932  20.574  0.00  0.00    +0.000 C 
ATOM     33  O   UNL     1       2.373   3.363  20.327  0.00  0.00    +0.000 OA
ENDBRANCH  26  33
ENDBRANCH  25  29
BRANCH  25  34
ATOM     34  C   UNL     1       5.617   5.383  15.145  0.00  0.00    +0.000 C 
BRANCH  34  35
ATOM     35  C   UNL     1       6.737   4.816  14.303  0.00  0.00    +0.000 C 
ATOM     36  O   UNL     1       6.644   3.858  13.553  0.00  0.00    +0.000 OA
BRANCH  35  37
ATOM     37  O   UNL     1       7.921   5.441  14.515  0.00  0.00    +0.000 OA
ATOM     38  H   UNL     1       8.502   5.000  15.163  0.00  0.00    +0.000 HD
ENDBRANCH  35  37
ENDBRANCH  34  35
ENDBRANCH  25  34
ENDBRANCH   1  25
TORSDOF 9
ENDMDL
MODEL 8
REMARK VINA RESULT:      -7.9      6.506      9.665
REMARK  Name = 
REMARK  10 active torsions:
REMARK  status: ('A' for Active; 'I' for Inactive)
REMARK    1  A    between atoms: C_1  and  O_2
REMARK    2  A    between atoms: O_2  and  C_3
REMARK    3  A    between atoms: C_6  and  C_7
REMARK    4  A    between atoms: C_7  and  C_8
REMARK    5  A    between atoms: C_7  and  N_12
REMARK    6  A    between atoms: C_8  and  C_9
REMARK    7  A    between atoms: C_9  and  O_11
REMARK    8  A    between atoms: N_15  and  N_16
REMARK    9  A    between atoms: C_17  and  C_19
REMARK   10  A    between atoms: C_23  and  N_24
REMARK                            x       y       z     vdW  Elec       q    Type
REMARK                         _______ _______ _______ _____ _____    ______ ____
ROOT
ATOM      1  N   UNL     1       0.604   9.506  18.921  0.00  0.00    +0.000 N 
ATOM      2  C   UNL     1       1.774   9.076  18.345  0.00  0.00    +0.000 C 
ATOM      3  O   UNL     1       2.491   9.776  17.639  0.00  0.00    +0.000 OA
ATOM      4  N   UNL     1       2.074   7.764  18.647  0.00  0.00    +0.000 N 
ATOM      5  H   UNL     1      -0.025   8.795  19.257  0.00  0.00    +0.000 HD
ATOM      6  H   UNL     1       1.619   7.242  19.392  0.00  0.00    +0.000 HD
ENDROOT
BRANCH   4   7
ATOM      7  N   UNL     1       3.282   7.221  18.170  0.00  0.00    +0.000 N 
ATOM      8  C   UNL     1       3.827   6.136  18.835  0.00  0.00    +0.000 C 
ATOM      9  O   UNL     1       3.324   5.680  19.860  0.00  0.00    +0.000 OA
ATOM     10  H   UNL     1       3.728   7.723  17.408  0.00  0.00    +0.000 HD
BRANCH   8  11
ATOM     11  C   UNL     1       5.059   5.512  18.254  0.00  0.00    +0.000 A 
ATOM     12  C   UNL     1       6.321   5.651  18.840  0.00  0.00    +0.000 A 
ATOM     13  C   UNL     1       7.444   5.111  18.224  0.00  0.00    +0.000 A 
ATOM     14  C   UNL     1       7.315   4.459  16.994  0.00  0.00    +0.000 A 
ATOM     15  C   UNL     1       6.071   4.318  16.362  0.00  0.00    +0.000 A 
ATOM     16  C   UNL     1       4.947   4.838  17.021  0.00  0.00    +0.000 A 
BRANCH  15  17
ATOM     17  N   UNL     1       6.051   3.759  15.073  0.00  0.00    +0.000 N 
ATOM     18  C   UNL     1       6.563   4.203  13.898  0.00  0.00    +0.000 C 
ATOM     19  N   UNL     1       7.293   5.219  13.620  0.00  0.00    +0.000 NA
ATOM     20  N   UNL     1       6.290   3.366  12.870  0.00  0.00    +0.000 N 
ATOM     21  H   UNL     1       5.493   2.920  14.998  0.00  0.00    +0.000 HD
ATOM     22  H   UNL     1       7.503   5.745  14.469  0.00  0.00    +0.000 HD
ATOM     23  H   UNL     1       6.600   2.418  13.042  0.00  0.00    +0.000 HD
ATOM     24  H   UNL     1       6.779   3.720  12.050  0.00  0.00    +0.000 HD
ENDBRANCH  15  17
ENDBRANCH   8  11
ENDBRANCH   4   7
BRANCH   1  25
ATOM     25  C   UNL     1       0.096  10.877  18.732  0.00  0.00    +0.000 C 
BRANCH  25  29
ATOM     26  C   UNL     1      -4.133  10.900  17.643  0.00  0.00    +0.000 A 
ATOM     27  C   UNL     1      -3.614  11.816  18.553  0.00  0.00    +0.000 A 
ATOM     28  C   UNL     1      -2.248  11.825  18.850  0.00  0.00    +0.000 A 
ATOM     29  C   UNL     1      -1.370  10.885  18.283  0.00  0.00    +0.000 A 
ATOM     30  C   UNL     1      -1.912   9.951  17.385  0.00  0.00    +0.000 A 
ATOM     31  C   UNL     1      -3.278   9.971  17.053  0.00  0.00    +0.000 A 
BRANCH  26  33
ATOM     32  C   UNL     1      -6.181  11.914  18.266  0.00  0.00    +0.000 C 
ATOM     33  O   UNL     1      -5.486  10.973  17.458  0.00  0.00    +0.000 OA
ENDBRANCH  26  33
ENDBRANCH  25  29
BRANCH  25  34
ATOM     34  C   UNL     1       0.295  11.682  20.028  0.00  0.00    +0.000 C 
BRANCH  34  35
ATOM     35  C   UNL     1       0.161  10.856  21.287  0.00  0.00    +0.000 C 
ATOM     36  O   UNL     1      -0.876  10.666  21.902  0.00  0.00    +0.000 OA
BRANCH  35  37
ATOM     37  O   UNL     1       1.350  10.386  21.735  0.00  0.00    +0.000 OA
ATOM     38  H   UNL     1       2.124  10.914  21.464  0.00  0.00    +0.000 HD
ENDBRANCH  35  37
ENDBRANCH  34  35
ENDBRANCH  25  34
ENDBRANCH   1  25
TORSDOF 9
ENDMDL
MODEL 9
REMARK VINA RESULT:      -7.9      6.479     10.063
REMARK  Name = 
REMARK  10 active torsions:
REMARK  status: ('A' for Active; 'I' for Inactive)
REMARK    1  A    between atoms: C_1  and  O_2
REMARK    2  A    between atoms: O_2  and  C_3
REMARK    3  A    between atoms: C_6  and  C_7
REMARK    4  A    between atoms: C_7  and  C_8
REMARK    5  A    between atoms: C_7  and  N_12
REMARK    6  A    between atoms: C_8  and  C_9
REMARK    7  A    between atoms: C_9  and  O_11
REMARK    8  A    between atoms: N_15  and  N_16
REMARK    9  A    between atoms: C_17  and  C_19
REMARK   10  A    between atoms: C_23  and  N_24
REMARK                            x       y       z     vdW  Elec       q    Type
REMARK                         _______ _______ _______ _____ _____    ______ ____
ROOT
ATOM      1  N   UNL     1       0.673  10.011  19.745  0.00  0.00    +0.000 N 
ATOM      2  C   UNL     1       1.461   8.925  19.452  0.00  0.00    +0.000 C 
ATOM      3  O   UNL     1       1.972   8.722  18.356  0.00  0.00    +0.000 OA
ATOM      4  N   UNL     1       1.630   8.076  20.525  0.00  0.00    +0.000 N 
ATOM      5  H   UNL     1       0.105   9.949  20.574  0.00  0.00    +0.000 HD
ATOM      6  H   UNL     1       1.402   8.330  21.482  0.00  0.00    +0.000 HD
ENDROOT
BRANCH   4   7
ATOM      7  N   UNL     1       2.470   6.956  20.374  0.00  0.00    +0.000 N 
ATOM      8  C   UNL     1       1.909   5.693  20.456  0.00  0.00    +0.000 C 
ATOM      9  O   UNL     1       0.721   5.524  20.719  0.00  0.00    +0.000 OA
ATOM     10  H   UNL     1       3.465   7.150  20.300  0.00  0.00    +0.000 HD
BRANCH   8  11
ATOM     11  C   UNL     1       2.803   4.518  20.196  0.00  0.00    +0.000 A 
ATOM     12  C   UNL     1       2.702   3.323  20.913  0.00  0.00    +0.000 A 
ATOM     13  C   UNL     1       3.600   2.287  20.680  0.00  0.00    +0.000 A 
ATOM     14  C   UNL     1       4.631   2.458  19.751  0.00  0.00    +0.000 A 
ATOM     15  C   UNL     1       4.779   3.650  19.027  0.00  0.00    +0.000 A 
ATOM     16  C   UNL     1       3.839   4.666  19.251  0.00  0.00    +0.000 A 
BRANCH  15  17
ATOM     17  N   UNL     1       5.913   3.779  18.206  0.00  0.00    +0.000 N 
ATOM     18  C   UNL     1       7.018   4.555  18.325  0.00  0.00    +0.000 C 
ATOM     19  N   UNL     1       7.409   5.340  19.260  0.00  0.00    +0.000 NA
ATOM     20  N   UNL     1       7.869   4.400  17.283  0.00  0.00    +0.000 N 
ATOM     21  H   UNL     1       5.855   3.260  17.341  0.00  0.00    +0.000 HD
ATOM     22  H   UNL     1       6.737   5.333  20.029  0.00  0.00    +0.000 HD
ATOM     23  H   UNL     1       8.142   3.436  17.139  0.00  0.00    +0.000 HD
ATOM     24  H   UNL     1       8.706   4.943  17.489  0.00  0.00    +0.000 HD
ENDBRANCH  15  17
ENDBRANCH   8  11
ENDBRANCH   4   7
BRANCH   1  25
ATOM     25  C   UNL     1       0.365  11.048  18.744  0.00  0.00    +0.000 C 
BRANCH  25  29
ATOM     26  C   UNL     1      -3.860  10.874  17.652  0.00  0.00    +0.000 A 
ATOM     27  C   UNL     1      -3.388  11.800  18.578  0.00  0.00    +0.000 A 
ATOM     28  C   UNL     1      -2.025  11.873  18.876  0.00  0.00    +0.000 A 
ATOM     29  C   UNL     1      -1.099  10.989  18.294  0.00  0.00    +0.000 A 
ATOM     30  C   UNL     1      -1.593  10.044  17.380  0.00  0.00    +0.000 A 
ATOM     31  C   UNL     1      -2.958  10.000  17.047  0.00  0.00    +0.000 A 
BRANCH  26  33
ATOM     32  C   UNL     1      -6.010  10.777  18.642  0.00  0.00    +0.000 C 
ATOM     33  O   UNL     1      -5.214  10.881  17.467  0.00  0.00    +0.000 OA
ENDBRANCH  26  33
ENDBRANCH  25  29
BRANCH  25  34
ATOM     34  C   UNL     1       0.728  12.433  19.309  0.00  0.00    +0.000 C 
BRANCH  34  35
ATOM     35  C   UNL     1       1.569  13.272  18.376  0.00  0.00    +0.000 C 
ATOM     36  O   UNL     1       1.592  14.492  18.345  0.00  0.00    +0.000 OA
BRANCH  35  37
ATOM     37  O   UNL     1       2.270  12.526  17.487  0.00  0.00    +0.000 OA
ATOM     38  H   UNL     1       1.726  11.931  16.938  0.00  0.00    +0.000 HD
ENDBRANCH  35  37
ENDBRANCH  34  35
ENDBRANCH  25  34
ENDBRANCH   1  25
TORSDOF 9
ENDMDL
