MODEL 1
REMARK VINA RESULT:      -7.7      0.000      0.000
REMARK  Name = 
REMARK  4 active torsions:
REMARK  status: ('A' for Active; 'I' for Inactive)
REMARK    1  A    between atoms: C_2  and  C_3
REMARK    2  A    between atoms: C_3  and  O_4
REMARK    3  A    between atoms: O_4  and  C_5
REMARK    4  A    between atoms: C_16  and  C_17
REMARK                            x       y       z     vdW  Elec       q    Type
REMARK                         _______ _______ _______ _____ _____    ______ ____
ROOT
ATOM      1  O   UNL     1       2.036   8.890  17.925  0.00  0.00    +0.000 OA
ATOM      2  C   UNL     1       1.600   9.049  19.070  0.00  0.00    +0.000 C 
ATOM      3  N   UNL     1       0.851  10.160  19.314  0.00  0.00    +0.000 N 
ATOM      4  C   UNL     1       0.430  10.584  20.537  0.00  0.00    +0.000 A 
ATOM      5  N   UNL     1       0.750  10.149  21.730  0.00  0.00    +0.000 NA
ATOM      6  N   UNL     1       0.065  10.826  22.713  0.00  0.00    +0.000 NA
ATOM      7  C   UNL     1      -0.762  11.738  22.228  0.00  0.00    +0.000 A 
ATOM      8  S   UNL     1      -0.699  11.854  20.507  0.00  0.00    +0.000 S 
ATOM      9  H   UNL     1       0.630  10.729  18.510  0.00  0.00    +0.000 HD
ENDROOT
BRANCH   7  10
ATOM     10  C   UNL     1      -1.682  12.541  23.043  0.00  0.00    +0.000 A 
ATOM     11  C   UNL     1      -2.963  12.107  23.403  0.00  0.00    +0.000 A 
ATOM     12  C   UNL     1      -3.753  12.937  24.180  0.00  0.00    +0.000 A 
ATOM     13  N   UNL     1      -3.364  14.150  24.619  0.00  0.00    +0.000 NA
ATOM     14  C   UNL     1      -2.130  14.560  24.261  0.00  0.00    +0.000 A 
ATOM     15  C   UNL     1      -1.269  13.804  23.485  0.00  0.00    +0.000 A 
ENDBRANCH   7  10
BRANCH   2  16
ATOM     16  C   UNL     1       1.795   7.969  20.134  0.00  0.00    +0.000 C 
BRANCH  16  17
ATOM     17  O   UNL     1       2.711   6.959  19.741  0.00  0.00    +0.000 OA
BRANCH  17  18
ATOM     18  C   UNL     1       2.148   5.722  19.548  0.00  0.00    +0.000 A 
ATOM     19  C   UNL     1       1.564   4.938  20.550  0.00  0.00    +0.000 A 
ATOM     20  C   UNL     1       1.030   3.684  20.243  0.00  0.00    +0.000 A 
ATOM     21  C   UNL     1       1.070   3.222  18.936  0.00  0.00    +0.000 A 
ATOM     22  F   UNL     1       0.565   2.016  18.649  0.00  0.00    +0.000 F 
ATOM     23  C   UNL     1       1.624   3.997  17.924  0.00  0.00    +0.000 A 
ATOM     24  C   UNL     1       2.157   5.253  18.230  0.00  0.00    +0.000 A 
ENDBRANCH  17  18
ENDBRANCH  16  17
ENDBRANCH   2  16
TORSDOF 4
ENDMDL
MODEL 2
REMARK VINA RESULT:      -7.7      0.102      1.407
REMARK  Name = 
REMARK  4 active torsions:
REMARK  status: ('A' for Active; 'I' for Inactive)
REMARK    1  A    between atoms: C_2  and  C_3
REMARK    2  A    between atoms: C_3  and  O_4
REMARK    3  A    between atoms: O_4  and  C_5
REMARK    4  A    between atoms: C_16  and  C_17
REMARK                            x       y       z     vdW  Elec       q    Type
REMARK                         _______ _______ _______ _____ _____    ______ ____
ROOT
ATOM      1  O   UNL     1       2.032   8.875  17.856  0.00  0.00    +0.000 OA
ATOM      2  C   UNL     1       1.605   9.038  19.004  0.00  0.00    +0.000 C 
ATOM      3  N   UNL     1       0.881  10.163  19.256  0.00  0.00    +0.000 N 
ATOM      4  C   UNL     1       0.475  10.590  20.483  0.00  0.00    +0.000 A 
ATOM      5  N   UNL     1       0.792  10.143  21.673  0.00  0.00    +0.000 NA
ATOM      6  N   UNL     1       0.126  10.830  22.663  0.00  0.00    +0.000 NA
ATOM      7  C   UNL     1      -0.685  11.760  22.186  0.00  0.00    +0.000 A 
ATOM      8  S   UNL     1      -0.629  11.883  20.465  0.00  0.00    +0.000 S 
ATOM      9  H   UNL     1       0.667  10.740  18.456  0.00  0.00    +0.000 HD
ENDROOT
BRANCH   7  10
ATOM     10  C   UNL     1      -1.584  12.579  23.009  0.00  0.00    +0.000 A 
ATOM     11  C   UNL     1      -1.231  13.839  23.506  0.00  0.00    +0.000 A 
ATOM     12  C   UNL     1      -2.153  14.536  24.268  0.00  0.00    +0.000 A 
ATOM     13  N   UNL     1      -3.384  14.076  24.565  0.00  0.00    +0.000 NA
ATOM     14  C   UNL     1      -3.711  12.859  24.085  0.00  0.00    +0.000 A 
ATOM     15  C   UNL     1      -2.857  12.085  23.317  0.00  0.00    +0.000 A 
ENDBRANCH   7  10
BRANCH   2  16
ATOM     16  C   UNL     1       1.784   7.950  20.062  0.00  0.00    +0.000 C 
BRANCH  16  17
ATOM     17  O   UNL     1       2.738   6.967  19.694  0.00  0.00    +0.000 OA
BRANCH  17  18
ATOM     18  C   UNL     1       2.204   5.741  19.381  0.00  0.00    +0.000 A 
ATOM     19  C   UNL     1       2.221   5.157  18.109  0.00  0.00    +0.000 A 
ATOM     20  C   UNL     1       1.636   3.907  17.899  0.00  0.00    +0.000 A 
ATOM     21  C   UNL     1       1.046   3.237  18.962  0.00  0.00    +0.000 A 
ATOM     22  F   UNL     1       0.479   2.043  18.753  0.00  0.00    +0.000 F 
ATOM     23  C   UNL     1       1.043   3.790  20.236  0.00  0.00    +0.000 A 
ATOM     24  C   UNL     1       1.629   5.041  20.448  0.00  0.00    +0.000 A 
ENDBRANCH  17  18
ENDBRANCH  16  17
ENDBRANCH   2  16
TORSDOF 4
ENDMDL
MODEL 3
REMARK VINA RESULT:      -7.5      0.238      1.005
REMARK  Name = 
REMARK  4 active torsions:
REMARK  status: ('A' for Active; 'I' for Inactive)
REMARK    1  A    between atoms: C_2  and  C_3
REMARK    2  A    between atoms: C_3  and  O_4
REMARK    3  A    between atoms: O_4  and  C_5
REMARK    4  A    between atoms: C_16  and  C_17
REMARK                            x       y       z     vdW  Elec       q    Type
REMARK                         _______ _______ _______ _____ _____    ______ ____
ROOT
ATOM      1  O   UNL     1       1.972   9.077  17.624  0.00  0.00    +0.000 OA
ATOM      2  C   UNL     1       1.573   9.209  18.786  0.00  0.00    +0.000 C 
ATOM      3  N   UNL     1       0.824  10.308  19.078  0.00  0.00    +0.000 N 
ATOM      4  C   UNL     1       0.441  10.703  20.322  0.00  0.00    +0.000 A 
ATOM      5  N   UNL     1       0.804  10.246  21.495  0.00  0.00    +0.000 NA
ATOM      6  N   UNL     1       0.147  10.897  22.515  0.00  0.00    +0.000 NA
ATOM      7  C   UNL     1      -0.703  11.812  22.076  0.00  0.00    +0.000 A 
ATOM      8  S   UNL     1      -0.699  11.964  20.356  0.00  0.00    +0.000 S 
ATOM      9  H   UNL     1       0.572  10.892  18.294  0.00  0.00    +0.000 HD
ENDROOT
BRANCH   7  10
ATOM     10  C   UNL     1      -1.601  12.591  22.937  0.00  0.00    +0.000 A 
ATOM     11  C   UNL     1      -1.310  13.889  23.372  0.00  0.00    +0.000 A 
ATOM     12  C   UNL     1      -2.226  14.544  24.178  0.00  0.00    +0.000 A 
ATOM     13  N   UNL     1      -3.396  14.006  24.573  0.00  0.00    +0.000 NA
ATOM     14  C   UNL     1      -3.664  12.753  24.153  0.00  0.00    +0.000 A 
ATOM     15  C   UNL     1      -2.811  12.018  23.349  0.00  0.00    +0.000 A 
ENDBRANCH   7  10
BRANCH   2  16
ATOM     16  C   UNL     1       1.811   8.109  19.820  0.00  0.00    +0.000 C 
BRANCH  16  17
ATOM     17  O   UNL     1       2.704   7.103  19.368  0.00  0.00    +0.000 OA
BRANCH  17  18
ATOM     18  C   UNL     1       2.168   5.840  19.327  0.00  0.00    +0.000 A 
ATOM     19  C   UNL     1       1.594   5.174  20.417  0.00  0.00    +0.000 A 
ATOM     20  C   UNL     1       1.087   3.882  20.266  0.00  0.00    +0.000 A 
ATOM     21  C   UNL     1       1.144   3.262  19.026  0.00  0.00    +0.000 A 
ATOM     22  F   UNL     1       0.665   2.019  18.890  0.00  0.00    +0.000 F 
ATOM     23  C   UNL     1       1.687   3.917  17.929  0.00  0.00    +0.000 A 
ATOM     24  C   UNL     1       2.194   5.211  18.078  0.00  0.00    +0.000 A 
ENDBRANCH  17  18
ENDBRANCH  16  17
ENDBRANCH   2  16
TORSDOF 4
ENDMDL
MODEL 4
REMARK VINA RESULT:      -7.4      4.614      6.390
REMARK  Name = 
REMARK  4 active torsions:
REMARK  status: ('A' for Active; 'I' for Inactive)
REMARK    1  A    between atoms: C_2  and  C_3
REMARK    2  A    between atoms: C_3  and  O_4
REMARK    3  A    between atoms: O_4  and  C_5
REMARK    4  A    between atoms: C_16  and  C_17
REMARK                            x       y       z     vdW  Elec       q    Type
REMARK                         _______ _______ _______ _____ _____    ______ ____
ROOT
ATOM      1  O   UNL     1       4.126   1.916  19.273  0.00  0.00    +0.000 OA
ATOM      2  C   UNL     1       4.033   3.131  19.067  0.00  0.00    +0.000 C 
ATOM      3  N   UNL     1       3.127   3.830  19.804  0.00  0.00    +0.000 N 
ATOM      4  C   UNL     1       2.770   5.129  19.604  0.00  0.00    +0.000 A 
ATOM      5  N   UNL     1       3.070   5.938  18.619  0.00  0.00    +0.000 NA
ATOM      6  N   UNL     1       2.541   7.193  18.818  0.00  0.00    +0.000 NA
ATOM      7  C   UNL     1       1.873   7.293  19.956  0.00  0.00    +0.000 A 
ATOM      8  S   UNL     1       1.811   5.807  20.833  0.00  0.00    +0.000 S 
ATOM      9  H   UNL     1       2.658   3.315  20.534  0.00  0.00    +0.000 HD
ENDROOT
BRANCH   7  10
ATOM     10  C   UNL     1       1.284   8.538  20.466  0.00  0.00    +0.000 A 
ATOM     11  C   UNL     1       0.912   8.716  21.803  0.00  0.00    +0.000 A 
ATOM     12  C   UNL     1       0.369   9.931  22.187  0.00  0.00    +0.000 A 
ATOM     13  N   UNL     1       0.176  10.966  21.347  0.00  0.00    +0.000 NA
ATOM     14  C   UNL     1       0.534  10.781  20.060  0.00  0.00    +0.000 A 
ATOM     15  C   UNL     1       1.081   9.603  19.580  0.00  0.00    +0.000 A 
ENDBRANCH   7  10
BRANCH   2  16
ATOM     16  C   UNL     1       4.994   3.834  18.108  0.00  0.00    +0.000 C 
BRANCH  16  17
ATOM     17  O   UNL     1       6.281   4.046  18.665  0.00  0.00    +0.000 OA
BRANCH  17  18
ATOM     18  C   UNL     1       6.813   5.288  18.418  0.00  0.00    +0.000 A 
ATOM     19  C   UNL     1       7.836   5.888  19.161  0.00  0.00    +0.000 A 
ATOM     20  C   UNL     1       8.294   7.164  18.828  0.00  0.00    +0.000 A 
ATOM     21  C   UNL     1       7.738   7.833  17.748  0.00  0.00    +0.000 A 
ATOM     22  F   UNL     1       8.175   9.060  17.438  0.00  0.00    +0.000 F 
ATOM     23  C   UNL     1       6.739   7.243  16.984  0.00  0.00    +0.000 A 
ATOM     24  C   UNL     1       6.281   5.965  17.315  0.00  0.00    +0.000 A 
ENDBRANCH  17  18
ENDBRANCH  16  17
ENDBRANCH   2  16
TORSDOF 4
ENDMDL
MODEL 5
REMARK VINA RESULT:      -7.4      3.574      5.044
REMARK  Name = 
REMARK  4 active torsions:
REMARK  status: ('A' for Active; 'I' for Inactive)
REMARK    1  A    between atoms: C_2  and  C_3
REMARK    2  A    between atoms: C_3  and  O_4
REMARK    3  A    between atoms: O_4  and  C_5
REMARK    4  A    between atoms: C_16  and  C_17
REMARK                            x       y       z     vdW  Elec       q    Type
REMARK                         _______ _______ _______ _____ _____    ______ ____
ROOT
ATOM      1  O   UNL     1       5.580   4.713  15.774  0.00  0.00    +0.000 OA
ATOM      2  C   UNL     1       4.926   4.909  16.803  0.00  0.00    +0.000 C 
ATOM      3  N   UNL     1       4.258   6.091  16.912  0.00  0.00    +0.000 N 
ATOM      4  C   UNL     1       3.627   6.549  18.028  0.00  0.00    +0.000 A 
ATOM      5  N   UNL     1       3.637   6.076  19.250  0.00  0.00    +0.000 NA
ATOM      6  N   UNL     1       2.828   6.814  20.082  0.00  0.00    +0.000 NA
ATOM      7  C   UNL     1       2.221   7.810  19.458  0.00  0.00    +0.000 A 
ATOM      8  S   UNL     1       2.664   7.930  17.793  0.00  0.00    +0.000 S 
ATOM      9  H   UNL     1       4.273   6.685  16.096  0.00  0.00    +0.000 HD
ENDROOT
BRANCH   7  10
ATOM     10  C   UNL     1       1.232   8.701  20.079  0.00  0.00    +0.000 A 
ATOM     11  C   UNL     1       0.747   9.857  19.458  0.00  0.00    +0.000 A 
ATOM     12  C   UNL     1      -0.190  10.628  20.124  0.00  0.00    +0.000 A 
ATOM     13  N   UNL     1      -0.673  10.332  21.347  0.00  0.00    +0.000 NA
ATOM     14  C   UNL     1      -0.195   9.219  21.938  0.00  0.00    +0.000 A 
ATOM     15  C   UNL     1       0.744   8.386  21.353  0.00  0.00    +0.000 A 
ENDBRANCH   7  10
BRANCH   2  16
ATOM     16  C   UNL     1       4.777   3.809  17.853  0.00  0.00    +0.000 C 
BRANCH  16  17
ATOM     17  O   UNL     1       3.600   3.035  17.686  0.00  0.00    +0.000 OA
BRANCH  17  18
ATOM     18  C   UNL     1       2.819   2.932  18.811  0.00  0.00    +0.000 A 
ATOM     19  C   UNL     1       1.435   3.138  18.852  0.00  0.00    +0.000 A 
ATOM     20  C   UNL     1       0.740   3.019  20.057  0.00  0.00    +0.000 A 
ATOM     21  C   UNL     1       1.426   2.684  21.216  0.00  0.00    +0.000 A 
ATOM     22  F   UNL     1       0.755   2.580  22.370  0.00  0.00    +0.000 F 
ATOM     23  C   UNL     1       2.795   2.452  21.189  0.00  0.00    +0.000 A 
ATOM     24  C   UNL     1       3.492   2.570  19.983  0.00  0.00    +0.000 A 
ENDBRANCH  17  18
ENDBRANCH  16  17
ENDBRANCH   2  16
TORSDOF 4
ENDMDL
MODEL 6
REMARK VINA RESULT:      -7.3      4.350      6.132
REMARK  Name = 
REMARK  4 active torsions:
REMARK  status: ('A' for Active; 'I' for Inactive)
REMARK    1  A    between atoms: C_2  and  C_3
REMARK    2  A    between atoms: C_3  and  O_4
REMARK    3  A    between atoms: O_4  and  C_5
REMARK    4  A    between atoms: C_16  and  C_17
REMARK                            x       y       z     vdW  Elec       q    Type
REMARK                         _______ _______ _______ _____ _____    ______ ____
ROOT
ATOM      1  O   UNL     1       3.180   1.865  19.044  0.00  0.00    +0.000 OA
ATOM      2  C   UNL     1       3.298   3.091  18.940  0.00  0.00    +0.000 C 
ATOM      3  N   UNL     1       2.436   3.872  19.647  0.00  0.00    +0.000 N 
ATOM      4  C   UNL     1       2.307   5.222  19.532  0.00  0.00    +0.000 A 
ATOM      5  N   UNL     1       2.832   6.042  18.655  0.00  0.00    +0.000 NA
ATOM      6  N   UNL     1       2.483   7.348  18.915  0.00  0.00    +0.000 NA
ATOM      7  C   UNL     1       1.721   7.472  19.989  0.00  0.00    +0.000 A 
ATOM      8  S   UNL     1       1.337   5.955  20.720  0.00  0.00    +0.000 S 
ATOM      9  H   UNL     1       1.817   3.387  20.281  0.00  0.00    +0.000 HD
ENDROOT
BRANCH   7  10
ATOM     10  C   UNL     1       1.279   8.755  20.550  0.00  0.00    +0.000 A 
ATOM     11  C   UNL     1       1.189   9.929  19.795  0.00  0.00    +0.000 A 
ATOM     12  C   UNL     1       0.755  11.089  20.414  0.00  0.00    +0.000 A 
ATOM     13  N   UNL     1       0.405  11.160  21.714  0.00  0.00    +0.000 NA
ATOM     14  C   UNL     1       0.501  10.023  22.433  0.00  0.00    +0.000 A 
ATOM     15  C   UNL     1       0.927   8.817  21.904  0.00  0.00    +0.000 A 
ENDBRANCH   7  10
BRANCH   2  16
ATOM     16  C   UNL     1       4.452   3.697  18.142  0.00  0.00    +0.000 C 
BRANCH  16  17
ATOM     17  O   UNL     1       5.579   4.012  18.945  0.00  0.00    +0.000 OA
BRANCH  17  18
ATOM     18  C   UNL     1       6.261   5.139  18.556  0.00  0.00    +0.000 A 
ATOM     19  C   UNL     1       7.410   5.640  19.179  0.00  0.00    +0.000 A 
ATOM     20  C   UNL     1       8.018   6.804  18.706  0.00  0.00    +0.000 A 
ATOM     21  C   UNL     1       7.484   7.459  17.605  0.00  0.00    +0.000 A 
ATOM     22  F   UNL     1       8.066   8.580  17.160  0.00  0.00    +0.000 F 
ATOM     23  C   UNL     1       6.360   6.962  16.959  0.00  0.00    +0.000 A 
ATOM     24  C   UNL     1       5.751   5.795  17.431  0.00  0.00    +0.000 A 
ENDBRANCH  17  18
ENDBRANCH  16  17
ENDBRANCH   2  16
TORSDOF 4
ENDMDL
MODEL 7
REMARK VINA RESULT:      -7.2      4.572      6.328
REMARK  Name = 
REMARK  4 active torsions:
REMARK  status: ('A' for Active; 'I' for Inactive)
REMARK    1  A    between atoms: C_2  and  C_3
REMARK    2  A    between atoms: C_3  and  O_4
REMARK    3  A    between atoms: O_4  and  C_5
REMARK    4  A    between atoms: C_16  and  C_17
REMARK                            x       y       z     vdW  Elec       q    Type
REMARK                         _______ _______ _______ _____ _____    ______ ____
ROOT
ATOM      1  O   UNL     1       4.029   2.469  18.116  0.00  0.00    +0.000 OA
ATOM      2  C   UNL     1       3.834   3.688  18.072  0.00  0.00    +0.000 C 
ATOM      3  N   UNL     1       3.081   4.245  19.060  0.00  0.00    +0.000 N 
ATOM      4  C   UNL     1       2.627   5.528  19.089  0.00  0.00    +0.000 A 
ATOM      5  N   UNL     1       2.661   6.449  18.159  0.00  0.00    +0.000 NA
ATOM      6  N   UNL     1       2.130   7.637  18.607  0.00  0.00    +0.000 NA
ATOM      7  C   UNL     1       1.728   7.578  19.866  0.00  0.00    +0.000 A 
ATOM      8  S   UNL     1       1.933   6.011  20.563  0.00  0.00    +0.000 S 
ATOM      9  H   UNL     1       2.812   3.628  19.813  0.00  0.00    +0.000 HD
ENDROOT
BRANCH   7  10
ATOM     10  C   UNL     1       1.208   8.720  20.627  0.00  0.00    +0.000 A 
ATOM     11  C   UNL     1       1.031   9.992  20.071  0.00  0.00    +0.000 A 
ATOM     12  C   UNL     1       0.527  11.005  20.870  0.00  0.00    +0.000 A 
ATOM     13  N   UNL     1       0.189  10.842  22.164  0.00  0.00    +0.000 NA
ATOM     14  C   UNL     1       0.369   9.614  22.690  0.00  0.00    +0.000 A 
ATOM     15  C   UNL     1       0.869   8.540  21.973  0.00  0.00    +0.000 A 
ENDBRANCH   7  10
BRANCH   2  16
ATOM     16  C   UNL     1       4.522   4.548  17.013  0.00  0.00    +0.000 C 
BRANCH  16  17
ATOM     17  O   UNL     1       5.929   4.366  16.975  0.00  0.00    +0.000 OA
BRANCH  17  18
ATOM     18  C   UNL     1       6.656   5.438  17.432  0.00  0.00    +0.000 A 
ATOM     19  C   UNL     1       6.741   6.682  16.796  0.00  0.00    +0.000 A 
ATOM     20  C   UNL     1       7.521   7.703  17.344  0.00  0.00    +0.000 A 
ATOM     21  C   UNL     1       8.205   7.482  18.531  0.00  0.00    +0.000 A 
ATOM     22  F   UNL     1       8.959   8.461  19.047  0.00  0.00    +0.000 F 
ATOM     23  C   UNL     1       8.113   6.262  19.188  0.00  0.00    +0.000 A 
ATOM     24  C   UNL     1       7.331   5.240  18.642  0.00  0.00    +0.000 A 
ENDBRANCH  17  18
ENDBRANCH  16  17
ENDBRANCH   2  16
TORSDOF 4
ENDMDL
MODEL 8
REMARK VINA RESULT:      -7.2      3.587      5.031
REMARK  Name = 
REMARK  4 active torsions:
REMARK  status: ('A' for Active; 'I' for Inactive)
REMARK    1  A    between atoms: C_2  and  C_3
REMARK    2  A    between atoms: C_3  and  O_4
REMARK    3  A    between atoms: O_4  and  C_5
REMARK    4  A    between atoms: C_16  and  C_17
REMARK                            x       y       z     vdW  Elec       q    Type
REMARK                         _______ _______ _______ _____ _____    ______ ____
ROOT
ATOM      1  O   UNL     1       5.920   5.596  15.193  0.00  0.00    +0.000 OA
ATOM      2  C   UNL     1       5.223   5.577  16.213  0.00  0.00    +0.000 C 
ATOM      3  N   UNL     1       4.517   6.701  16.519  0.00  0.00    +0.000 N 
ATOM      4  C   UNL     1       3.833   6.922  17.675  0.00  0.00    +0.000 A 
ATOM      5  N   UNL     1       3.812   6.223  18.782  0.00  0.00    +0.000 NA
ATOM      6  N   UNL     1       2.952   6.771  19.707  0.00  0.00    +0.000 NA
ATOM      7  C   UNL     1       2.339   7.855  19.260  0.00  0.00    +0.000 A 
ATOM      8  S   UNL     1       2.840   8.302  17.669  0.00  0.00    +0.000 S 
ATOM      9  H   UNL     1       4.545   7.441  15.833  0.00  0.00    +0.000 HD
ENDROOT
BRANCH   7  10
ATOM     10  C   UNL     1       1.303   8.587  19.998  0.00  0.00    +0.000 A 
ATOM     11  C   UNL     1       0.870   8.219  21.277  0.00  0.00    +0.000 A 
ATOM     12  C   UNL     1      -0.109   8.979  21.894  0.00  0.00    +0.000 A 
ATOM     13  N   UNL     1      -0.677  10.066  21.337  0.00  0.00    +0.000 NA
ATOM     14  C   UNL     1      -0.256  10.409  20.103  0.00  0.00    +0.000 A 
ATOM     15  C   UNL     1       0.715   9.711  19.405  0.00  0.00    +0.000 A 
ENDBRANCH   7  10
BRANCH   2  16
ATOM     16  C   UNL     1       5.068   4.292  17.026  0.00  0.00    +0.000 C 
BRANCH  16  17
ATOM     17  O   UNL     1       3.879   3.580  16.721  0.00  0.00    +0.000 OA
BRANCH  17  18
ATOM     18  C   UNL     1       3.068   3.334  17.802  0.00  0.00    +0.000 A 
ATOM     19  C   UNL     1       1.709   3.660  17.879  0.00  0.00    +0.000 A 
ATOM     20  C   UNL     1       0.979   3.373  19.034  0.00  0.00    +0.000 A 
ATOM     21  C   UNL     1       1.605   2.751  20.105  0.00  0.00    +0.000 A 
ATOM     22  F   UNL     1       0.903   2.486  21.214  0.00  0.00    +0.000 F 
ATOM     23  C   UNL     1       2.947   2.398  20.037  0.00  0.00    +0.000 A 
ATOM     24  C   UNL     1       3.678   2.683  18.880  0.00  0.00    +0.000 A 
ENDBRANCH  17  18
ENDBRANCH  16  17
ENDBRANCH   2  16
TORSDOF 4
ENDMDL
MODEL 9
REMARK VINA RESULT:      -7.2      4.259      5.952
REMARK  Name = 
REMARK  4 active torsions:
REMARK  status: ('A' for Active; 'I' for Inactive)
REMARK    1  A    between atoms: C_2  and  C_3
REMARK    2  A    between atoms: C_3  and  O_4
REMARK    3  A    between atoms: O_4  and  C_5
REMARK    4  A    between atoms: C_16  and  C_17
REMARK                            x       y       z     vdW  Elec       q    Type
REMARK                         _______ _______ _______ _____ _____    ______ ____
ROOT
ATOM      1  O   UNL     1       2.914   3.311  21.010  0.00  0.00    +0.000 OA
ATOM      2  C   UNL     1       2.980   4.291  20.260  0.00  0.00    +0.000 C 
ATOM      3  N   UNL     1       2.309   5.417  20.628  0.00  0.00    +0.000 N 
ATOM      4  C   UNL     1       2.132   6.526  19.859  0.00  0.00    +0.000 A 
ATOM      5  N   UNL     1       2.405   6.720  18.593  0.00  0.00    +0.000 NA
ATOM      6  N   UNL     1       2.110   8.007  18.205  0.00  0.00    +0.000 NA
ATOM      7  C   UNL     1       1.639   8.746  19.197  0.00  0.00    +0.000 A 
ATOM      8  S   UNL     1       1.477   7.867  20.673  0.00  0.00    +0.000 S 
ATOM      9  H   UNL     1       1.878   5.396  21.541  0.00  0.00    +0.000 HD
ENDROOT
BRANCH   7  10
ATOM     10  C   UNL     1       1.329  10.177  19.090  0.00  0.00    +0.000 A 
ATOM     11  C   UNL     1       2.095  11.072  18.334  0.00  0.00    +0.000 A 
ATOM     12  C   UNL     1       1.716  12.403  18.291  0.00  0.00    +0.000 A 
ATOM     13  N   UNL     1       0.642  12.899  18.937  0.00  0.00    +0.000 NA
ATOM     14  C   UNL     1      -0.085  12.029  19.666  0.00  0.00    +0.000 A 
ATOM     15  C   UNL     1       0.215  10.682  19.773  0.00  0.00    +0.000 A 
ENDBRANCH   7  10
BRANCH   2  16
ATOM     16  C   UNL     1       3.887   4.269  19.030  0.00  0.00    +0.000 C 
BRANCH  16  17
ATOM     17  O   UNL     1       5.263   4.149  19.354  0.00  0.00    +0.000 OA
BRANCH  17  18
ATOM     18  C   UNL     1       6.056   5.159  18.866  0.00  0.00    +0.000 A 
ATOM     19  C   UNL     1       7.310   5.516  19.376  0.00  0.00    +0.000 A 
ATOM     20  C   UNL     1       8.027   6.571  18.808  0.00  0.00    +0.000 A 
ATOM     21  C   UNL     1       7.497   7.259  17.727  0.00  0.00    +0.000 A 
ATOM     22  F   UNL     1       8.186   8.275  17.192  0.00  0.00    +0.000 F 
ATOM     23  C   UNL     1       6.265   6.902  17.192  0.00  0.00    +0.000 A 
ATOM     24  C   UNL     1       5.546   5.846  17.759  0.00  0.00    +0.000 A 
ENDBRANCH  17  18
ENDBRANCH  16  17
ENDBRANCH   2  16
TORSDOF 4
ENDMDL
