MODEL 1
REMARK VINA RESULT:      -6.4      0.000      0.000
REMARK  Name = 
REMARK  11 active torsions:
REMARK  status: ('A' for Active; 'I' for Inactive)
REMARK    1  A    between atoms: C_1  and  N_2
REMARK    2  A    between atoms: N_2  and  C_3
REMARK    3  A    between atoms: C_3  and  N_5
REMARK    4  A    between atoms: C_8  and  N_9
REMARK    5  A    between atoms: C_10  and  C_12
REMARK    6  A    between atoms: C_12  and  C_13
REMARK    7  A    between atoms: C_12  and  N_22
REMARK    8  A    between atoms: C_13  and  C_14
REMARK    9  A    between atoms: C_17  and  O_18
REMARK   10  A    between atoms: O_18  and  C_19
REMARK   11  A    between atoms: C_23  and  C_24
REMARK                            x       y       z     vdW  Elec       q    Type
REMARK                         _______ _______ _______ _____ _____    ______ ____
ROOT
ATOM      1  N   UNL     1       4.373   5.928  18.083  0.00  0.00    +0.000 N 
ATOM      2  C   UNL     1       3.949   5.546  19.344  0.00  0.00    +0.000 C 
ATOM      3  O   UNL     1       4.716   5.119  20.209  0.00  0.00    +0.000 OA
ATOM      4  H   UNL     1       3.783   6.605  17.602  0.00  0.00    +0.000 HD
ENDROOT
BRANCH   1   8
ATOM      5  N   UNL     1       5.850   4.906  14.891  0.00  0.00    +0.000 N 
ATOM      6  C   UNL     1       5.476   6.288  15.200  0.00  0.00    +0.000 C 
ATOM      7  C   UNL     1       6.122   6.724  16.508  0.00  0.00    +0.000 C 
ATOM      8  C   UNL     1       5.758   5.761  17.647  0.00  0.00    +0.000 C 
ATOM      9  C   UNL     1       6.045   4.304  17.252  0.00  0.00    +0.000 C 
ATOM     10  C   UNL     1       5.430   3.929  15.901  0.00  0.00    +0.000 C 
BRANCH   5  11
ATOM     11  C   UNL     1       6.617   4.555  13.780  0.00  0.00    +0.000 C 
ATOM     12  S   UNL     1       6.116   3.466  12.608  0.00  0.00    +0.000 S 
BRANCH  11  14
ATOM     13  C   UNL     1       8.375   5.952  12.636  0.00  0.00    +0.000 C 
ATOM     14  N   UNL     1       7.834   5.208  13.756  0.00  0.00    +0.000 N 
ATOM     15  H   UNL     1       8.521   4.823  14.387  0.00  0.00    +0.000 HD
ENDBRANCH  11  14
ENDBRANCH   5  11
ENDBRANCH   1   8
BRANCH   2  16
ATOM     16  C   UNL     1       2.459   5.820  19.614  0.00  0.00    +0.000 C 
BRANCH  16  17
ATOM     17  N   UNL     1       1.687   4.678  19.107  0.00  0.00    +0.000 N 
ATOM     18  C   UNL     1       1.243   3.679  19.933  0.00  0.00    +0.000 C 
ATOM     19  C   UNL     1       0.513   2.572  19.225  0.00  0.00    +0.000 C 
ATOM     20  O   UNL     1       1.432   3.688  21.147  0.00  0.00    +0.000 OA
ATOM     21  H   UNL     1       1.766   4.479  18.114  0.00  0.00    +0.000 HD
ENDBRANCH  16  17
BRANCH  16  22
ATOM     22  C   UNL     1       1.996   7.099  18.900  0.00  0.00    +0.000 C 
BRANCH  22  23
ATOM     23  C   UNL     1       1.537   8.208  19.813  0.00  0.00    +0.000 A 
ATOM     24  C   UNL     1       1.151   9.442  19.275  0.00  0.00    +0.000 A 
ATOM     25  C   UNL     1       0.683  10.461  20.104  0.00  0.00    +0.000 A 
ATOM     26  C   UNL     1       0.578  10.260  21.480  0.00  0.00    +0.000 A 
ATOM     27  C   UNL     1       0.988   9.044  22.028  0.00  0.00    +0.000 A 
ATOM     28  C   UNL     1       1.459   8.021  21.198  0.00  0.00    +0.000 A 
BRANCH  26  29
ATOM     29  O   UNL     1       0.105  11.325  22.197  0.00  0.00    +0.000 OA
ATOM     30  C   UNL     1       0.087  12.565  21.497  0.00  0.00    +0.000 C 
ENDBRANCH  26  29
ENDBRANCH  22  23
ENDBRANCH  16  22
ENDBRANCH   2  16
TORSDOF 8
ENDMDL
MODEL 2
REMARK VINA RESULT:      -6.3      4.022      8.352
REMARK  Name = 
REMARK  11 active torsions:
REMARK  status: ('A' for Active; 'I' for Inactive)
REMARK    1  A    between atoms: C_1  and  N_2
REMARK    2  A    between atoms: N_2  and  C_3
REMARK    3  A    between atoms: C_3  and  N_5
REMARK    4  A    between atoms: C_8  and  N_9
REMARK    5  A    between atoms: C_10  and  C_12
REMARK    6  A    between atoms: C_12  and  C_13
REMARK    7  A    between atoms: C_12  and  N_22
REMARK    8  A    between atoms: C_13  and  C_14
REMARK    9  A    between atoms: C_17  and  O_18
REMARK   10  A    between atoms: O_18  and  C_19
REMARK   11  A    between atoms: C_23  and  C_24
REMARK                            x       y       z     vdW  Elec       q    Type
REMARK                         _______ _______ _______ _____ _____    ______ ____
ROOT
ATOM      1  N   UNL     1       1.607   8.328  19.691  0.00  0.00    +0.000 N 
ATOM      2  C   UNL     1       1.767   7.031  20.147  0.00  0.00    +0.000 C 
ATOM      3  O   UNL     1       1.357   6.649  21.245  0.00  0.00    +0.000 OA
ATOM      4  H   UNL     1       1.610   8.448  18.680  0.00  0.00    +0.000 HD
ENDROOT
BRANCH   1   8
ATOM      5  N   UNL     1      -0.238  11.387  18.882  0.00  0.00    +0.000 N 
ATOM      6  C   UNL     1      -0.874  10.075  19.023  0.00  0.00    +0.000 C 
ATOM      7  C   UNL     1      -0.503   9.455  20.363  0.00  0.00    +0.000 C 
ATOM      8  C   UNL     1       1.021   9.375  20.526  0.00  0.00    +0.000 C 
ATOM      9  C   UNL     1       1.678  10.737  20.253  0.00  0.00    +0.000 C 
ATOM     10  C   UNL     1       1.227  11.352  18.926  0.00  0.00    +0.000 C 
BRANCH   5  11
ATOM     11  C   UNL     1      -0.959  12.579  18.804  0.00  0.00    +0.000 C 
ATOM     12  S   UNL     1      -0.248  14.094  18.714  0.00  0.00    +0.000 S 
BRANCH  11  14
ATOM     13  C   UNL     1      -3.215  12.609  19.927  0.00  0.00    +0.000 C 
ATOM     14  N   UNL     1      -2.324  12.367  18.810  0.00  0.00    +0.000 N 
ATOM     15  H   UNL     1      -2.635  11.662  18.159  0.00  0.00    +0.000 HD
ENDBRANCH  11  14
ENDBRANCH   5  11
ENDBRANCH   1   8
BRANCH   2  16
ATOM     16  C   UNL     1       2.388   6.076  19.112  0.00  0.00    +0.000 C 
BRANCH  16  17
ATOM     17  N   UNL     1       1.892   4.721  19.386  0.00  0.00    +0.000 N 
ATOM     18  C   UNL     1       1.390   3.919  18.396  0.00  0.00    +0.000 C 
ATOM     19  C   UNL     1       0.886   2.587  18.876  0.00  0.00    +0.000 C 
ATOM     20  O   UNL     1       1.350   4.265  17.217  0.00  0.00    +0.000 OA
ATOM     21  H   UNL     1       1.633   4.517  20.346  0.00  0.00    +0.000 HD
ENDBRANCH  16  17
BRANCH  16  22
ATOM     22  C   UNL     1       3.922   6.082  19.208  0.00  0.00    +0.000 C 
BRANCH  22  23
ATOM     23  C   UNL     1       4.643   5.802  17.914  0.00  0.00    +0.000 A 
ATOM     24  C   UNL     1       5.317   4.587  17.737  0.00  0.00    +0.000 A 
ATOM     25  C   UNL     1       5.951   4.297  16.529  0.00  0.00    +0.000 A 
ATOM     26  C   UNL     1       5.910   5.208  15.474  0.00  0.00    +0.000 A 
ATOM     27  C   UNL     1       5.266   6.433  15.651  0.00  0.00    +0.000 A 
ATOM     28  C   UNL     1       4.631   6.726  16.863  0.00  0.00    +0.000 A 
BRANCH  26  29
ATOM     29  O   UNL     1       6.563   4.821  14.336  0.00  0.00    +0.000 OA
ATOM     30  C   UNL     1       5.907   3.811  13.576  0.00  0.00    +0.000 C 
ENDBRANCH  26  29
ENDBRANCH  22  23
ENDBRANCH  16  22
ENDBRANCH   2  16
TORSDOF 8
ENDMDL
MODEL 3
REMARK VINA RESULT:      -6.3      0.939      1.463
REMARK  Name = 
REMARK  11 active torsions:
REMARK  status: ('A' for Active; 'I' for Inactive)
REMARK    1  A    between atoms: C_1  and  N_2
REMARK    2  A    between atoms: N_2  and  C_3
REMARK    3  A    between atoms: C_3  and  N_5
REMARK    4  A    between atoms: C_8  and  N_9
REMARK    5  A    between atoms: C_10  and  C_12
REMARK    6  A    between atoms: C_12  and  C_13
REMARK    7  A    between atoms: C_12  and  N_22
REMARK    8  A    between atoms: C_13  and  C_14
REMARK    9  A    between atoms: C_17  and  O_18
REMARK   10  A    between atoms: O_18  and  C_19
REMARK   11  A    between atoms: C_23  and  C_24
REMARK                            x       y       z     vdW  Elec       q    Type
REMARK                         _______ _______ _______ _____ _____    ______ ____
ROOT
ATOM      1  N   UNL     1       4.796   6.128  18.213  0.00  0.00    +0.000 N 
ATOM      2  C   UNL     1       4.248   5.391  19.248  0.00  0.00    +0.000 C 
ATOM      3  O   UNL     1       4.870   4.515  19.852  0.00  0.00    +0.000 OA
ATOM      4  H   UNL     1       4.383   7.045  18.052  0.00  0.00    +0.000 HD
ENDROOT
BRANCH   1   8
ATOM      5  N   UNL     1       5.973   4.903  14.968  0.00  0.00    +0.000 N 
ATOM      6  C   UNL     1       5.713   6.316  15.250  0.00  0.00    +0.000 C 
ATOM      7  C   UNL     1       6.478   6.751  16.493  0.00  0.00    +0.000 C 
ATOM      8  C   UNL     1       6.133   5.853  17.689  0.00  0.00    +0.000 C 
ATOM      9  C   UNL     1       6.296   4.367  17.331  0.00  0.00    +0.000 C 
ATOM     10  C   UNL     1       5.563   3.991  16.040  0.00  0.00    +0.000 C 
BRANCH   5  11
ATOM     11  C   UNL     1       6.635   4.465  13.821  0.00  0.00    +0.000 C 
ATOM     12  S   UNL     1       7.904   5.292  13.103  0.00  0.00    +0.000 S 
BRANCH  11  14
ATOM     13  C   UNL     1       5.909   2.938  11.951  0.00  0.00    +0.000 C 
ATOM     14  N   UNL     1       6.126   3.272  13.345  0.00  0.00    +0.000 N 
ATOM     15  H   UNL     1       5.530   2.787  13.999  0.00  0.00    +0.000 HD
ENDBRANCH  11  14
ENDBRANCH   5  11
ENDBRANCH   1   8
BRANCH   2  16
ATOM     16  C   UNL     1       2.837   5.848  19.663  0.00  0.00    +0.000 C 
BRANCH  16  17
ATOM     17  N   UNL     1       1.902   4.750  19.384  0.00  0.00    +0.000 N 
ATOM     18  C   UNL     1       1.534   3.850  20.348  0.00  0.00    +0.000 C 
ATOM     19  C   UNL     1       0.608   2.770  19.861  0.00  0.00    +0.000 C 
ATOM     20  O   UNL     1       1.932   3.917  21.508  0.00  0.00    +0.000 OA
ATOM     21  H   UNL     1       1.791   4.483  18.410  0.00  0.00    +0.000 HD
ENDBRANCH  16  17
BRANCH  16  22
ATOM     22  C   UNL     1       2.407   7.092  18.872  0.00  0.00    +0.000 C 
BRANCH  22  23
ATOM     23  C   UNL     1       1.757   8.176  19.692  0.00  0.00    +0.000 A 
ATOM     24  C   UNL     1       1.595   8.007  21.073  0.00  0.00    +0.000 A 
ATOM     25  C   UNL     1       1.035   9.021  21.851  0.00  0.00    +0.000 A 
ATOM     26  C   UNL     1       0.641  10.224  21.266  0.00  0.00    +0.000 A 
ATOM     27  C   UNL     1       0.771  10.390  19.887  0.00  0.00    +0.000 A 
ATOM     28  C   UNL     1       1.331   9.374  19.104  0.00  0.00    +0.000 A 
BRANCH  26  29
ATOM     29  O   UNL     1       0.107  11.148  22.122  0.00  0.00    +0.000 OA
ATOM     30  C   UNL     1      -1.087  11.776  21.666  0.00  0.00    +0.000 C 
ENDBRANCH  26  29
ENDBRANCH  22  23
ENDBRANCH  16  22
ENDBRANCH   2  16
TORSDOF 8
ENDMDL
MODEL 4
REMARK VINA RESULT:      -6.3      5.322      9.627
REMARK  Name = 
REMARK  11 active torsions:
REMARK  status: ('A' for Active; 'I' for Inactive)
REMARK    1  A    between atoms: C_1  and  N_2
REMARK    2  A    between atoms: N_2  and  C_3
REMARK    3  A    between atoms: C_3  and  N_5
REMARK    4  A    between atoms: C_8  and  N_9
REMARK    5  A    between atoms: C_10  and  C_12
REMARK    6  A    between atoms: C_12  and  C_13
REMARK    7  A    between atoms: C_12  and  N_22
REMARK    8  A    between atoms: C_13  and  C_14
REMARK    9  A    between atoms: C_17  and  O_18
REMARK   10  A    between atoms: O_18  and  C_19
REMARK   11  A    between atoms: C_23  and  C_24
REMARK                            x       y       z     vdW  Elec       q    Type
REMARK                         _______ _______ _______ _____ _____    ______ ____
ROOT
ATOM      1  N   UNL     1      -0.905  10.238  18.750  0.00  0.00    +0.000 N 
ATOM      2  C   UNL     1       0.457  10.010  18.847  0.00  0.00    +0.000 C 
ATOM      3  O   UNL     1       1.301  10.771  18.370  0.00  0.00    +0.000 OA
ATOM      4  H   UNL     1      -1.481   9.808  19.471  0.00  0.00    +0.000 HD
ENDROOT
BRANCH   1   8
ATOM      5  N   UNL     1      -4.180  11.878  18.764  0.00  0.00    +0.000 N 
ATOM      6  C   UNL     1      -3.093  12.242  19.675  0.00  0.00    +0.000 C 
ATOM      7  C   UNL     1      -1.826  12.542  18.884  0.00  0.00    +0.000 C 
ATOM      8  C   UNL     1      -1.450  11.357  17.983  0.00  0.00    +0.000 C 
ATOM      9  C   UNL     1      -2.645  10.914  17.124  0.00  0.00    +0.000 C 
ATOM     10  C   UNL     1      -3.912  10.686  17.953  0.00  0.00    +0.000 C 
BRANCH   5  11
ATOM     11  C   UNL     1      -5.335  12.646  18.611  0.00  0.00    +0.000 C 
ATOM     12  S   UNL     1      -6.570  12.270  17.542  0.00  0.00    +0.000 S 
BRANCH  11  14
ATOM     13  C   UNL     1      -6.314  14.020  20.483  0.00  0.00    +0.000 C 
ATOM     14  N   UNL     1      -5.343  13.750  19.441  0.00  0.00    +0.000 N 
ATOM     15  H   UNL     1      -4.900  14.566  19.047  0.00  0.00    +0.000 HD
ENDBRANCH  11  14
ENDBRANCH   5  11
ENDBRANCH   1   8
BRANCH   2  16
ATOM     16  C   UNL     1       0.827   8.791  19.711  0.00  0.00    +0.000 C 
BRANCH  16  17
ATOM     17  N   UNL     1       0.941   9.239  21.105  0.00  0.00    +0.000 N 
ATOM     18  C   UNL     1       0.029   8.876  22.060  0.00  0.00    +0.000 C 
ATOM     19  C   UNL     1       0.285   9.471  23.416  0.00  0.00    +0.000 C 
ATOM     20  O   UNL     1      -0.921   8.133  21.823  0.00  0.00    +0.000 OA
ATOM     21  H   UNL     1       1.509  10.064  21.273  0.00  0.00    +0.000 HD
ENDBRANCH  16  17
BRANCH  16  22
ATOM     22  C   UNL     1       2.166   8.185  19.264  0.00  0.00    +0.000 C 
BRANCH  22  23
ATOM     23  C   UNL     1       2.224   6.679  19.290  0.00  0.00    +0.000 A 
ATOM     24  C   UNL     1       2.608   5.974  18.142  0.00  0.00    +0.000 A 
ATOM     25  C   UNL     1       2.709   4.583  18.165  0.00  0.00    +0.000 A 
ATOM     26  C   UNL     1       2.443   3.875  19.337  0.00  0.00    +0.000 A 
ATOM     27  C   UNL     1       2.032   4.567  20.477  0.00  0.00    +0.000 A 
ATOM     28  C   UNL     1       1.928   5.962  20.455  0.00  0.00    +0.000 A 
BRANCH  26  29
ATOM     29  O   UNL     1       2.574   2.517  19.247  0.00  0.00    +0.000 OA
ATOM     30  C   UNL     1       3.033   2.035  17.988  0.00  0.00    +0.000 C 
ENDBRANCH  26  29
ENDBRANCH  22  23
ENDBRANCH  16  22
ENDBRANCH   2  16
TORSDOF 8
ENDMDL
MODEL 5
REMARK VINA RESULT:      -6.3      5.350      8.781
REMARK  Name = 
REMARK  11 active torsions:
REMARK  status: ('A' for Active; 'I' for Inactive)
REMARK    1  A    between atoms: C_1  and  N_2
REMARK    2  A    between atoms: N_2  and  C_3
REMARK    3  A    between atoms: C_3  and  N_5
REMARK    4  A    between atoms: C_8  and  N_9
REMARK    5  A    between atoms: C_10  and  C_12
REMARK    6  A    between atoms: C_12  and  C_13
REMARK    7  A    between atoms: C_12  and  N_22
REMARK    8  A    between atoms: C_13  and  C_14
REMARK    9  A    between atoms: C_17  and  O_18
REMARK   10  A    between atoms: O_18  and  C_19
REMARK   11  A    between atoms: C_23  and  C_24
REMARK                            x       y       z     vdW  Elec       q    Type
REMARK                         _______ _______ _______ _____ _____    ______ ____
ROOT
ATOM      1  N   UNL     1       1.002  11.213  19.094  0.00  0.00    +0.000 N 
ATOM      2  C   UNL     1       1.311   9.921  18.706  0.00  0.00    +0.000 C 
ATOM      3  O   UNL     1       1.848   9.653  17.630  0.00  0.00    +0.000 OA
ATOM      4  H   UNL     1       0.939  11.374  20.098  0.00  0.00    +0.000 HD
ENDROOT
BRANCH   1   8
ATOM      5  N   UNL     1       1.708  14.748  19.743  0.00  0.00    +0.000 N 
ATOM      6  C   UNL     1       2.749  13.722  19.652  0.00  0.00    +0.000 C 
ATOM      7  C   UNL     1       2.611  12.953  18.345  0.00  0.00    +0.000 C 
ATOM      8  C   UNL     1       1.203  12.357  18.207  0.00  0.00    +0.000 C 
ATOM      9  C   UNL     1       0.125  13.430  18.429  0.00  0.00    +0.000 C 
ATOM     10  C   UNL     1       0.340  14.221  19.721  0.00  0.00    +0.000 C 
BRANCH   5  11
ATOM     11  C   UNL     1       1.986  16.115  19.759  0.00  0.00    +0.000 C 
ATOM     12  S   UNL     1       2.405  16.966  21.141  0.00  0.00    +0.000 S 
BRANCH  11  14
ATOM     13  C   UNL     1       2.928  16.758  17.511  0.00  0.00    +0.000 C 
ATOM     14  N   UNL     1       1.876  16.687  18.506  0.00  0.00    +0.000 N 
ATOM     15  H   UNL     1       1.177  17.412  18.442  0.00  0.00    +0.000 HD
ENDBRANCH  11  14
ENDBRANCH   5  11
ENDBRANCH   1   8
BRANCH   2  16
ATOM     16  C   UNL     1       1.041   8.861  19.790  0.00  0.00    +0.000 C 
BRANCH  16  17
ATOM     17  N   UNL     1       0.706   9.560  21.037  0.00  0.00    +0.000 N 
ATOM     18  C   UNL     1      -0.205   9.056  21.927  0.00  0.00    +0.000 C 
ATOM     19  C   UNL     1      -0.453   9.935  23.121  0.00  0.00    +0.000 C 
ATOM     20  O   UNL     1      -0.776   7.981  21.757  0.00  0.00    +0.000 OA
ATOM     21  H   UNL     1       0.912  10.553  21.072  0.00  0.00    +0.000 HD
ENDBRANCH  16  17
BRANCH  16  22
ATOM     22  C   UNL     1       2.280   7.982  20.020  0.00  0.00    +0.000 C 
BRANCH  22  23
ATOM     23  C   UNL     1       2.129   6.544  19.594  0.00  0.00    +0.000 A 
ATOM     24  C   UNL     1       1.711   5.580  20.520  0.00  0.00    +0.000 A 
ATOM     25  C   UNL     1       1.525   4.254  20.129  0.00  0.00    +0.000 A 
ATOM     26  C   UNL     1       1.740   3.872  18.804  0.00  0.00    +0.000 A 
ATOM     27  C   UNL     1       2.185   4.819  17.882  0.00  0.00    +0.000 A 
ATOM     28  C   UNL     1       2.373   6.150  18.273  0.00  0.00    +0.000 A 
BRANCH  26  29
ATOM     29  O   UNL     1       1.526   2.549  18.531  0.00  0.00    +0.000 OA
ATOM     30  C   UNL     1       2.704   1.759  18.405  0.00  0.00    +0.000 C 
ENDBRANCH  26  29
ENDBRANCH  22  23
ENDBRANCH  16  22
ENDBRANCH   2  16
TORSDOF 8
ENDMDL
MODEL 6
REMARK VINA RESULT:      -6.3      1.478      2.067
REMARK  Name = 
REMARK  11 active torsions:
REMARK  status: ('A' for Active; 'I' for Inactive)
REMARK    1  A    between atoms: C_1  and  N_2
REMARK    2  A    between atoms: N_2  and  C_3
REMARK    3  A    between atoms: C_3  and  N_5
REMARK    4  A    between atoms: C_8  and  N_9
REMARK    5  A    between atoms: C_10  and  C_12
REMARK    6  A    between atoms: C_12  and  C_13
REMARK    7  A    between atoms: C_12  and  N_22
REMARK    8  A    between atoms: C_13  and  C_14
REMARK    9  A    between atoms: C_17  and  O_18
REMARK   10  A    between atoms: O_18  and  C_19
REMARK   11  A    between atoms: C_23  and  C_24
REMARK                            x       y       z     vdW  Elec       q    Type
REMARK                         _______ _______ _______ _____ _____    ______ ____
ROOT
ATOM      1  N   UNL     1       5.106   5.648  17.827  0.00  0.00    +0.000 N 
ATOM      2  C   UNL     1       5.014   5.313  19.167  0.00  0.00    +0.000 C 
ATOM      3  O   UNL     1       6.000   5.086  19.871  0.00  0.00    +0.000 OA
ATOM      4  H   UNL     1       4.325   6.181  17.447  0.00  0.00    +0.000 HD
ENDROOT
BRANCH   1   8
ATOM      5  N   UNL     1       6.068   4.597  14.453  0.00  0.00    +0.000 N 
ATOM      6  C   UNL     1       5.533   5.926  14.762  0.00  0.00    +0.000 C 
ATOM      7  C   UNL     1       6.344   6.568  15.879  0.00  0.00    +0.000 C 
ATOM      8  C   UNL     1       6.384   5.662  17.117  0.00  0.00    +0.000 C 
ATOM      9  C   UNL     1       6.830   4.239  16.747  0.00  0.00    +0.000 C 
ATOM     10  C   UNL     1       6.031   3.658  15.578  0.00  0.00    +0.000 C 
BRANCH   5  11
ATOM     11  C   UNL     1       6.646   4.276  13.224  0.00  0.00    +0.000 C 
ATOM     12  S   UNL     1       7.849   5.187  12.494  0.00  0.00    +0.000 S 
BRANCH  11  14
ATOM     13  C   UNL     1       4.945   3.050  11.825  0.00  0.00    +0.000 C 
ATOM     14  N   UNL     1       6.114   3.123  12.680  0.00  0.00    +0.000 N 
ATOM     15  H   UNL     1       6.309   2.288  13.210  0.00  0.00    +0.000 HD
ENDBRANCH  11  14
ENDBRANCH   5  11
ENDBRANCH   1   8
BRANCH   2  16
ATOM     16  C   UNL     1       3.583   5.373  19.731  0.00  0.00    +0.000 C 
BRANCH  16  17
ATOM     17  N   UNL     1       3.206   4.022  20.164  0.00  0.00    +0.000 N 
ATOM     18  C   UNL     1       2.070   3.785  20.892  0.00  0.00    +0.000 C 
ATOM     19  C   UNL     1       1.878   2.347  21.285  0.00  0.00    +0.000 C 
ATOM     20  O   UNL     1       1.282   4.674  21.201  0.00  0.00    +0.000 OA
ATOM     21  H   UNL     1       3.949   3.330  20.196  0.00  0.00    +0.000 HD
ENDBRANCH  16  17
BRANCH  16  22
ATOM     22  C   UNL     1       2.590   5.856  18.662  0.00  0.00    +0.000 C 
BRANCH  22  23
ATOM     23  C   UNL     1       2.103   7.272  18.838  0.00  0.00    +0.000 A 
ATOM     24  C   UNL     1       1.722   7.728  20.106  0.00  0.00    +0.000 A 
ATOM     25  C   UNL     1       1.311   9.049  20.291  0.00  0.00    +0.000 A 
ATOM     26  C   UNL     1       1.287   9.937  19.216  0.00  0.00    +0.000 A 
ATOM     27  C   UNL     1       1.636   9.483  17.944  0.00  0.00    +0.000 A 
ATOM     28  C   UNL     1       2.048   8.159  17.756  0.00  0.00    +0.000 A 
BRANCH  26  29
ATOM     29  O   UNL     1       0.869  11.206  19.510  0.00  0.00    +0.000 OA
ATOM     30  C   UNL     1      -0.536  11.356  19.684  0.00  0.00    +0.000 C 
ENDBRANCH  26  29
ENDBRANCH  22  23
ENDBRANCH  16  22
ENDBRANCH   2  16
TORSDOF 8
ENDMDL
MODEL 7
REMARK VINA RESULT:      -6.3      5.488      9.594
REMARK  Name = 
REMARK  11 active torsions:
REMARK  status: ('A' for Active; 'I' for Inactive)
REMARK    1  A    between atoms: C_1  and  N_2
REMARK    2  A    between atoms: N_2  and  C_3
REMARK    3  A    between atoms: C_3  and  N_5
REMARK    4  A    between atoms: C_8  and  N_9
REMARK    5  A    between atoms: C_10  and  C_12
REMARK    6  A    between atoms: C_12  and  C_13
REMARK    7  A    between atoms: C_12  and  N_22
REMARK    8  A    between atoms: C_13  and  C_14
REMARK    9  A    between atoms: C_17  and  O_18
REMARK   10  A    between atoms: O_18  and  C_19
REMARK   11  A    between atoms: C_23  and  C_24
REMARK                            x       y       z     vdW  Elec       q    Type
REMARK                         _______ _______ _______ _____ _____    ______ ____
ROOT
ATOM      1  N   UNL     1      -0.742  10.433  19.041  0.00  0.00    +0.000 N 
ATOM      2  C   UNL     1       0.548   9.964  18.865  0.00  0.00    +0.000 C 
ATOM      3  O   UNL     1       1.380  10.534  18.157  0.00  0.00    +0.000 OA
ATOM      4  H   UNL     1      -1.206  10.150  19.902  0.00  0.00    +0.000 HD
ENDROOT
BRANCH   1   8
ATOM      5  N   UNL     1      -4.037  12.028  18.924  0.00  0.00    +0.000 N 
ATOM      6  C   UNL     1      -3.027  12.340  19.937  0.00  0.00    +0.000 C 
ATOM      7  C   UNL     1      -1.711  12.711  19.265  0.00  0.00    +0.000 C 
ATOM      8  C   UNL     1      -1.249  11.597  18.315  0.00  0.00    +0.000 C 
ATOM      9  C   UNL     1      -2.369  11.201  17.341  0.00  0.00    +0.000 C 
ATOM     10  C   UNL     1      -3.690  10.900  18.054  0.00  0.00    +0.000 C 
BRANCH   5  11
ATOM     11  C   UNL     1      -5.191  12.792  18.739  0.00  0.00    +0.000 C 
ATOM     12  S   UNL     1      -5.954  13.638  19.968  0.00  0.00    +0.000 S 
BRANCH  11  14
ATOM     13  C   UNL     1      -6.974  13.074  16.980  0.00  0.00    +0.000 C 
ATOM     14  N   UNL     1      -5.630  12.770  17.429  0.00  0.00    +0.000 N 
ATOM     15  H   UNL     1      -5.108  12.149  16.829  0.00  0.00    +0.000 HD
ENDBRANCH  11  14
ENDBRANCH   5  11
ENDBRANCH   1   8
BRANCH   2  16
ATOM     16  C   UNL     1       0.891   8.738  19.732  0.00  0.00    +0.000 C 
BRANCH  16  17
ATOM     17  N   UNL     1       1.012   9.185  21.125  0.00  0.00    +0.000 N 
ATOM     18  C   UNL     1       0.081   8.856  22.075  0.00  0.00    +0.000 C 
ATOM     19  C   UNL     1       0.349   9.446  23.431  0.00  0.00    +0.000 C 
ATOM     20  O   UNL     1      -0.892   8.146  21.834  0.00  0.00    +0.000 OA
ATOM     21  H   UNL     1       1.606   9.991  21.295  0.00  0.00    +0.000 HD
ENDBRANCH  16  17
BRANCH  16  22
ATOM     22  C   UNL     1       2.218   8.104  19.288  0.00  0.00    +0.000 C 
BRANCH  22  23
ATOM     23  C   UNL     1       2.240   6.597  19.297  0.00  0.00    +0.000 A 
ATOM     24  C   UNL     1       2.536   5.894  18.123  0.00  0.00    +0.000 A 
ATOM     25  C   UNL     1       2.602   4.501  18.129  0.00  0.00    +0.000 A 
ATOM     26  C   UNL     1       2.389   3.788  19.309  0.00  0.00    +0.000 A 
ATOM     27  C   UNL     1       2.065   4.479  20.477  0.00  0.00    +0.000 A 
ATOM     28  C   UNL     1       1.996   5.876  20.473  0.00  0.00    +0.000 A 
BRANCH  26  29
ATOM     29  O   UNL     1       2.480   2.428  19.200  0.00  0.00    +0.000 OA
ATOM     30  C   UNL     1       3.189   1.958  18.058  0.00  0.00    +0.000 C 
ENDBRANCH  26  29
ENDBRANCH  22  23
ENDBRANCH  16  22
ENDBRANCH   2  16
TORSDOF 8
ENDMDL
MODEL 8
REMARK VINA RESULT:      -6.3      3.883      8.524
REMARK  Name = 
REMARK  11 active torsions:
REMARK  status: ('A' for Active; 'I' for Inactive)
REMARK    1  A    between atoms: C_1  and  N_2
REMARK    2  A    between atoms: N_2  and  C_3
REMARK    3  A    between atoms: C_3  and  N_5
REMARK    4  A    between atoms: C_8  and  N_9
REMARK    5  A    between atoms: C_10  and  C_12
REMARK    6  A    between atoms: C_12  and  C_13
REMARK    7  A    between atoms: C_12  and  N_22
REMARK    8  A    between atoms: C_13  and  C_14
REMARK    9  A    between atoms: C_17  and  O_18
REMARK   10  A    between atoms: O_18  and  C_19
REMARK   11  A    between atoms: C_23  and  C_24
REMARK                            x       y       z     vdW  Elec       q    Type
REMARK                         _______ _______ _______ _____ _____    ______ ____
ROOT
ATOM      1  N   UNL     1       1.816   7.597  20.451  0.00  0.00    +0.000 N 
ATOM      2  C   UNL     1       1.850   6.221  20.306  0.00  0.00    +0.000 C 
ATOM      3  O   UNL     1       1.175   5.456  20.998  0.00  0.00    +0.000 OA
ATOM      4  H   UNL     1       2.074   8.137  19.627  0.00  0.00    +0.000 HD
ENDROOT
BRANCH   1   8
ATOM      5  N   UNL     1      -0.013  10.767  20.584  0.00  0.00    +0.000 N 
ATOM      6  C   UNL     1      -0.598   9.520  20.088  0.00  0.00    +0.000 C 
ATOM      7  C   UNL     1      -0.431   8.416  21.124  0.00  0.00    +0.000 C 
ATOM      8  C   UNL     1       1.045   8.246  21.509  0.00  0.00    +0.000 C 
ATOM      9  C   UNL     1       1.671   9.592  21.909  0.00  0.00    +0.000 C 
ATOM     10  C   UNL     1       1.423  10.687  20.868  0.00  0.00    +0.000 C 
BRANCH   5  11
ATOM     11  C   UNL     1      -0.769  11.909  20.850  0.00  0.00    +0.000 C 
ATOM     12  S   UNL     1      -0.544  13.378  20.073  0.00  0.00    +0.000 S 
BRANCH  11  14
ATOM     13  C   UNL     1      -1.458  11.339  23.207  0.00  0.00    +0.000 C 
ATOM     14  N   UNL     1      -1.722  11.692  21.826  0.00  0.00    +0.000 N 
ATOM     15  H   UNL     1      -2.615  11.386  21.469  0.00  0.00    +0.000 HD
ENDBRANCH  11  14
ENDBRANCH   5  11
ENDBRANCH   1   8
BRANCH   2  16
ATOM     16  C   UNL     1       2.706   5.736  19.122  0.00  0.00    +0.000 C 
BRANCH  16  17
ATOM     17  N   UNL     1       2.634   4.270  19.077  0.00  0.00    +0.000 N 
ATOM     18  C   UNL     1       1.844   3.611  18.173  0.00  0.00    +0.000 C 
ATOM     19  C   UNL     1       1.864   2.115  18.312  0.00  0.00    +0.000 C 
ATOM     20  O   UNL     1       1.173   4.196  17.326  0.00  0.00    +0.000 OA
ATOM     21  H   UNL     1       2.919   3.775  19.917  0.00  0.00    +0.000 HD
ENDBRANCH  16  17
BRANCH  16  22
ATOM     22  C   UNL     1       4.171   6.166  19.291  0.00  0.00    +0.000 C 
BRANCH  22  23
ATOM     23  C   UNL     1       5.069   5.843  18.123  0.00  0.00    +0.000 A 
ATOM     24  C   UNL     1       6.278   5.168  18.336  0.00  0.00    +0.000 A 
ATOM     25  C   UNL     1       7.096   4.824  17.260  0.00  0.00    +0.000 A 
ATOM     26  C   UNL     1       6.715   5.135  15.955  0.00  0.00    +0.000 A 
ATOM     27  C   UNL     1       5.527   5.833  15.736  0.00  0.00    +0.000 A 
ATOM     28  C   UNL     1       4.705   6.180  16.814  0.00  0.00    +0.000 A 
BRANCH  26  29
ATOM     29  O   UNL     1       7.591   4.750  14.978  0.00  0.00    +0.000 OA
ATOM     30  C   UNL     1       7.041   4.675  13.667  0.00  0.00    +0.000 C 
ENDBRANCH  26  29
ENDBRANCH  22  23
ENDBRANCH  16  22
ENDBRANCH   2  16
TORSDOF 8
ENDMDL
MODEL 9
REMARK VINA RESULT:      -6.2      1.398      1.847
REMARK  Name = 
REMARK  11 active torsions:
REMARK  status: ('A' for Active; 'I' for Inactive)
REMARK    1  A    between atoms: C_1  and  N_2
REMARK    2  A    between atoms: N_2  and  C_3
REMARK    3  A    between atoms: C_3  and  N_5
REMARK    4  A    between atoms: C_8  and  N_9
REMARK    5  A    between atoms: C_10  and  C_12
REMARK    6  A    between atoms: C_12  and  C_13
REMARK    7  A    between atoms: C_12  and  N_22
REMARK    8  A    between atoms: C_13  and  C_14
REMARK    9  A    between atoms: C_17  and  O_18
REMARK   10  A    between atoms: O_18  and  C_19
REMARK   11  A    between atoms: C_23  and  C_24
REMARK                            x       y       z     vdW  Elec       q    Type
REMARK                         _______ _______ _______ _____ _____    ______ ____
ROOT
ATOM      1  N   UNL     1       5.027   5.795  17.993  0.00  0.00    +0.000 N 
ATOM      2  C   UNL     1       4.837   5.284  19.266  0.00  0.00    +0.000 C 
ATOM      3  O   UNL     1       5.756   4.834  19.953  0.00  0.00    +0.000 OA
ATOM      4  H   UNL     1       4.334   6.472  17.677  0.00  0.00    +0.000 HD
ENDROOT
BRANCH   1   8
ATOM      5  N   UNL     1       6.058   4.646  14.672  0.00  0.00    +0.000 N 
ATOM      6  C   UNL     1       5.563   5.999  14.939  0.00  0.00    +0.000 C 
ATOM      7  C   UNL     1       6.361   6.633  16.072  0.00  0.00    +0.000 C 
ATOM      8  C   UNL     1       6.327   5.749  17.326  0.00  0.00    +0.000 C 
ATOM      9  C   UNL     1       6.732   4.304  16.996  0.00  0.00    +0.000 C 
ATOM     10  C   UNL     1       5.951   3.730  15.811  0.00  0.00    +0.000 C 
BRANCH   5  11
ATOM     11  C   UNL     1       6.664   4.282  13.469  0.00  0.00    +0.000 C 
ATOM     12  S   UNL     1       7.893   5.158  12.741  0.00  0.00    +0.000 S 
BRANCH  11  14
ATOM     13  C   UNL     1       5.213   3.029  11.833  0.00  0.00    +0.000 C 
ATOM     14  N   UNL     1       6.135   3.117  12.948  0.00  0.00    +0.000 N 
ATOM     15  H   UNL     1       6.082   2.355  13.608  0.00  0.00    +0.000 HD
ENDBRANCH  11  14
ENDBRANCH   5  11
ENDBRANCH   1   8
BRANCH   2  16
ATOM     16  C   UNL     1       3.400   5.443  19.796  0.00  0.00    +0.000 C 
BRANCH  16  17
ATOM     17  N   UNL     1       2.815   4.103  19.937  0.00  0.00    +0.000 N 
ATOM     18  C   UNL     1       2.573   3.301  18.853  0.00  0.00    +0.000 C 
ATOM     19  C   UNL     1       1.927   1.987  19.191  0.00  0.00    +0.000 C 
ATOM     20  O   UNL     1       2.854   3.633  17.704  0.00  0.00    +0.000 OA
ATOM     21  H   UNL     1       2.306   3.917  20.795  0.00  0.00    +0.000 HD
ENDBRANCH  16  17
BRANCH  16  22
ATOM     22  C   UNL     1       2.543   6.269  18.824  0.00  0.00    +0.000 C 
BRANCH  22  23
ATOM     23  C   UNL     1       1.936   7.517  19.412  0.00  0.00    +0.000 A 
ATOM     24  C   UNL     1       1.607   7.561  20.772  0.00  0.00    +0.000 A 
ATOM     25  C   UNL     1       1.085   8.725  21.338  0.00  0.00    +0.000 A 
ATOM     26  C   UNL     1       0.898   9.866  20.559  0.00  0.00    +0.000 A 
ATOM     27  C   UNL     1       1.196   9.822  19.197  0.00  0.00    +0.000 A 
ATOM     28  C   UNL     1       1.718   8.656  18.627  0.00  0.00    +0.000 A 
BRANCH  26  29
ATOM     29  O   UNL     1       0.383  10.950  21.216  0.00  0.00    +0.000 OA
ATOM     30  C   UNL     1       0.886  12.212  20.789  0.00  0.00    +0.000 C 
ENDBRANCH  26  29
ENDBRANCH  22  23
ENDBRANCH  16  22
ENDBRANCH   2  16
TORSDOF 8
ENDMDL
