MODEL 1
REMARK VINA RESULT:      -7.6      0.000      0.000
REMARK  Name = 
REMARK  4 active torsions:
REMARK  status: ('A' for Active; 'I' for Inactive)
REMARK    1  A    between atoms: N_3  and  C_4
REMARK    2  A    between atoms: C_4  and  C_5
REMARK    3  A    between atoms: N_12  and  C_13
REMARK    4  A    between atoms: C_16  and  C_17
REMARK                            x       y       z     vdW  Elec       q    Type
REMARK                         _______ _______ _______ _____ _____    ______ ____
ROOT
ATOM      1  O   UNL     1       1.937   8.752  17.357  0.00  0.00    +0.000 OA
ATOM      2  C   UNL     1       2.089   8.261  18.467  0.00  0.00    +0.000 C 
ATOM      3  N   UNL     1       1.524   8.812  19.595  0.00  0.00    +0.000 N 
ATOM      4  N   UNL     1       2.788   7.110  18.764  0.00  0.00    +0.000 N 
ATOM      5  H   UNL     1       2.033   8.683  20.455  0.00  0.00    +0.000 HD
ATOM      6  H   UNL     1       2.577   6.690  19.658  0.00  0.00    +0.000 HD
ENDROOT
BRANCH   4   7
ATOM      7  C   UNL     1       3.582   6.358  17.871  0.00  0.00    +0.000 A 
ATOM      8  C   UNL     1       3.421   4.984  17.685  0.00  0.00    +0.000 A 
ATOM      9  C   UNL     1       4.204   4.291  16.756  0.00  0.00    +0.000 A 
ATOM     10  C   UNL     1       5.166   4.963  15.992  0.00  0.00    +0.000 A 
ATOM     11  C   UNL     1       5.341   6.339  16.195  0.00  0.00    +0.000 A 
ATOM     12  C   UNL     1       4.552   7.032  17.122  0.00  0.00    +0.000 A 
BRANCH  10  13
ATOM     13  C   UNL     1       5.983   4.228  14.958  0.00  0.00    +0.000 C 
ATOM     14  F   UNL     1       5.424   4.229  13.716  0.00  0.00    +0.000 F 
ATOM     15  F   UNL     1       7.225   4.769  14.805  0.00  0.00    +0.000 F 
ATOM     16  F   UNL     1       6.183   2.920  15.277  0.00  0.00    +0.000 F 
ENDBRANCH  10  13
ENDBRANCH   4   7
BRANCH   3  17
ATOM     17  C   UNL     1       0.778  10.048  19.477  0.00  0.00    +0.000 C 
BRANCH  17  18
ATOM     18  C   UNL     1       0.041  10.364  20.749  0.00  0.00    +0.000 A 
ATOM     19  C   UNL     1       0.022   9.460  21.820  0.00  0.00    +0.000 A 
ATOM     20  C   UNL     1      -0.635   9.786  23.009  0.00  0.00    +0.000 A 
ATOM     21  C   UNL     1      -1.279  11.016  23.141  0.00  0.00    +0.000 A 
ATOM     22  C   UNL     1      -1.261  11.920  22.082  0.00  0.00    +0.000 A 
ATOM     23 BR   UNL     1      -2.126  13.592  22.257  0.00  0.00    +0.000 Br
ATOM     24  C   UNL     1      -0.604  11.604  20.894  0.00  0.00    +0.000 A 
ENDBRANCH  17  18
ENDBRANCH   3  17
TORSDOF 4
ENDMDL
MODEL 2
REMARK VINA RESULT:      -7.5      5.581      7.517
REMARK  Name = 
REMARK  4 active torsions:
REMARK  status: ('A' for Active; 'I' for Inactive)
REMARK    1  A    between atoms: N_3  and  C_4
REMARK    2  A    between atoms: C_4  and  C_5
REMARK    3  A    between atoms: N_12  and  C_13
REMARK    4  A    between atoms: C_16  and  C_17
REMARK                            x       y       z     vdW  Elec       q    Type
REMARK                         _______ _______ _______ _____ _____    ______ ____
ROOT
ATOM      1  O   UNL     1       8.171   7.192  18.737  0.00  0.00    +0.000 OA
ATOM      2  C   UNL     1       7.674   7.949  17.913  0.00  0.00    +0.000 C 
ATOM      3  N   UNL     1       8.171   9.212  17.685  0.00  0.00    +0.000 N 
ATOM      4  N   UNL     1       6.606   7.670  17.086  0.00  0.00    +0.000 N 
ATOM      5  H   UNL     1       7.500   9.908  17.399  0.00  0.00    +0.000 HD
ATOM      6  H   UNL     1       6.509   8.273  16.282  0.00  0.00    +0.000 HD
ENDROOT
BRANCH   4   7
ATOM      7  C   UNL     1       5.790   6.519  17.131  0.00  0.00    +0.000 A 
ATOM      8  C   UNL     1       6.195   5.281  16.629  0.00  0.00    +0.000 A 
ATOM      9  C   UNL     1       5.366   4.159  16.736  0.00  0.00    +0.000 A 
ATOM     10  C   UNL     1       4.113   4.255  17.350  0.00  0.00    +0.000 A 
ATOM     11  C   UNL     1       3.698   5.504  17.836  0.00  0.00    +0.000 A 
ATOM     12  C   UNL     1       4.532   6.624  17.733  0.00  0.00    +0.000 A 
BRANCH  10  13
ATOM     13  C   UNL     1       3.233   3.039  17.507  0.00  0.00    +0.000 C 
ATOM     14  F   UNL     1       2.541   3.012  18.680  0.00  0.00    +0.000 F 
ATOM     15  F   UNL     1       2.296   2.951  16.522  0.00  0.00    +0.000 F 
ATOM     16  F   UNL     1       3.934   1.873  17.460  0.00  0.00    +0.000 F 
ENDBRANCH  10  13
ENDBRANCH   4   7
BRANCH   3  17
ATOM     17  C   UNL     1       9.278   9.689  18.490  0.00  0.00    +0.000 C 
BRANCH  17  18
ATOM     18  C   UNL     1       9.598  11.125  18.179  0.00  0.00    +0.000 A 
ATOM     19  C   UNL     1      10.899  11.522  17.842  0.00  0.00    +0.000 A 
ATOM     20  C   UNL     1      11.172  12.853  17.518  0.00  0.00    +0.000 A 
ATOM     21  C   UNL     1      10.148  13.801  17.529  0.00  0.00    +0.000 A 
ATOM     22  C   UNL     1       8.853  13.413  17.859  0.00  0.00    +0.000 A 
ATOM     23 BR   UNL     1       7.461  14.692  17.869  0.00  0.00    +0.000 Br
ATOM     24  C   UNL     1       8.573  12.086  18.179  0.00  0.00    +0.000 A 
ENDBRANCH  17  18
ENDBRANCH   3  17
TORSDOF 4
ENDMDL
MODEL 3
REMARK VINA RESULT:      -7.5      5.719      9.047
REMARK  Name = 
REMARK  4 active torsions:
REMARK  status: ('A' for Active; 'I' for Inactive)
REMARK    1  A    between atoms: N_3  and  C_4
REMARK    2  A    between atoms: C_4  and  C_5
REMARK    3  A    between atoms: N_12  and  C_13
REMARK    4  A    between atoms: C_16  and  C_17
REMARK                            x       y       z     vdW  Elec       q    Type
REMARK                         _______ _______ _______ _____ _____    ______ ____
ROOT
ATOM      1  O   UNL     1       2.230   6.169  18.226  0.00  0.00    +0.000 OA
ATOM      2  C   UNL     1       2.683   6.350  19.348  0.00  0.00    +0.000 C 
ATOM      3  N   UNL     1       3.565   5.470  19.933  0.00  0.00    +0.000 N 
ATOM      4  N   UNL     1       2.431   7.430  20.167  0.00  0.00    +0.000 N 
ATOM      5  H   UNL     1       3.522   5.400  20.937  0.00  0.00    +0.000 HD
ATOM      6  H   UNL     1       3.092   7.572  20.917  0.00  0.00    +0.000 HD
ENDROOT
BRANCH   4   7
ATOM      7  C   UNL     1       1.492   8.458  19.934  0.00  0.00    +0.000 A 
ATOM      8  C   UNL     1       1.410   9.151  18.725  0.00  0.00    +0.000 A 
ATOM      9  C   UNL     1       0.433  10.132  18.527  0.00  0.00    +0.000 A 
ATOM     10  C   UNL     1      -0.485  10.439  19.538  0.00  0.00    +0.000 A 
ATOM     11  C   UNL     1      -0.388   9.757  20.760  0.00  0.00    +0.000 A 
ATOM     12  C   UNL     1       0.587   8.771  20.954  0.00  0.00    +0.000 A 
BRANCH  10  13
ATOM     13  C   UNL     1      -1.568  11.465  19.315  0.00  0.00    +0.000 C 
ATOM     14  F   UNL     1      -2.633  10.993  18.609  0.00  0.00    +0.000 F 
ATOM     15  F   UNL     1      -2.080  11.937  20.486  0.00  0.00    +0.000 F 
ATOM     16  F   UNL     1      -1.125  12.558  18.635  0.00  0.00    +0.000 F 
ENDBRANCH  10  13
ENDBRANCH   4   7
BRANCH   3  17
ATOM     17  C   UNL     1       3.920   4.255  19.227  0.00  0.00    +0.000 C 
BRANCH  17  18
ATOM     18  C   UNL     1       5.129   4.465  18.357  0.00  0.00    +0.000 A 
ATOM     19  C   UNL     1       6.350   4.888  18.901  0.00  0.00    +0.000 A 
ATOM     20  C   UNL     1       7.473   5.041  18.084  0.00  0.00    +0.000 A 
ATOM     21  C   UNL     1       7.389   4.773  16.718  0.00  0.00    +0.000 A 
ATOM     22  C   UNL     1       6.180   4.348  16.172  0.00  0.00    +0.000 A 
ATOM     23 BR   UNL     1       6.062   3.977  14.322  0.00  0.00    +0.000 Br
ATOM     24  C   UNL     1       5.057   4.190  16.981  0.00  0.00    +0.000 A 
ENDBRANCH  17  18
ENDBRANCH   3  17
TORSDOF 4
ENDMDL
MODEL 4
REMARK VINA RESULT:      -7.5      3.244      4.060
REMARK  Name = 
REMARK  4 active torsions:
REMARK  status: ('A' for Active; 'I' for Inactive)
REMARK    1  A    between atoms: N_3  and  C_4
REMARK    2  A    between atoms: C_4  and  C_5
REMARK    3  A    between atoms: N_12  and  C_13
REMARK    4  A    between atoms: C_16  and  C_17
REMARK                            x       y       z     vdW  Elec       q    Type
REMARK                         _______ _______ _______ _____ _____    ______ ____
ROOT
ATOM      1  O   UNL     1       1.675   8.094  20.172  0.00  0.00    +0.000 OA
ATOM      2  C   UNL     1       1.869   8.379  18.998  0.00  0.00    +0.000 C 
ATOM      3  N   UNL     1       1.567   9.621  18.487  0.00  0.00    +0.000 N 
ATOM      4  N   UNL     1       2.428   7.561  18.039  0.00  0.00    +0.000 N 
ATOM      5  H   UNL     1       1.298   9.648  17.516  0.00  0.00    +0.000 HD
ATOM      6  H   UNL     1       2.780   8.031  17.217  0.00  0.00    +0.000 HD
ENDROOT
BRANCH   4   7
ATOM      7  C   UNL     1       2.748   6.195  18.186  0.00  0.00    +0.000 A 
ATOM      8  C   UNL     1       4.005   5.749  18.597  0.00  0.00    +0.000 A 
ATOM      9  C   UNL     1       4.260   4.385  18.771  0.00  0.00    +0.000 A 
ATOM     10  C   UNL     1       3.258   3.437  18.536  0.00  0.00    +0.000 A 
ATOM     11  C   UNL     1       2.002   3.884  18.102  0.00  0.00    +0.000 A 
ATOM     12  C   UNL     1       1.747   5.250  17.935  0.00  0.00    +0.000 A 
BRANCH  10  13
ATOM     13  C   UNL     1       3.515   1.967  18.763  0.00  0.00    +0.000 C 
ATOM     14  F   UNL     1       4.483   1.717  19.688  0.00  0.00    +0.000 F 
ATOM     15  F   UNL     1       2.404   1.312  19.203  0.00  0.00    +0.000 F 
ATOM     16  F   UNL     1       3.905   1.320  17.630  0.00  0.00    +0.000 F 
ENDBRANCH  10  13
ENDBRANCH   4   7
BRANCH   3  17
ATOM     17  C   UNL     1       0.939  10.603  19.348  0.00  0.00    +0.000 C 
BRANCH  17  18
ATOM     18  C   UNL     1      -0.475  10.880  18.919  0.00  0.00    +0.000 A 
ATOM     19  C   UNL     1      -1.314  11.709  19.675  0.00  0.00    +0.000 A 
ATOM     20  C   UNL     1      -2.613  11.987  19.242  0.00  0.00    +0.000 A 
ATOM     21  C   UNL     1      -3.087  11.438  18.050  0.00  0.00    +0.000 A 
ATOM     22  C   UNL     1      -2.258  10.616  17.292  0.00  0.00    +0.000 A 
ATOM     23 BR   UNL     1      -2.892   9.875  15.673  0.00  0.00    +0.000 Br
ATOM     24  C   UNL     1      -0.959  10.339  17.716  0.00  0.00    +0.000 A 
ENDBRANCH  17  18
ENDBRANCH   3  17
TORSDOF 4
ENDMDL
MODEL 5
REMARK VINA RESULT:      -7.4      5.668      8.984
REMARK  Name = 
REMARK  4 active torsions:
REMARK  status: ('A' for Active; 'I' for Inactive)
REMARK    1  A    between atoms: N_3  and  C_4
REMARK    2  A    between atoms: C_4  and  C_5
REMARK    3  A    between atoms: N_12  and  C_13
REMARK    4  A    between atoms: C_16  and  C_17
REMARK                            x       y       z     vdW  Elec       q    Type
REMARK                         _______ _______ _______ _____ _____    ______ ____
ROOT
ATOM      1  O   UNL     1       2.239   6.086  18.222  0.00  0.00    +0.000 OA
ATOM      2  C   UNL     1       2.713   6.283  19.333  0.00  0.00    +0.000 C 
ATOM      3  N   UNL     1       3.625   5.423  19.902  0.00  0.00    +0.000 N 
ATOM      4  N   UNL     1       2.458   7.362  20.152  0.00  0.00    +0.000 N 
ATOM      5  H   UNL     1       3.607   5.358  20.907  0.00  0.00    +0.000 HD
ATOM      6  H   UNL     1       3.133   7.521  20.886  0.00  0.00    +0.000 HD
ENDROOT
BRANCH   4   7
ATOM      7  C   UNL     1       1.494   8.370  19.934  0.00  0.00    +0.000 A 
ATOM      8  C   UNL     1       0.567   8.756  20.903  0.00  0.00    +0.000 A 
ATOM      9  C   UNL     1      -0.340   9.792  20.655  0.00  0.00    +0.000 A 
ATOM     10  C   UNL     1      -0.337  10.462  19.427  0.00  0.00    +0.000 A 
ATOM     11  C   UNL     1       0.581  10.059  18.446  0.00  0.00    +0.000 A 
ATOM     12  C   UNL     1       1.492   9.027  18.699  0.00  0.00    +0.000 A 
BRANCH  10  13
ATOM     13  C   UNL     1      -1.284  11.608  19.168  0.00  0.00    +0.000 C 
ATOM     14  F   UNL     1      -1.483  12.409  20.252  0.00  0.00    +0.000 F 
ATOM     15  F   UNL     1      -0.839  12.431  18.177  0.00  0.00    +0.000 F 
ATOM     16  F   UNL     1      -2.520  11.192  18.780  0.00  0.00    +0.000 F 
ENDBRANCH  10  13
ENDBRANCH   4   7
BRANCH   3  17
ATOM     17  C   UNL     1       3.989   4.212  19.194  0.00  0.00    +0.000 C 
BRANCH  17  18
ATOM     18  C   UNL     1       5.186   4.436  18.311  0.00  0.00    +0.000 A 
ATOM     19  C   UNL     1       6.412   4.857  18.844  0.00  0.00    +0.000 A 
ATOM     20  C   UNL     1       7.524   5.023  18.015  0.00  0.00    +0.000 A 
ATOM     21  C   UNL     1       7.423   4.770  16.647  0.00  0.00    +0.000 A 
ATOM     22  C   UNL     1       6.210   4.348  16.112  0.00  0.00    +0.000 A 
ATOM     23 BR   UNL     1       6.069   3.997  14.260  0.00  0.00    +0.000 Br
ATOM     24  C   UNL     1       5.097   4.176  16.933  0.00  0.00    +0.000 A 
ENDBRANCH  17  18
ENDBRANCH   3  17
TORSDOF 4
ENDMDL
MODEL 6
REMARK VINA RESULT:      -7.3      7.111      9.145
REMARK  Name = 
REMARK  4 active torsions:
REMARK  status: ('A' for Active; 'I' for Inactive)
REMARK    1  A    between atoms: N_3  and  C_4
REMARK    2  A    between atoms: C_4  and  C_5
REMARK    3  A    between atoms: N_12  and  C_13
REMARK    4  A    between atoms: C_16  and  C_17
REMARK                            x       y       z     vdW  Elec       q    Type
REMARK                         _______ _______ _______ _____ _____    ______ ____
ROOT
ATOM      1  O   UNL     1       8.269   7.426  18.697  0.00  0.00    +0.000 OA
ATOM      2  C   UNL     1       7.759   8.000  17.745  0.00  0.00    +0.000 C 
ATOM      3  N   UNL     1       7.016   7.331  16.799  0.00  0.00    +0.000 N 
ATOM      4  N   UNL     1       7.805   9.353  17.485  0.00  0.00    +0.000 N 
ATOM      5  H   UNL     1       7.039   7.711  15.866  0.00  0.00    +0.000 HD
ATOM      6  H   UNL     1       7.107   9.698  16.842  0.00  0.00    +0.000 HD
ENDROOT
BRANCH   4   7
ATOM      7  C   UNL     1       8.569  10.315  18.181  0.00  0.00    +0.000 A 
ATOM      8  C   UNL     1       9.245  10.032  19.369  0.00  0.00    +0.000 A 
ATOM      9  C   UNL     1      10.026  11.008  19.998  0.00  0.00    +0.000 A 
ATOM     10  C   UNL     1      10.145  12.289  19.448  0.00  0.00    +0.000 A 
ATOM     11  C   UNL     1       9.449  12.578  18.266  0.00  0.00    +0.000 A 
ATOM     12  C   UNL     1       8.673  11.598  17.634  0.00  0.00    +0.000 A 
BRANCH  10  13
ATOM     13  C   UNL     1      11.020  13.332  20.099  0.00  0.00    +0.000 C 
ATOM     14  F   UNL     1      10.978  14.545  19.482  0.00  0.00    +0.000 F 
ATOM     15  F   UNL     1      10.668  13.563  21.395  0.00  0.00    +0.000 F 
ATOM     16  F   UNL     1      12.333  12.973  20.128  0.00  0.00    +0.000 F 
ENDBRANCH  10  13
ENDBRANCH   4   7
BRANCH   3  17
ATOM     17  C   UNL     1       6.886   5.891  16.895  0.00  0.00    +0.000 C 
BRANCH  17  18
ATOM     18  C   UNL     1       5.495   5.495  17.308  0.00  0.00    +0.000 A 
ATOM     19  C   UNL     1       4.499   6.458  17.517  0.00  0.00    +0.000 A 
ATOM     20  C   UNL     1       3.202   6.071  17.864  0.00  0.00    +0.000 A 
ATOM     21  C   UNL     1       2.888   4.719  18.005  0.00  0.00    +0.000 A 
ATOM     22  C   UNL     1       3.872   3.757  17.796  0.00  0.00    +0.000 A 
ATOM     23 BR   UNL     1       3.450   1.924  17.980  0.00  0.00    +0.000 Br
ATOM     24  C   UNL     1       5.167   4.136  17.445  0.00  0.00    +0.000 A 
ENDBRANCH  17  18
ENDBRANCH   3  17
TORSDOF 4
ENDMDL
MODEL 7
REMARK VINA RESULT:      -7.3      5.980      7.376
REMARK  Name = 
REMARK  4 active torsions:
REMARK  status: ('A' for Active; 'I' for Inactive)
REMARK    1  A    between atoms: N_3  and  C_4
REMARK    2  A    between atoms: C_4  and  C_5
REMARK    3  A    between atoms: N_12  and  C_13
REMARK    4  A    between atoms: C_16  and  C_17
REMARK                            x       y       z     vdW  Elec       q    Type
REMARK                         _______ _______ _______ _____ _____    ______ ____
ROOT
ATOM      1  O   UNL     1       8.001   6.810  18.662  0.00  0.00    +0.000 OA
ATOM      2  C   UNL     1       7.412   7.525  17.863  0.00  0.00    +0.000 C 
ATOM      3  N   UNL     1       7.838   8.801  17.571  0.00  0.00    +0.000 N 
ATOM      4  N   UNL     1       6.297   7.184  17.127  0.00  0.00    +0.000 N 
ATOM      5  H   UNL     1       7.119   9.463  17.322  0.00  0.00    +0.000 HD
ATOM      6  H   UNL     1       6.114   7.764  16.320  0.00  0.00    +0.000 HD
ENDROOT
BRANCH   4   7
ATOM      7  C   UNL     1       5.535   6.004  17.258  0.00  0.00    +0.000 A 
ATOM      8  C   UNL     1       5.708   4.892  16.432  0.00  0.00    +0.000 A 
ATOM      9  C   UNL     1       4.958   3.729  16.630  0.00  0.00    +0.000 A 
ATOM     10  C   UNL     1       4.018   3.654  17.663  0.00  0.00    +0.000 A 
ATOM     11  C   UNL     1       3.829   4.779  18.480  0.00  0.00    +0.000 A 
ATOM     12  C   UNL     1       4.585   5.940  18.283  0.00  0.00    +0.000 A 
BRANCH  10  13
ATOM     13  C   UNL     1       3.236   2.387  17.908  0.00  0.00    +0.000 C 
ATOM     14  F   UNL     1       2.128   2.266  17.126  0.00  0.00    +0.000 F 
ATOM     15  F   UNL     1       3.980   1.269  17.672  0.00  0.00    +0.000 F 
ATOM     16  F   UNL     1       2.800   2.278  19.193  0.00  0.00    +0.000 F 
ENDBRANCH  10  13
ENDBRANCH   4   7
BRANCH   3  17
ATOM     17  C   UNL     1       8.982   9.341  18.278  0.00  0.00    +0.000 C 
BRANCH  17  18
ATOM     18  C   UNL     1       8.998  10.844  18.221  0.00  0.00    +0.000 A 
ATOM     19  C   UNL     1       8.062  11.551  17.454  0.00  0.00    +0.000 A 
ATOM     20  C   UNL     1       8.067  12.948  17.443  0.00  0.00    +0.000 A 
ATOM     21  C   UNL     1       9.006  13.652  18.198  0.00  0.00    +0.000 A 
ATOM     22  C   UNL     1       9.936  12.956  18.965  0.00  0.00    +0.000 A 
ATOM     23 BR   UNL     1      11.206  13.905  19.994  0.00  0.00    +0.000 Br
ATOM     24  C   UNL     1       9.934  11.562  18.984  0.00  0.00    +0.000 A 
ENDBRANCH  17  18
ENDBRANCH   3  17
TORSDOF 4
ENDMDL
MODEL 8
REMARK VINA RESULT:      -7.3      6.856      8.951
REMARK  Name = 
REMARK  4 active torsions:
REMARK  status: ('A' for Active; 'I' for Inactive)
REMARK    1  A    between atoms: N_3  and  C_4
REMARK    2  A    between atoms: C_4  and  C_5
REMARK    3  A    between atoms: N_12  and  C_13
REMARK    4  A    between atoms: C_16  and  C_17
REMARK                            x       y       z     vdW  Elec       q    Type
REMARK                         _______ _______ _______ _____ _____    ______ ____
ROOT
ATOM      1  O   UNL     1       8.443   7.423  18.766  0.00  0.00    +0.000 OA
ATOM      2  C   UNL     1       7.865   7.979  17.841  0.00  0.00    +0.000 C 
ATOM      3  N   UNL     1       7.114   7.281  16.922  0.00  0.00    +0.000 N 
ATOM      4  N   UNL     1       7.837   9.334  17.590  0.00  0.00    +0.000 N 
ATOM      5  H   UNL     1       7.079   7.668  15.993  0.00  0.00    +0.000 HD
ATOM      6  H   UNL     1       7.096   9.649  16.980  0.00  0.00    +0.000 HD
ENDROOT
BRANCH   4   7
ATOM      7  C   UNL     1       8.584  10.326  18.261  0.00  0.00    +0.000 A 
ATOM      8  C   UNL     1       9.256  10.090  19.461  0.00  0.00    +0.000 A 
ATOM      9  C   UNL     1      10.020  11.094  20.064  0.00  0.00    +0.000 A 
ATOM     10  C   UNL     1      10.128  12.359  19.475  0.00  0.00    +0.000 A 
ATOM     11  C   UNL     1       9.436  12.602  18.280  0.00  0.00    +0.000 A 
ATOM     12  C   UNL     1       8.676  11.593  17.674  0.00  0.00    +0.000 A 
BRANCH  10  13
ATOM     13  C   UNL     1      10.985  13.432  20.098  0.00  0.00    +0.000 C 
ATOM     14  F   UNL     1      10.893  14.639  19.473  0.00  0.00    +0.000 F 
ATOM     15  F   UNL     1      10.656  13.664  21.401  0.00  0.00    +0.000 F 
ATOM     16  F   UNL     1      12.309  13.114  20.101  0.00  0.00    +0.000 F 
ENDBRANCH  10  13
ENDBRANCH   4   7
BRANCH   3  17
ATOM     17  C   UNL     1       7.057   5.836  17.012  0.00  0.00    +0.000 C 
BRANCH  17  18
ATOM     18  C   UNL     1       5.649   5.360  17.249  0.00  0.00    +0.000 A 
ATOM     19  C   UNL     1       5.167   4.191  16.644  0.00  0.00    +0.000 A 
ATOM     20  C   UNL     1       3.870   3.743  16.905  0.00  0.00    +0.000 A 
ATOM     21  C   UNL     1       3.042   4.457  17.772  0.00  0.00    +0.000 A 
ATOM     22  C   UNL     1       3.516   5.617  18.378  0.00  0.00    +0.000 A 
ATOM     23 BR   UNL     1       2.401   6.585  19.558  0.00  0.00    +0.000 Br
ATOM     24  C   UNL     1       4.811   6.068  18.126  0.00  0.00    +0.000 A 
ENDBRANCH  17  18
ENDBRANCH   3  17
TORSDOF 4
ENDMDL
MODEL 9
REMARK VINA RESULT:      -7.3      1.876      2.435
REMARK  Name = 
REMARK  4 active torsions:
REMARK  status: ('A' for Active; 'I' for Inactive)
REMARK    1  A    between atoms: N_3  and  C_4
REMARK    2  A    between atoms: C_4  and  C_5
REMARK    3  A    between atoms: N_12  and  C_13
REMARK    4  A    between atoms: C_16  and  C_17
REMARK                            x       y       z     vdW  Elec       q    Type
REMARK                         _______ _______ _______ _____ _____    ______ ____
ROOT
ATOM      1  O   UNL     1       2.251   9.358  17.255  0.00  0.00    +0.000 OA
ATOM      2  C   UNL     1       1.945   8.766  18.282  0.00  0.00    +0.000 C 
ATOM      3  N   UNL     1       1.129   9.329  19.236  0.00  0.00    +0.000 N 
ATOM      4  N   UNL     1       2.317   7.484  18.628  0.00  0.00    +0.000 N 
ATOM      5  H   UNL     1       1.296   9.043  20.188  0.00  0.00    +0.000 HD
ATOM      6  H   UNL     1       1.757   7.048  19.346  0.00  0.00    +0.000 HD
ENDROOT
BRANCH   4   7
ATOM      7  C   UNL     1       3.236   6.664  17.940  0.00  0.00    +0.000 A 
ATOM      8  C   UNL     1       3.101   5.277  17.855  0.00  0.00    +0.000 A 
ATOM      9  C   UNL     1       4.016   4.512  17.124  0.00  0.00    +0.000 A 
ATOM     10  C   UNL     1       5.086   5.121  16.462  0.00  0.00    +0.000 A 
ATOM     11  C   UNL     1       5.234   6.512  16.565  0.00  0.00    +0.000 A 
ATOM     12  C   UNL     1       4.314   7.277  17.292  0.00  0.00    +0.000 A 
BRANCH  10  13
ATOM     13  C   UNL     1       6.051   4.306  15.636  0.00  0.00    +0.000 C 
ATOM     14  F   UNL     1       6.064   4.644  14.317  0.00  0.00    +0.000 F 
ATOM     15  F   UNL     1       7.338   4.440  16.066  0.00  0.00    +0.000 F 
ATOM     16  F   UNL     1       5.782   2.972  15.678  0.00  0.00    +0.000 F 
ENDBRANCH  10  13
ENDBRANCH   4   7
BRANCH   3  17
ATOM     17  C   UNL     1       0.666  10.691  19.054  0.00  0.00    +0.000 C 
BRANCH  17  18
ATOM     18  C   UNL     1      -0.773  10.724  18.620  0.00  0.00    +0.000 A 
ATOM     19  C   UNL     1      -1.229   9.932  17.558  0.00  0.00    +0.000 A 
ATOM     20  C   UNL     1      -2.578   9.946  17.192  0.00  0.00    +0.000 A 
ATOM     21  C   UNL     1      -3.483  10.751  17.884  0.00  0.00    +0.000 A 
ATOM     22  C   UNL     1      -3.037  11.538  18.942  0.00  0.00    +0.000 A 
ATOM     23 BR   UNL     1      -4.261  12.625  19.887  0.00  0.00    +0.000 Br
ATOM     24  C   UNL     1      -1.694  11.525  19.315  0.00  0.00    +0.000 A 
ENDBRANCH  17  18
ENDBRANCH   3  17
TORSDOF 4
ENDMDL
