MODEL 1
REMARK VINA RESULT:      -7.0      0.000      0.000
REMARK  Name = 
REMARK  5 active torsions:
REMARK  status: ('A' for Active; 'I' for Inactive)
REMARK    1  A    between atoms: C_1  and  S_2
REMARK    2  A    between atoms: S_2  and  N_5
REMARK    3  A    between atoms: N_5  and  C_6
REMARK    4  A    between atoms: N_5  and  C_11
REMARK    5  A    between atoms: C_6  and  C_7
REMARK                            x       y       z     vdW  Elec       q    Type
REMARK                         _______ _______ _______ _____ _____    ______ ____
ROOT
ATOM      1  N   UNL     1       5.596   4.989  16.690  0.00  0.00    +0.000 N 
ENDROOT
BRANCH   1   2
ATOM      2  C   UNL     1       4.318   4.598  17.203  0.00  0.00    +0.000 A 
ATOM      3  C   UNL     1       3.985   3.242  17.190  0.00  0.00    +0.000 A 
ATOM      4  C   UNL     1       2.709   2.833  17.579  0.00  0.00    +0.000 A 
ATOM      5  C   UNL     1       1.774   3.776  17.997  0.00  0.00    +0.000 A 
ATOM      6  C   UNL     1       2.117   5.126  18.045  0.00  0.00    +0.000 A 
ATOM      7  C   UNL     1       3.394   5.539  17.655  0.00  0.00    +0.000 A 
ENDBRANCH   1   2
BRANCH   1   9
ATOM      8  C   UNL     1       7.356   6.643  17.825  0.00  0.00    +0.000 C 
ATOM      9  S   UNL     1       6.927   4.914  17.728  0.00  0.00    +0.000 S 
ATOM     10  O   UNL     1       8.010   4.232  17.064  0.00  0.00    +0.000 OA
ATOM     11  O   UNL     1       6.501   4.493  19.048  0.00  0.00    +0.000 OA
ENDBRANCH   1   9
BRANCH   1  12
ATOM     12  C   UNL     1       5.747   5.305  15.256  0.00  0.00    +0.000 C 
BRANCH  12  13
ATOM     13  C   UNL     1       6.064   4.102  14.362  0.00  0.00    +0.000 C 
ATOM     14  C   UNL     1       5.152   3.777  13.150  0.00  0.00    +0.000 C 
ATOM     15  C   UNL     1       6.414   3.576  12.297  0.00  0.00    +0.000 C 
ATOM     16  C   UNL     1       7.188   4.404  13.334  0.00  0.00    +0.000 C 
ENDBRANCH  12  13
ENDBRANCH   1  12
TORSDOF 4
ENDMDL
MODEL 2
REMARK VINA RESULT:      -7.0      0.405      1.262
REMARK  Name = 
REMARK  5 active torsions:
REMARK  status: ('A' for Active; 'I' for Inactive)
REMARK    1  A    between atoms: C_1  and  S_2
REMARK    2  A    between atoms: S_2  and  N_5
REMARK    3  A    between atoms: N_5  and  C_6
REMARK    4  A    between atoms: N_5  and  C_11
REMARK    5  A    between atoms: C_6  and  C_7
REMARK                            x       y       z     vdW  Elec       q    Type
REMARK                         _______ _______ _______ _____ _____    ______ ____
ROOT
ATOM      1  N   UNL     1       5.735   5.125  16.549  0.00  0.00    +0.000 N 
ENDROOT
BRANCH   1   2
ATOM      2  C   UNL     1       4.398   4.917  17.014  0.00  0.00    +0.000 A 
ATOM      3  C   UNL     1       3.727   5.988  17.608  0.00  0.00    +0.000 A 
ATOM      4  C   UNL     1       2.465   5.796  18.172  0.00  0.00    +0.000 A 
ATOM      5  C   UNL     1       1.867   4.539  18.125  0.00  0.00    +0.000 A 
ATOM      6  C   UNL     1       2.520   3.478  17.500  0.00  0.00    +0.000 A 
ATOM      7  C   UNL     1       3.784   3.667  16.936  0.00  0.00    +0.000 A 
ENDBRANCH   1   2
BRANCH   1   9
ATOM      8  C   UNL     1       7.478   6.600  17.931  0.00  0.00    +0.000 C 
ATOM      9  S   UNL     1       7.002   4.905  17.646  0.00  0.00    +0.000 S 
ATOM     10  O   UNL     1       8.099   4.249  16.978  0.00  0.00    +0.000 OA
ATOM     11  O   UNL     1       6.488   4.377  18.894  0.00  0.00    +0.000 OA
ENDBRANCH   1   9
BRANCH   1  12
ATOM     12  C   UNL     1       5.984   5.382  15.117  0.00  0.00    +0.000 C 
BRANCH  12  13
ATOM     13  C   UNL     1       6.201   4.126  14.267  0.00  0.00    +0.000 C 
ATOM     14  C   UNL     1       5.123   3.693  13.238  0.00  0.00    +0.000 C 
ATOM     15  C   UNL     1       6.243   3.463  12.212  0.00  0.00    +0.000 C 
ATOM     16  C   UNL     1       7.139   4.381  13.056  0.00  0.00    +0.000 C 
ENDBRANCH  12  13
ENDBRANCH   1  12
TORSDOF 4
ENDMDL
MODEL 3
REMARK VINA RESULT:      -6.7      0.670      1.063
REMARK  Name = 
REMARK  5 active torsions:
REMARK  status: ('A' for Active; 'I' for Inactive)
REMARK    1  A    between atoms: C_1  and  S_2
REMARK    2  A    between atoms: S_2  and  N_5
REMARK    3  A    between atoms: N_5  and  C_6
REMARK    4  A    between atoms: N_5  and  C_11
REMARK    5  A    between atoms: C_6  and  C_7
REMARK                            x       y       z     vdW  Elec       q    Type
REMARK                         _______ _______ _______ _____ _____    ______ ____
ROOT
ATOM      1  N   UNL     1       5.759   4.322  16.774  0.00  0.00    +0.000 N 
ENDROOT
BRANCH   1   2
ATOM      2  C   UNL     1       4.416   4.488  17.242  0.00  0.00    +0.000 A 
ATOM      3  C   UNL     1       3.595   3.361  17.315  0.00  0.00    +0.000 A 
ATOM      4  C   UNL     1       2.251   3.497  17.661  0.00  0.00    +0.000 A 
ATOM      5  C   UNL     1       1.732   4.757  17.950  0.00  0.00    +0.000 A 
ATOM      6  C   UNL     1       2.559   5.878  17.913  0.00  0.00    +0.000 A 
ATOM      7  C   UNL     1       3.906   5.744  17.566  0.00  0.00    +0.000 A 
ENDBRANCH   1   2
BRANCH   1   9
ATOM      8  C   UNL     1       7.155   6.550  17.230  0.00  0.00    +0.000 C 
ATOM      9  S   UNL     1       7.018   4.854  17.767  0.00  0.00    +0.000 S 
ATOM     10  O   UNL     1       8.236   4.178  17.393  0.00  0.00    +0.000 OA
ATOM     11  O   UNL     1       6.586   4.865  19.150  0.00  0.00    +0.000 OA
ENDBRANCH   1   9
BRANCH   1  12
ATOM     12  C   UNL     1       6.016   3.575  15.527  0.00  0.00    +0.000 C 
BRANCH  12  13
ATOM     13  C   UNL     1       6.084   4.438  14.263  0.00  0.00    +0.000 C 
ATOM     14  C   UNL     1       7.448   5.003  13.785  0.00  0.00    +0.000 C 
ATOM     15  C   UNL     1       7.090   4.566  12.356  0.00  0.00    +0.000 C 
ATOM     16  C   UNL     1       6.069   3.591  12.962  0.00  0.00    +0.000 C 
ENDBRANCH  12  13
ENDBRANCH   1  12
TORSDOF 4
ENDMDL
MODEL 4
REMARK VINA RESULT:      -6.6      0.806      1.457
REMARK  Name = 
REMARK  5 active torsions:
REMARK  status: ('A' for Active; 'I' for Inactive)
REMARK    1  A    between atoms: C_1  and  S_2
REMARK    2  A    between atoms: S_2  and  N_5
REMARK    3  A    between atoms: N_5  and  C_6
REMARK    4  A    between atoms: N_5  and  C_11
REMARK    5  A    between atoms: C_6  and  C_7
REMARK                            x       y       z     vdW  Elec       q    Type
REMARK                         _______ _______ _______ _____ _____    ______ ____
ROOT
ATOM      1  N   UNL     1       5.062   4.932  17.097  0.00  0.00    +0.000 N 
ENDROOT
BRANCH   1   2
ATOM      2  C   UNL     1       3.906   4.174  17.468  0.00  0.00    +0.000 A 
ATOM      3  C   UNL     1       2.711   4.858  17.702  0.00  0.00    +0.000 A 
ATOM      4  C   UNL     1       1.593   4.169  18.172  0.00  0.00    +0.000 A 
ATOM      5  C   UNL     1       1.663   2.796  18.390  0.00  0.00    +0.000 A 
ATOM      6  C   UNL     1       2.844   2.106  18.122  0.00  0.00    +0.000 A 
ATOM      7  C   UNL     1       3.966   2.793  17.653  0.00  0.00    +0.000 A 
ENDBRANCH   1   2
BRANCH   1   9
ATOM      8  C   UNL     1       6.874   6.790  17.716  0.00  0.00    +0.000 C 
ATOM      9  S   UNL     1       6.236   5.221  18.277  0.00  0.00    +0.000 S 
ATOM     10  O   UNL     1       7.292   4.248  18.145  0.00  0.00    +0.000 OA
ATOM     11  O   UNL     1       5.602   5.439  19.562  0.00  0.00    +0.000 OA
ENDBRANCH   1   9
BRANCH   1  12
ATOM     12  C   UNL     1       5.269   5.313  15.686  0.00  0.00    +0.000 C 
BRANCH  12  13
ATOM     13  C   UNL     1       5.923   4.233  14.818  0.00  0.00    +0.000 C 
ATOM     14  C   UNL     1       5.269   3.822  13.472  0.00  0.00    +0.000 C 
ATOM     15  C   UNL     1       6.656   3.890  12.815  0.00  0.00    +0.000 C 
ATOM     16  C   UNL     1       7.111   4.781  13.980  0.00  0.00    +0.000 C 
ENDBRANCH  12  13
ENDBRANCH   1  12
TORSDOF 4
ENDMDL
MODEL 5
REMARK VINA RESULT:      -6.6      2.578      5.208
REMARK  Name = 
REMARK  5 active torsions:
REMARK  status: ('A' for Active; 'I' for Inactive)
REMARK    1  A    between atoms: C_1  and  S_2
REMARK    2  A    between atoms: S_2  and  N_5
REMARK    3  A    between atoms: N_5  and  C_6
REMARK    4  A    between atoms: N_5  and  C_11
REMARK    5  A    between atoms: C_6  and  C_7
REMARK                            x       y       z     vdW  Elec       q    Type
REMARK                         _______ _______ _______ _____ _____    ______ ____
ROOT
ATOM      1  N   UNL     1       4.303   4.166  18.879  0.00  0.00    +0.000 N 
ENDROOT
BRANCH   1   2
ATOM      2  C   UNL     1       5.184   4.225  17.752  0.00  0.00    +0.000 A 
ATOM      3  C   UNL     1       6.523   4.556  17.973  0.00  0.00    +0.000 A 
ATOM      4  C   UNL     1       7.386   4.731  16.892  0.00  0.00    +0.000 A 
ATOM      5  C   UNL     1       6.917   4.558  15.592  0.00  0.00    +0.000 A 
ATOM      6  C   UNL     1       5.590   4.192  15.372  0.00  0.00    +0.000 A 
ATOM      7  C   UNL     1       4.722   4.017  16.453  0.00  0.00    +0.000 A 
ENDBRANCH   1   2
BRANCH   1   9
ATOM      8  C   UNL     1       2.647   3.094  20.675  0.00  0.00    +0.000 C 
ATOM      9  S   UNL     1       3.925   2.647  19.514  0.00  0.00    +0.000 S 
ATOM     10  O   UNL     1       5.050   2.155  20.270  0.00  0.00    +0.000 OA
ATOM     11  O   UNL     1       3.318   1.820  18.489  0.00  0.00    +0.000 OA
ENDBRANCH   1   9
BRANCH   1  12
ATOM     12  C   UNL     1       3.868   5.413  19.538  0.00  0.00    +0.000 C 
BRANCH  12  13
ATOM     13  C   UNL     1       2.831   6.226  18.756  0.00  0.00    +0.000 C 
ATOM     14  C   UNL     1       2.151   7.453  19.419  0.00  0.00    +0.000 C 
ATOM     15  C   UNL     1       2.392   8.244  18.124  0.00  0.00    +0.000 C 
ATOM     16  C   UNL     1       3.483   7.225  17.763  0.00  0.00    +0.000 C 
ENDBRANCH  12  13
ENDBRANCH   1  12
TORSDOF 4
ENDMDL
MODEL 6
REMARK VINA RESULT:      -6.5      0.766      1.610
REMARK  Name = 
REMARK  5 active torsions:
REMARK  status: ('A' for Active; 'I' for Inactive)
REMARK    1  A    between atoms: C_1  and  S_2
REMARK    2  A    between atoms: S_2  and  N_5
REMARK    3  A    between atoms: N_5  and  C_6
REMARK    4  A    between atoms: N_5  and  C_11
REMARK    5  A    between atoms: C_6  and  C_7
REMARK                            x       y       z     vdW  Elec       q    Type
REMARK                         _______ _______ _______ _____ _____    ______ ____
ROOT
ATOM      1  N   UNL     1       5.792   4.332  16.975  0.00  0.00    +0.000 N 
ENDROOT
BRANCH   1   2
ATOM      2  C   UNL     1       4.453   4.495  17.454  0.00  0.00    +0.000 A 
ATOM      3  C   UNL     1       3.895   5.775  17.441  0.00  0.00    +0.000 A 
ATOM      4  C   UNL     1       2.636   5.993  18.000  0.00  0.00    +0.000 A 
ATOM      5  C   UNL     1       1.928   4.930  18.555  0.00  0.00    +0.000 A 
ATOM      6  C   UNL     1       2.469   3.646  18.536  0.00  0.00    +0.000 A 
ATOM      7  C   UNL     1       3.730   3.424  17.978  0.00  0.00    +0.000 A 
ENDBRANCH   1   2
BRANCH   1   9
ATOM      8  C   UNL     1       7.257   6.524  17.390  0.00  0.00    +0.000 C 
ATOM      9  S   UNL     1       7.060   4.848  17.967  0.00  0.00    +0.000 S 
ATOM     10  O   UNL     1       8.258   4.123  17.621  0.00  0.00    +0.000 OA
ATOM     11  O   UNL     1       6.616   4.907  19.345  0.00  0.00    +0.000 OA
ENDBRANCH   1   9
BRANCH   1  12
ATOM     12  C   UNL     1       6.039   3.602  15.716  0.00  0.00    +0.000 C 
BRANCH  12  13
ATOM     13  C   UNL     1       6.066   4.478  14.460  0.00  0.00    +0.000 C 
ATOM     14  C   UNL     1       7.407   5.084  13.967  0.00  0.00    +0.000 C 
ATOM     15  C   UNL     1       7.041   4.650  12.540  0.00  0.00    +0.000 C 
ATOM     16  C   UNL     1       6.056   3.642  13.151  0.00  0.00    +0.000 C 
ENDBRANCH  12  13
ENDBRANCH   1  12
TORSDOF 4
ENDMDL
MODEL 7
REMARK VINA RESULT:      -6.5      2.705      4.803
REMARK  Name = 
REMARK  5 active torsions:
REMARK  status: ('A' for Active; 'I' for Inactive)
REMARK    1  A    between atoms: C_1  and  S_2
REMARK    2  A    between atoms: S_2  and  N_5
REMARK    3  A    between atoms: N_5  and  C_6
REMARK    4  A    between atoms: N_5  and  C_11
REMARK    5  A    between atoms: C_6  and  C_7
REMARK                            x       y       z     vdW  Elec       q    Type
REMARK                         _______ _______ _______ _____ _____    ______ ____
ROOT
ATOM      1  N   UNL     1       3.926   5.351  18.777  0.00  0.00    +0.000 N 
ENDROOT
BRANCH   1   2
ATOM      2  C   UNL     1       2.777   4.560  19.099  0.00  0.00    +0.000 A 
ATOM      3  C   UNL     1       2.342   4.532  20.426  0.00  0.00    +0.000 A 
ATOM      4  C   UNL     1       1.296   3.689  20.800  0.00  0.00    +0.000 A 
ATOM      5  C   UNL     1       0.673   2.888  19.846  0.00  0.00    +0.000 A 
ATOM      6  C   UNL     1       1.082   2.942  18.515  0.00  0.00    +0.000 A 
ATOM      7  C   UNL     1       2.131   3.785  18.137  0.00  0.00    +0.000 A 
ENDBRANCH   1   2
BRANCH   1   9
ATOM      8  C   UNL     1       5.959   4.524  17.260  0.00  0.00    +0.000 C 
ATOM      9  S   UNL     1       5.452   4.651  18.966  0.00  0.00    +0.000 S 
ATOM     10  O   UNL     1       5.301   3.312  19.477  0.00  0.00    +0.000 OA
ATOM     11  O   UNL     1       6.346   5.585  19.621  0.00  0.00    +0.000 OA
ENDBRANCH   1   9
BRANCH   1  12
ATOM     12  C   UNL     1       3.752   6.682  18.162  0.00  0.00    +0.000 C 
BRANCH  12  13
ATOM     13  C   UNL     1       2.359   7.295  18.337  0.00  0.00    +0.000 C 
ATOM     14  C   UNL     1       1.987   7.999  19.669  0.00  0.00    +0.000 C 
ATOM     15  C   UNL     1       1.383   9.152  18.852  0.00  0.00    +0.000 C 
ATOM     16  C   UNL     1       2.231   8.686  17.660  0.00  0.00    +0.000 C 
ENDBRANCH  12  13
ENDBRANCH   1  12
TORSDOF 4
ENDMDL
MODEL 8
REMARK VINA RESULT:      -6.4      1.201      2.040
REMARK  Name = 
REMARK  5 active torsions:
REMARK  status: ('A' for Active; 'I' for Inactive)
REMARK    1  A    between atoms: C_1  and  S_2
REMARK    2  A    between atoms: S_2  and  N_5
REMARK    3  A    between atoms: N_5  and  C_6
REMARK    4  A    between atoms: N_5  and  C_11
REMARK    5  A    between atoms: C_6  and  C_7
REMARK                            x       y       z     vdW  Elec       q    Type
REMARK                         _______ _______ _______ _____ _____    ______ ____
ROOT
ATOM      1  N   UNL     1       5.853   4.777  16.518  0.00  0.00    +0.000 N 
ENDROOT
BRANCH   1   2
ATOM      2  C   UNL     1       4.609   5.224  17.067  0.00  0.00    +0.000 A 
ATOM      3  C   UNL     1       4.396   6.598  17.196  0.00  0.00    +0.000 A 
ATOM      4  C   UNL     1       3.245   7.071  17.826  0.00  0.00    +0.000 A 
ATOM      5  C   UNL     1       2.300   6.171  18.311  0.00  0.00    +0.000 A 
ATOM      6  C   UNL     1       2.494   4.800  18.151  0.00  0.00    +0.000 A 
ATOM      7  C   UNL     1       3.646   4.324  17.521  0.00  0.00    +0.000 A 
ENDBRANCH   1   2
BRANCH   1   9
ATOM      8  C   UNL     1       6.708   5.372  18.975  0.00  0.00    +0.000 C 
ATOM      9  S   UNL     1       7.280   5.252  17.289  0.00  0.00    +0.000 S 
ATOM     10  O   UNL     1       7.636   6.580  16.854  0.00  0.00    +0.000 OA
ATOM     11  O   UNL     1       8.253   4.180  17.231  0.00  0.00    +0.000 OA
ENDBRANCH   1   9
BRANCH   1  12
ATOM     12  C   UNL     1       5.859   3.814  15.399  0.00  0.00    +0.000 C 
BRANCH  12  13
ATOM     13  C   UNL     1       5.991   4.444  14.009  0.00  0.00    +0.000 C 
ATOM     14  C   UNL     1       7.392   4.832  13.465  0.00  0.00    +0.000 C 
ATOM     15  C   UNL     1       7.015   4.182  12.125  0.00  0.00    +0.000 C 
ATOM     16  C   UNL     1       5.930   3.391  12.870  0.00  0.00    +0.000 C 
ENDBRANCH  12  13
ENDBRANCH   1  12
TORSDOF 4
ENDMDL
MODEL 9
REMARK VINA RESULT:      -6.3      1.266      2.056
REMARK  Name = 
REMARK  5 active torsions:
REMARK  status: ('A' for Active; 'I' for Inactive)
REMARK    1  A    between atoms: C_1  and  S_2
REMARK    2  A    between atoms: S_2  and  N_5
REMARK    3  A    between atoms: N_5  and  C_6
REMARK    4  A    between atoms: N_5  and  C_11
REMARK    5  A    between atoms: C_6  and  C_7
REMARK                            x       y       z     vdW  Elec       q    Type
REMARK                         _______ _______ _______ _____ _____    ______ ____
ROOT
ATOM      1  N   UNL     1       5.175   4.277  17.033  0.00  0.00    +0.000 N 
ENDROOT
BRANCH   1   2
ATOM      2  C   UNL     1       3.870   3.852  17.438  0.00  0.00    +0.000 A 
ATOM      3  C   UNL     1       2.852   4.805  17.501  0.00  0.00    +0.000 A 
ATOM      4  C   UNL     1       1.595   4.454  17.994  0.00  0.00    +0.000 A 
ATOM      5  C   UNL     1       1.352   3.147  18.409  0.00  0.00    +0.000 A 
ATOM      6  C   UNL     1       2.357   2.186  18.312  0.00  0.00    +0.000 A 
ATOM      7  C   UNL     1       3.616   2.535  17.819  0.00  0.00    +0.000 A 
ENDBRANCH   1   2
BRANCH   1   9
ATOM      8  C   UNL     1       7.648   4.781  17.899  0.00  0.00    +0.000 C 
ATOM      9  S   UNL     1       5.980   5.404  18.000  0.00  0.00    +0.000 S 
ATOM     10  O   UNL     1       5.541   5.259  19.366  0.00  0.00    +0.000 OA
ATOM     11  O   UNL     1       5.959   6.706  17.363  0.00  0.00    +0.000 OA
ENDBRANCH   1   9
BRANCH   1  12
ATOM     12  C   UNL     1       5.837   3.627  15.884  0.00  0.00    +0.000 C 
BRANCH  12  13
ATOM     13  C   UNL     1       5.914   4.485  14.617  0.00  0.00    +0.000 C 
ATOM     14  C   UNL     1       7.287   5.015  14.124  0.00  0.00    +0.000 C 
ATOM     15  C   UNL     1       6.904   4.584  12.700  0.00  0.00    +0.000 C 
ATOM     16  C   UNL     1       5.866   3.636  13.318  0.00  0.00    +0.000 C 
ENDBRANCH  12  13
ENDBRANCH   1  12
TORSDOF 4
ENDMDL
