MODEL 1
REMARK VINA RESULT:      -8.0      0.000      0.000
REMARK  Name = 
REMARK  8 active torsions:
REMARK  status: ('A' for Active; 'I' for Inactive)
REMARK    1  A    between atoms: C_1  and  C_2
REMARK    2  A    between atoms: C_5  and  S_6
REMARK    3  A    between atoms: S_6  and  N_9
REMARK    4  A    between atoms: N_9  and  C_10
REMARK    5  A    between atoms: N_9  and  C_18
REMARK    6  A    between atoms: C_10  and  C_11
REMARK    7  A    between atoms: C_11  and  C_12
REMARK    8  A    between atoms: C_18  and  C_19
REMARK                            x       y       z     vdW  Elec       q    Type
REMARK                         _______ _______ _______ _____ _____    ______ ____
ROOT
ATOM      1  N   UNL     1       5.580   4.246  17.096  0.00  0.00    +0.000 NA
ENDROOT
BRANCH   1   2
ATOM      2  S   UNL     1       5.694   5.594  18.171  0.00  0.00    +0.000 S 
ATOM      3  O   UNL     1       6.571   6.571  17.564  0.00  0.00    +0.000 OA
ATOM      4  O   UNL     1       5.941   5.089  19.504  0.00  0.00    +0.000 OA
BRANCH   2   9
ATOM      5  C   UNL     1       1.051   9.157  19.455  0.00  0.00    +0.000 C 
ATOM      6  C   UNL     1       2.026   8.106  19.006  0.00  0.00    +0.000 A 
ATOM      7  C   UNL     1       2.312   6.995  19.812  0.00  0.00    +0.000 A 
ATOM      8  C   UNL     1       3.336   6.108  19.463  0.00  0.00    +0.000 A 
ATOM      9  C   UNL     1       4.077   6.330  18.299  0.00  0.00    +0.000 A 
ATOM     10  C   UNL     1       3.757   7.398  17.454  0.00  0.00    +0.000 A 
ATOM     11  C   UNL     1       2.736   8.284  17.810  0.00  0.00    +0.000 A 
ENDBRANCH   2   9
ENDBRANCH   1   2
BRANCH   1  12
ATOM     12  C   UNL     1       5.027   3.004  17.733  0.00  0.00    +0.000 C 
BRANCH  12  13
ATOM     13  C   UNL     1       3.498   2.829  17.639  0.00  0.00    +0.000 C 
BRANCH  13  14
ATOM     14  C   UNL     1       2.696   2.777  18.918  0.00  0.00    +0.000 A 
ATOM     15  C   UNL     1       3.318   2.526  20.146  0.00  0.00    +0.000 A 
ATOM     16  C   UNL     1       2.609   2.666  21.342  0.00  0.00    +0.000 A 
ATOM     17  C   UNL     1       1.272   3.055  21.325  0.00  0.00    +0.000 A 
ATOM     18  C   UNL     1       0.632   3.279  20.108  0.00  0.00    +0.000 A 
ATOM     19  C   UNL     1       1.339   3.139  18.911  0.00  0.00    +0.000 A 
ENDBRANCH  13  14
ENDBRANCH  12  13
ENDBRANCH   1  12
BRANCH   1  20
ATOM     20  C   UNL     1       4.929   4.630  15.794  0.00  0.00    +0.000 C 
BRANCH  20  21
ATOM     21  C   UNL     1       5.742   4.403  14.532  0.00  0.00    +0.000 A 
ATOM     22  C   UNL     1       6.975   5.054  14.360  0.00  0.00    +0.000 A 
ATOM     23  C   UNL     1       7.684   4.958  13.164  0.00  0.00    +0.000 A 
ATOM     24  C   UNL     1       7.192   4.171  12.130  0.00  0.00    +0.000 A 
ATOM     25  C   UNL     1       5.998   3.472  12.300  0.00  0.00    +0.000 A 
ATOM     26  C   UNL     1       5.277   3.588  13.492  0.00  0.00    +0.000 A 
ENDBRANCH  20  21
ENDBRANCH   1  20
TORSDOF 7
ENDMDL
MODEL 2
REMARK VINA RESULT:      -7.9      1.104      4.048
REMARK  Name = 
REMARK  8 active torsions:
REMARK  status: ('A' for Active; 'I' for Inactive)
REMARK    1  A    between atoms: C_1  and  C_2
REMARK    2  A    between atoms: C_5  and  S_6
REMARK    3  A    between atoms: S_6  and  N_9
REMARK    4  A    between atoms: N_9  and  C_10
REMARK    5  A    between atoms: N_9  and  C_18
REMARK    6  A    between atoms: C_10  and  C_11
REMARK    7  A    between atoms: C_11  and  C_12
REMARK    8  A    between atoms: C_18  and  C_19
REMARK                            x       y       z     vdW  Elec       q    Type
REMARK                         _______ _______ _______ _____ _____    ______ ____
ROOT
ATOM      1  N   UNL     1       5.492   5.635  16.966  0.00  0.00    +0.000 NA
ENDROOT
BRANCH   1   2
ATOM      2  S   UNL     1       5.833   4.792  18.434  0.00  0.00    +0.000 S 
ATOM      3  O   UNL     1       5.812   5.755  19.513  0.00  0.00    +0.000 OA
ATOM      4  O   UNL     1       6.981   3.941  18.210  0.00  0.00    +0.000 OA
BRANCH   2   9
ATOM      5  C   UNL     1       0.484   2.139  18.931  0.00  0.00    +0.000 C 
ATOM      6  C   UNL     1       1.925   2.564  18.902  0.00  0.00    +0.000 A 
ATOM      7  C   UNL     1       2.519   3.176  20.015  0.00  0.00    +0.000 A 
ATOM      8  C   UNL     1       3.807   3.714  19.927  0.00  0.00    +0.000 A 
ATOM      9  C   UNL     1       4.509   3.635  18.721  0.00  0.00    +0.000 A 
ATOM     10  C   UNL     1       3.951   2.969  17.624  0.00  0.00    +0.000 A 
ATOM     11  C   UNL     1       2.662   2.438  17.716  0.00  0.00    +0.000 A 
ENDBRANCH   2   9
ENDBRANCH   1   2
BRANCH   1  12
ATOM     12  C   UNL     1       4.719   6.909  17.159  0.00  0.00    +0.000 C 
BRANCH  12  13
ATOM     13  C   UNL     1       3.209   6.741  17.418  0.00  0.00    +0.000 C 
BRANCH  13  14
ATOM     14  C   UNL     1       2.533   7.674  18.395  0.00  0.00    +0.000 A 
ATOM     15  C   UNL     1       1.979   8.885  17.964  0.00  0.00    +0.000 A 
ATOM     16  C   UNL     1       1.193   9.653  18.827  0.00  0.00    +0.000 A 
ATOM     17  C   UNL     1       0.954   9.221  20.131  0.00  0.00    +0.000 A 
ATOM     18  C   UNL     1       1.524   8.034  20.582  0.00  0.00    +0.000 A 
ATOM     19  C   UNL     1       2.311   7.265  19.720  0.00  0.00    +0.000 A 
ENDBRANCH  13  14
ENDBRANCH  12  13
ENDBRANCH   1  12
BRANCH   1  20
ATOM     20  C   UNL     1       6.719   5.768  16.104  0.00  0.00    +0.000 C 
BRANCH  20  21
ATOM     21  C   UNL     1       6.698   5.045  14.769  0.00  0.00    +0.000 A 
ATOM     22  C   UNL     1       7.663   5.340  13.792  0.00  0.00    +0.000 A 
ATOM     23  C   UNL     1       7.597   4.779  12.518  0.00  0.00    +0.000 A 
ATOM     24  C   UNL     1       6.586   3.876  12.211  0.00  0.00    +0.000 A 
ATOM     25  C   UNL     1       5.651   3.528  13.183  0.00  0.00    +0.000 A 
ATOM     26  C   UNL     1       5.705   4.109  14.454  0.00  0.00    +0.000 A 
ENDBRANCH  20  21
ENDBRANCH   1  20
TORSDOF 7
ENDMDL
MODEL 3
REMARK VINA RESULT:      -7.8      0.937      6.204
REMARK  Name = 
REMARK  8 active torsions:
REMARK  status: ('A' for Active; 'I' for Inactive)
REMARK    1  A    between atoms: C_1  and  C_2
REMARK    2  A    between atoms: C_5  and  S_6
REMARK    3  A    between atoms: S_6  and  N_9
REMARK    4  A    between atoms: N_9  and  C_10
REMARK    5  A    between atoms: N_9  and  C_18
REMARK    6  A    between atoms: C_10  and  C_11
REMARK    7  A    between atoms: C_11  and  C_12
REMARK    8  A    between atoms: C_18  and  C_19
REMARK                            x       y       z     vdW  Elec       q    Type
REMARK                         _______ _______ _______ _____ _____    ______ ____
ROOT
ATOM      1  N   UNL     1       3.915   4.570  17.282  0.00  0.00    +0.000 NA
ENDROOT
BRANCH   1   2
ATOM      2  S   UNL     1       4.414   6.097  17.920  0.00  0.00    +0.000 S 
ATOM      3  O   UNL     1       5.001   6.857  16.839  0.00  0.00    +0.000 OA
ATOM      4  O   UNL     1       5.137   5.858  19.149  0.00  0.00    +0.000 OA
BRANCH   2   9
ATOM      5  C   UNL     1       0.591   9.987  20.401  0.00  0.00    +0.000 C 
ATOM      6  C   UNL     1       1.321   8.879  19.696  0.00  0.00    +0.000 A 
ATOM      7  C   UNL     1       1.676   7.703  20.373  0.00  0.00    +0.000 A 
ATOM      8  C   UNL     1       2.493   6.749  19.759  0.00  0.00    +0.000 A 
ATOM      9  C   UNL     1       2.955   6.967  18.458  0.00  0.00    +0.000 A 
ATOM     10  C   UNL     1       2.554   8.105  17.750  0.00  0.00    +0.000 A 
ATOM     11  C   UNL     1       1.741   9.058  18.370  0.00  0.00    +0.000 A 
ENDBRANCH   2   9
ENDBRANCH   1   2
BRANCH   1  12
ATOM     12  C   UNL     1       4.364   4.324  15.870  0.00  0.00    +0.000 C 
BRANCH  12  13
ATOM     13  C   UNL     1       5.836   3.899  15.701  0.00  0.00    +0.000 C 
BRANCH  13  14
ATOM     14  C   UNL     1       6.492   4.077  14.353  0.00  0.00    +0.000 A 
ATOM     15  C   UNL     1       6.053   3.348  13.240  0.00  0.00    +0.000 A 
ATOM     16  C   UNL     1       6.530   3.651  11.962  0.00  0.00    +0.000 A 
ATOM     17  C   UNL     1       7.450   4.681  11.780  0.00  0.00    +0.000 A 
ATOM     18  C   UNL     1       7.917   5.394  12.882  0.00  0.00    +0.000 A 
ATOM     19  C   UNL     1       7.442   5.093  14.161  0.00  0.00    +0.000 A 
ENDBRANCH  13  14
ENDBRANCH  12  13
ENDBRANCH   1  12
BRANCH   1  20
ATOM     20  C   UNL     1       4.207   3.446  18.241  0.00  0.00    +0.000 C 
BRANCH  20  21
ATOM     21  C   UNL     1       3.148   3.150  19.287  0.00  0.00    +0.000 A 
ATOM     22  C   UNL     1       1.786   3.249  18.959  0.00  0.00    +0.000 A 
ATOM     23  C   UNL     1       0.796   3.098  19.929  0.00  0.00    +0.000 A 
ATOM     24  C   UNL     1       1.150   2.801  21.239  0.00  0.00    +0.000 A 
ATOM     25  C   UNL     1       2.494   2.643  21.574  0.00  0.00    +0.000 A 
ATOM     26  C   UNL     1       3.487   2.817  20.605  0.00  0.00    +0.000 A 
ENDBRANCH  20  21
ENDBRANCH   1  20
TORSDOF 7
ENDMDL
MODEL 4
REMARK VINA RESULT:      -7.8      1.085      3.974
REMARK  Name = 
REMARK  8 active torsions:
REMARK  status: ('A' for Active; 'I' for Inactive)
REMARK    1  A    between atoms: C_1  and  C_2
REMARK    2  A    between atoms: C_5  and  S_6
REMARK    3  A    between atoms: S_6  and  N_9
REMARK    4  A    between atoms: N_9  and  C_10
REMARK    5  A    between atoms: N_9  and  C_18
REMARK    6  A    between atoms: C_10  and  C_11
REMARK    7  A    between atoms: C_11  and  C_12
REMARK    8  A    between atoms: C_18  and  C_19
REMARK                            x       y       z     vdW  Elec       q    Type
REMARK                         _______ _______ _______ _____ _____    ______ ____
ROOT
ATOM      1  N   UNL     1       5.810   5.673  16.800  0.00  0.00    +0.000 NA
ENDROOT
BRANCH   1   2
ATOM      2  S   UNL     1       6.037   4.798  18.272  0.00  0.00    +0.000 S 
ATOM      3  O   UNL     1       5.967   5.744  19.364  0.00  0.00    +0.000 OA
ATOM      4  O   UNL     1       7.178   3.925  18.107  0.00  0.00    +0.000 OA
BRANCH   2   9
ATOM      5  C   UNL     1       0.625   2.354  19.071  0.00  0.00    +0.000 C 
ATOM      6  C   UNL     1       2.070   2.705  18.855  0.00  0.00    +0.000 A 
ATOM      7  C   UNL     1       2.944   2.863  19.940  0.00  0.00    +0.000 A 
ATOM      8  C   UNL     1       4.242   3.346  19.743  0.00  0.00    +0.000 A 
ATOM      9  C   UNL     1       4.672   3.668  18.453  0.00  0.00    +0.000 A 
ATOM     10  C   UNL     1       3.830   3.452  17.356  0.00  0.00    +0.000 A 
ATOM     11  C   UNL     1       2.533   2.974  17.560  0.00  0.00    +0.000 A 
ENDBRANCH   2   9
ENDBRANCH   1   2
BRANCH   1  12
ATOM     12  C   UNL     1       5.267   7.060  16.993  0.00  0.00    +0.000 C 
BRANCH  12  13
ATOM     13  C   UNL     1       3.735   7.199  16.881  0.00  0.00    +0.000 C 
BRANCH  13  14
ATOM     14  C   UNL     1       2.959   7.651  18.095  0.00  0.00    +0.000 A 
ATOM     15  C   UNL     1       2.278   8.874  18.097  0.00  0.00    +0.000 A 
ATOM     16  C   UNL     1       1.410   9.201  19.142  0.00  0.00    +0.000 A 
ATOM     17  C   UNL     1       1.215   8.313  20.198  0.00  0.00    +0.000 A 
ATOM     18  C   UNL     1       1.909   7.106  20.224  0.00  0.00    +0.000 A 
ATOM     19  C   UNL     1       2.777   6.777  19.179  0.00  0.00    +0.000 A 
ENDBRANCH  13  14
ENDBRANCH  12  13
ENDBRANCH   1  12
BRANCH   1  20
ATOM     20  C   UNL     1       7.023   5.589  15.912  0.00  0.00    +0.000 C 
BRANCH  20  21
ATOM     21  C   UNL     1       6.820   4.990  14.533  0.00  0.00    +0.000 A 
ATOM     22  C   UNL     1       5.748   4.113  14.296  0.00  0.00    +0.000 A 
ATOM     23  C   UNL     1       5.607   3.457  13.074  0.00  0.00    +0.000 A 
ATOM     24  C   UNL     1       6.513   3.700  12.049  0.00  0.00    +0.000 A 
ATOM     25  C   UNL     1       7.552   4.608  12.245  0.00  0.00    +0.000 A 
ATOM     26  C   UNL     1       7.706   5.248  13.479  0.00  0.00    +0.000 A 
ENDBRANCH  20  21
ENDBRANCH   1  20
TORSDOF 7
ENDMDL
MODEL 5
REMARK VINA RESULT:      -7.7      0.121      1.341
REMARK  Name = 
REMARK  8 active torsions:
REMARK  status: ('A' for Active; 'I' for Inactive)
REMARK    1  A    between atoms: C_1  and  C_2
REMARK    2  A    between atoms: C_5  and  S_6
REMARK    3  A    between atoms: S_6  and  N_9
REMARK    4  A    between atoms: N_9  and  C_10
REMARK    5  A    between atoms: N_9  and  C_18
REMARK    6  A    between atoms: C_10  and  C_11
REMARK    7  A    between atoms: C_11  and  C_12
REMARK    8  A    between atoms: C_18  and  C_19
REMARK                            x       y       z     vdW  Elec       q    Type
REMARK                         _______ _______ _______ _____ _____    ______ ____
ROOT
ATOM      1  N   UNL     1       5.577   4.193  17.134  0.00  0.00    +0.000 NA
ENDROOT
BRANCH   1   2
ATOM      2  S   UNL     1       5.694   5.553  18.193  0.00  0.00    +0.000 S 
ATOM      3  O   UNL     1       6.583   6.516  17.579  0.00  0.00    +0.000 OA
ATOM      4  O   UNL     1       5.927   5.063  19.533  0.00  0.00    +0.000 OA
BRANCH   2   9
ATOM      5  C   UNL     1       1.081   9.198  19.349  0.00  0.00    +0.000 C 
ATOM      6  C   UNL     1       2.047   8.122  18.940  0.00  0.00    +0.000 A 
ATOM      7  C   UNL     1       2.331   7.046  19.793  0.00  0.00    +0.000 A 
ATOM      8  C   UNL     1       3.348   6.139  19.477  0.00  0.00    +0.000 A 
ATOM      9  C   UNL     1       4.082   6.304  18.299  0.00  0.00    +0.000 A 
ATOM     10  C   UNL     1       3.763   7.336  17.409  0.00  0.00    +0.000 A 
ATOM     11  C   UNL     1       2.749   8.242  17.733  0.00  0.00    +0.000 A 
ENDBRANCH   2   9
ENDBRANCH   1   2
BRANCH   1  12
ATOM     12  C   UNL     1       5.116   2.933  17.809  0.00  0.00    +0.000 C 
BRANCH  12  13
ATOM     13  C   UNL     1       3.600   2.662  17.755  0.00  0.00    +0.000 C 
BRANCH  13  14
ATOM     14  C   UNL     1       2.779   2.886  19.002  0.00  0.00    +0.000 A 
ATOM     15  C   UNL     1       1.408   3.157  18.920  0.00  0.00    +0.000 A 
ATOM     16  C   UNL     1       0.618   3.174  20.073  0.00  0.00    +0.000 A 
ATOM     17  C   UNL     1       1.188   2.924  21.320  0.00  0.00    +0.000 A 
ATOM     18  C   UNL     1       2.556   2.683  21.419  0.00  0.00    +0.000 A 
ATOM     19  C   UNL     1       3.347   2.665  20.268  0.00  0.00    +0.000 A 
ENDBRANCH  13  14
ENDBRANCH  12  13
ENDBRANCH   1  12
BRANCH   1  20
ATOM     20  C   UNL     1       4.836   4.537  15.869  0.00  0.00    +0.000 C 
BRANCH  20  21
ATOM     21  C   UNL     1       5.617   4.437  14.572  0.00  0.00    +0.000 A 
ATOM     22  C   UNL     1       5.123   3.663  13.509  0.00  0.00    +0.000 A 
ATOM     23  C   UNL     1       5.874   3.459  12.352  0.00  0.00    +0.000 A 
ATOM     24  C   UNL     1       7.119   4.063  12.220  0.00  0.00    +0.000 A 
ATOM     25  C   UNL     1       7.603   4.880  13.240  0.00  0.00    +0.000 A 
ATOM     26  C   UNL     1       6.858   5.065  14.408  0.00  0.00    +0.000 A 
ENDBRANCH  20  21
ENDBRANCH   1  20
TORSDOF 7
ENDMDL
MODEL 6
REMARK VINA RESULT:      -7.6      2.396      5.161
REMARK  Name = 
REMARK  8 active torsions:
REMARK  status: ('A' for Active; 'I' for Inactive)
REMARK    1  A    between atoms: C_1  and  C_2
REMARK    2  A    between atoms: C_5  and  S_6
REMARK    3  A    between atoms: S_6  and  N_9
REMARK    4  A    between atoms: N_9  and  C_10
REMARK    5  A    between atoms: N_9  and  C_18
REMARK    6  A    between atoms: C_10  and  C_11
REMARK    7  A    between atoms: C_11  and  C_12
REMARK    8  A    between atoms: C_18  and  C_19
REMARK                            x       y       z     vdW  Elec       q    Type
REMARK                         _______ _______ _______ _____ _____    ______ ____
ROOT
ATOM      1  N   UNL     1       4.391   5.254  17.592  0.00  0.00    +0.000 NA
ENDROOT
BRANCH   1   2
ATOM      2  S   UNL     1       5.978   4.574  17.646  0.00  0.00    +0.000 S 
ATOM      3  O   UNL     1       6.198   3.864  16.405  0.00  0.00    +0.000 OA
ATOM      4  O   UNL     1       6.144   3.919  18.925  0.00  0.00    +0.000 OA
BRANCH   2   9
ATOM      5  C   UNL     1       8.769   9.756  18.768  0.00  0.00    +0.000 C 
ATOM      6  C   UNL     1       8.292   8.399  18.333  0.00  0.00    +0.000 A 
ATOM      7  C   UNL     1       7.533   8.241  17.165  0.00  0.00    +0.000 A 
ATOM      8  C   UNL     1       6.957   7.004  16.854  0.00  0.00    +0.000 A 
ATOM      9  C   UNL     1       7.146   5.917  17.712  0.00  0.00    +0.000 A 
ATOM     10  C   UNL     1       7.956   6.047  18.846  0.00  0.00    +0.000 A 
ATOM     11  C   UNL     1       8.524   7.286  19.154  0.00  0.00    +0.000 A 
ENDBRANCH   2   9
ENDBRANCH   1   2
BRANCH   1  12
ATOM     12  C   UNL     1       3.362   4.354  16.969  0.00  0.00    +0.000 C 
BRANCH  12  13
ATOM     13  C   UNL     1       3.108   3.022  17.702  0.00  0.00    +0.000 C 
BRANCH  13  14
ATOM     14  C   UNL     1       2.540   3.063  19.101  0.00  0.00    +0.000 A 
ATOM     15  C   UNL     1       1.204   3.418  19.323  0.00  0.00    +0.000 A 
ATOM     16  C   UNL     1       0.632   3.271  20.590  0.00  0.00    +0.000 A 
ATOM     17  C   UNL     1       1.388   2.772  21.648  0.00  0.00    +0.000 A 
ATOM     18  C   UNL     1       2.727   2.443  21.449  0.00  0.00    +0.000 A 
ATOM     19  C   UNL     1       3.300   2.589  20.183  0.00  0.00    +0.000 A 
ENDBRANCH  13  14
ENDBRANCH  12  13
ENDBRANCH   1  12
BRANCH   1  20
ATOM     20  C   UNL     1       3.992   5.841  18.920  0.00  0.00    +0.000 C 
BRANCH  20  21
ATOM     21  C   UNL     1       3.009   6.996  18.889  0.00  0.00    +0.000 A 
ATOM     22  C   UNL     1       2.950   7.842  17.769  0.00  0.00    +0.000 A 
ATOM     23  C   UNL     1       2.142   8.978  17.763  0.00  0.00    +0.000 A 
ATOM     24  C   UNL     1       1.343   9.266  18.863  0.00  0.00    +0.000 A 
ATOM     25  C   UNL     1       1.345   8.409  19.962  0.00  0.00    +0.000 A 
ATOM     26  C   UNL     1       2.173   7.283  19.976  0.00  0.00    +0.000 A 
ENDBRANCH  20  21
ENDBRANCH   1  20
TORSDOF 7
ENDMDL
MODEL 7
REMARK VINA RESULT:      -7.6      1.446      2.414
REMARK  Name = 
REMARK  8 active torsions:
REMARK  status: ('A' for Active; 'I' for Inactive)
REMARK    1  A    between atoms: C_1  and  C_2
REMARK    2  A    between atoms: C_5  and  S_6
REMARK    3  A    between atoms: S_6  and  N_9
REMARK    4  A    between atoms: N_9  and  C_10
REMARK    5  A    between atoms: N_9  and  C_18
REMARK    6  A    between atoms: C_10  and  C_11
REMARK    7  A    between atoms: C_11  and  C_12
REMARK    8  A    between atoms: C_18  and  C_19
REMARK                            x       y       z     vdW  Elec       q    Type
REMARK                         _______ _______ _______ _____ _____    ______ ____
ROOT
ATOM      1  N   UNL     1       6.247   4.263  15.505  0.00  0.00    +0.000 NA
ENDROOT
BRANCH   1   2
ATOM      2  S   UNL     1       7.076   5.229  16.673  0.00  0.00    +0.000 S 
ATOM      3  O   UNL     1       7.711   6.324  15.971  0.00  0.00    +0.000 OA
ATOM      4  O   UNL     1       7.836   4.347  17.531  0.00  0.00    +0.000 OA
BRANCH   2   9
ATOM      5  C   UNL     1       2.085   6.386  19.779  0.00  0.00    +0.000 C 
ATOM      6  C   UNL     1       3.437   6.321  19.126  0.00  0.00    +0.000 A 
ATOM      7  C   UNL     1       3.682   6.974  17.909  0.00  0.00    +0.000 A 
ATOM      8  C   UNL     1       4.888   6.778  17.228  0.00  0.00    +0.000 A 
ATOM      9  C   UNL     1       5.857   5.928  17.768  0.00  0.00    +0.000 A 
ATOM     10  C   UNL     1       5.649   5.322  19.013  0.00  0.00    +0.000 A 
ATOM     11  C   UNL     1       4.440   5.519  19.686  0.00  0.00    +0.000 A 
ENDBRANCH   2   9
ENDBRANCH   1   2
BRANCH   1  12
ATOM     12  C   UNL     1       4.834   3.925  15.885  0.00  0.00    +0.000 C 
BRANCH  12  13
ATOM     13  C   UNL     1       4.672   2.773  16.896  0.00  0.00    +0.000 C 
BRANCH  13  14
ATOM     14  C   UNL     1       3.401   2.695  17.708  0.00  0.00    +0.000 A 
ATOM     15  C   UNL     1       3.385   2.065  18.958  0.00  0.00    +0.000 A 
ATOM     16  C   UNL     1       2.264   2.160  19.786  0.00  0.00    +0.000 A 
ATOM     17  C   UNL     1       1.145   2.882  19.375  0.00  0.00    +0.000 A 
ATOM     18  C   UNL     1       1.136   3.489  18.121  0.00  0.00    +0.000 A 
ATOM     19  C   UNL     1       2.257   3.395  17.292  0.00  0.00    +0.000 A 
ENDBRANCH  13  14
ENDBRANCH  12  13
ENDBRANCH   1  12
BRANCH   1  20
ATOM     20  C   UNL     1       6.410   4.814  14.113  0.00  0.00    +0.000 C 
BRANCH  20  21
ATOM     21  C   UNL     1       6.166   3.852  12.965  0.00  0.00    +0.000 A 
ATOM     22  C   UNL     1       4.865   3.661  12.470  0.00  0.00    +0.000 A 
ATOM     23  C   UNL     1       4.595   2.698  11.498  0.00  0.00    +0.000 A 
ATOM     24  C   UNL     1       5.632   1.937  10.971  0.00  0.00    +0.000 A 
ATOM     25  C   UNL     1       6.937   2.150  11.409  0.00  0.00    +0.000 A 
ATOM     26  C   UNL     1       7.203   3.100  12.400  0.00  0.00    +0.000 A 
ENDBRANCH  20  21
ENDBRANCH   1  20
TORSDOF 7
ENDMDL
MODEL 8
REMARK VINA RESULT:      -7.6      0.994      1.194
REMARK  Name = 
REMARK  8 active torsions:
REMARK  status: ('A' for Active; 'I' for Inactive)
REMARK    1  A    between atoms: C_1  and  C_2
REMARK    2  A    between atoms: C_5  and  S_6
REMARK    3  A    between atoms: S_6  and  N_9
REMARK    4  A    between atoms: N_9  and  C_10
REMARK    5  A    between atoms: N_9  and  C_18
REMARK    6  A    between atoms: C_10  and  C_11
REMARK    7  A    between atoms: C_11  and  C_12
REMARK    8  A    between atoms: C_18  and  C_19
REMARK                            x       y       z     vdW  Elec       q    Type
REMARK                         _______ _______ _______ _____ _____    ______ ____
ROOT
ATOM      1  N   UNL     1       5.426   4.864  17.059  0.00  0.00    +0.000 NA
ENDROOT
BRANCH   1   2
ATOM      2  S   UNL     1       5.112   6.553  16.877  0.00  0.00    +0.000 S 
ATOM      3  O   UNL     1       4.876   6.811  15.473  0.00  0.00    +0.000 OA
ATOM      4  O   UNL     1       6.121   7.282  17.615  0.00  0.00    +0.000 OA
BRANCH   2   9
ATOM      5  C   UNL     1       1.031   8.716  20.694  0.00  0.00    +0.000 C 
ATOM      6  C   UNL     1       1.842   8.031  19.631  0.00  0.00    +0.000 A 
ATOM      7  C   UNL     1       2.461   6.797  19.878  0.00  0.00    +0.000 A 
ATOM      8  C   UNL     1       3.344   6.245  18.944  0.00  0.00    +0.000 A 
ATOM      9  C   UNL     1       3.606   6.927  17.752  0.00  0.00    +0.000 A 
ATOM     10  C   UNL     1       2.944   8.126  17.467  0.00  0.00    +0.000 A 
ATOM     11  C   UNL     1       2.067   8.675  18.406  0.00  0.00    +0.000 A 
ENDBRANCH   2   9
ENDBRANCH   1   2
BRANCH   1  12
ATOM     12  C   UNL     1       4.282   3.984  16.646  0.00  0.00    +0.000 C 
BRANCH  12  13
ATOM     13  C   UNL     1       4.079   2.711  17.492  0.00  0.00    +0.000 C 
BRANCH  13  14
ATOM     14  C   UNL     1       3.076   2.743  18.621  0.00  0.00    +0.000 A 
ATOM     15  C   UNL     1       3.496   2.685  19.955  0.00  0.00    +0.000 A 
ATOM     16  C   UNL     1       2.587   2.906  20.994  0.00  0.00    +0.000 A 
ATOM     17  C   UNL     1       1.251   3.184  20.713  0.00  0.00    +0.000 A 
ATOM     18  C   UNL     1       0.814   3.215  19.391  0.00  0.00    +0.000 A 
ATOM     19  C   UNL     1       1.721   2.995  18.351  0.00  0.00    +0.000 A 
ENDBRANCH  13  14
ENDBRANCH  12  13
ENDBRANCH   1  12
BRANCH   1  20
ATOM     20  C   UNL     1       6.759   4.481  16.472  0.00  0.00    +0.000 C 
BRANCH  20  21
ATOM     21  C   UNL     1       6.836   4.384  14.959  0.00  0.00    +0.000 A 
ATOM     22  C   UNL     1       7.729   5.200  14.245  0.00  0.00    +0.000 A 
ATOM     23  C   UNL     1       7.737   5.217  12.851  0.00  0.00    +0.000 A 
ATOM     24  C   UNL     1       6.879   4.384  12.144  0.00  0.00    +0.000 A 
ATOM     25  C   UNL     1       6.023   3.527  12.834  0.00  0.00    +0.000 A 
ATOM     26  C   UNL     1       6.001   3.527  14.231  0.00  0.00    +0.000 A 
ENDBRANCH  20  21
ENDBRANCH   1  20
TORSDOF 7
ENDMDL
MODEL 9
REMARK VINA RESULT:      -7.5      0.992      5.754
REMARK  Name = 
REMARK  8 active torsions:
REMARK  status: ('A' for Active; 'I' for Inactive)
REMARK    1  A    between atoms: C_1  and  C_2
REMARK    2  A    between atoms: C_5  and  S_6
REMARK    3  A    between atoms: S_6  and  N_9
REMARK    4  A    between atoms: N_9  and  C_10
REMARK    5  A    between atoms: N_9  and  C_18
REMARK    6  A    between atoms: C_10  and  C_11
REMARK    7  A    between atoms: C_11  and  C_12
REMARK    8  A    between atoms: C_18  and  C_19
REMARK                            x       y       z     vdW  Elec       q    Type
REMARK                         _______ _______ _______ _____ _____    ______ ____
ROOT
ATOM      1  N   UNL     1       5.196   4.937  17.246  0.00  0.00    +0.000 NA
ENDROOT
BRANCH   1   2
ATOM      2  S   UNL     1       6.598   5.366  16.333  0.00  0.00    +0.000 S 
ATOM      3  O   UNL     1       7.703   4.568  16.819  0.00  0.00    +0.000 OA
ATOM      4  O   UNL     1       6.679   6.809  16.280  0.00  0.00    +0.000 OA
BRANCH   2   9
ATOM      5  C   UNL     1       6.066   2.374  11.168  0.00  0.00    +0.000 C 
ATOM      6  C   UNL     1       6.126   3.345  12.313  0.00  0.00    +0.000 A 
ATOM      7  C   UNL     1       7.310   4.032  12.617  0.00  0.00    +0.000 A 
ATOM      8  C   UNL     1       7.405   4.807  13.777  0.00  0.00    +0.000 A 
ATOM      9  C   UNL     1       6.307   4.903  14.637  0.00  0.00    +0.000 A 
ATOM     10  C   UNL     1       5.100   4.275  14.310  0.00  0.00    +0.000 A 
ATOM     11  C   UNL     1       5.013   3.498  13.153  0.00  0.00    +0.000 A 
ENDBRANCH   2   9
ENDBRANCH   1   2
BRANCH   1  12
ATOM     12  C   UNL     1       5.007   3.457  17.416  0.00  0.00    +0.000 C 
BRANCH  12  13
ATOM     13  C   UNL     1       3.545   2.978  17.522  0.00  0.00    +0.000 C 
BRANCH  13  14
ATOM     14  C   UNL     1       2.810   3.179  18.826  0.00  0.00    +0.000 A 
ATOM     15  C   UNL     1       1.496   3.660  18.842  0.00  0.00    +0.000 A 
ATOM     16  C   UNL     1       0.757   3.664  20.029  0.00  0.00    +0.000 A 
ATOM     17  C   UNL     1       1.322   3.191  21.211  0.00  0.00    +0.000 A 
ATOM     18  C   UNL     1       2.639   2.737  21.215  0.00  0.00    +0.000 A 
ATOM     19  C   UNL     1       3.380   2.732  20.030  0.00  0.00    +0.000 A 
ENDBRANCH  13  14
ENDBRANCH  12  13
ENDBRANCH   1  12
BRANCH   1  20
ATOM     20  C   UNL     1       5.098   5.734  18.520  0.00  0.00    +0.000 C 
BRANCH  20  21
ATOM     21  C   UNL     1       3.918   6.680  18.646  0.00  0.00    +0.000 A 
ATOM     22  C   UNL     1       3.112   6.652  19.796  0.00  0.00    +0.000 A 
ATOM     23  C   UNL     1       1.955   7.424  19.887  0.00  0.00    +0.000 A 
ATOM     24  C   UNL     1       1.605   8.273  18.844  0.00  0.00    +0.000 A 
ATOM     25  C   UNL     1       2.421   8.356  17.717  0.00  0.00    +0.000 A 
ATOM     26  C   UNL     1       3.569   7.565  17.617  0.00  0.00    +0.000 A 
ENDBRANCH  20  21
ENDBRANCH   1  20
TORSDOF 7
ENDMDL
