MODEL 1
REMARK VINA RESULT:      -7.0      0.000      0.000
REMARK  Name = 
REMARK  18 active torsions:
REMARK  status: ('A' for Active; 'I' for Inactive)
REMARK    1  A    between atoms: C_1  and  C_2
REMARK    2  A    between atoms: C_2  and  N_3
REMARK    3  A    between atoms: N_3  and  C_4
REMARK    4  A    between atoms: N_3  and  C_6
REMARK    5  A    between atoms: C_4  and  C_5
REMARK    6  A    between atoms: C_6  and  C_7
REMARK    7  A    between atoms: C_7  and  O_8
REMARK    8  A    between atoms: O_8  and  C_9
REMARK    9  A    between atoms: C_11  and  C_12
REMARK   10  A    between atoms: C_13  and  C_14
REMARK   11  A    between atoms: C_16  and  O_17
REMARK   12  A    between atoms: O_17  and  C_18
REMARK   13  A    between atoms: C_19  and  O_20
REMARK   14  A    between atoms: O_20  and  C_21
REMARK   15  A    between atoms: C_22  and  O_23
REMARK   16  A    between atoms: O_23  and  C_24
REMARK   17  A    between atoms: C_28  and  O_29
REMARK   18  A    between atoms: O_29  and  C_30
REMARK                            x       y       z     vdW  Elec       q    Type
REMARK                         _______ _______ _______ _____ _____    ______ ____
ROOT
ATOM      1  C   UNL     1       0.193  10.043  20.395  0.00  0.00    +0.000 A 
ATOM      2  C   UNL     1       0.971   9.963  19.225  0.00  0.00    +0.000 A 
ATOM      3  C   UNL     1       1.795   8.851  18.986  0.00  0.00    +0.000 A 
ATOM      4  C   UNL     1       1.920   7.871  19.972  0.00  0.00    +0.000 A 
ATOM      5  C   UNL     1       1.115   7.917  21.110  0.00  0.00    +0.000 A 
ATOM      6  C   UNL     1       0.185   8.950  21.270  0.00  0.00    +0.000 A 
ENDROOT
BRANCH   3   7
ATOM      7  C   UNL     1       2.342   8.586  17.654  0.00  0.00    +0.000 C 
ATOM      8  C   UNL     1       2.979   7.518  17.163  0.00  0.00    +0.000 C 
BRANCH   8   9
ATOM      9  C   UNL     1       3.319   6.261  17.821  0.00  0.00    +0.000 A 
ATOM     10  C   UNL     1       2.336   5.292  18.027  0.00  0.00    +0.000 A 
ATOM     11  C   UNL     1       2.696   4.007  18.445  0.00  0.00    +0.000 A 
ATOM     12  C   UNL     1       4.054   3.700  18.693  0.00  0.00    +0.000 A 
ATOM     13  C   UNL     1       5.040   4.701  18.536  0.00  0.00    +0.000 A 
ATOM     14  C   UNL     1       4.656   5.967  18.092  0.00  0.00    +0.000 A 
BRANCH  11  15
ATOM     15  O   UNL     1       1.787   2.988  18.614  0.00  0.00    +0.000 OA
ATOM     16  C   UNL     1       0.892   3.111  19.713  0.00  0.00    +0.000 C 
ENDBRANCH  11  15
BRANCH  12  17
ATOM     17  O   UNL     1       4.309   2.419  19.133  0.00  0.00    +0.000 OA
ATOM     18  C   UNL     1       4.380   2.245  20.544  0.00  0.00    +0.000 C 
ENDBRANCH  12  17
BRANCH  13  19
ATOM     19  O   UNL     1       6.337   4.372  18.840  0.00  0.00    +0.000 OA
ATOM     20  C   UNL     1       7.335   4.624  17.859  0.00  0.00    +0.000 C 
ENDBRANCH  13  19
ENDBRANCH   8   9
ENDBRANCH   3   7
BRANCH   6  21
ATOM     21  O   UNL     1      -0.709   8.792  22.298  0.00  0.00    +0.000 OA
ATOM     22  C   UNL     1      -0.423   9.701  23.367  0.00  0.00    +0.000 C 
ENDBRANCH   6  21
BRANCH   1  23
ATOM     23  O   UNL     1      -0.534  11.201  20.518  0.00  0.00    +0.000 OA
BRANCH  23  24
ATOM     24  C   UNL     1      -0.957  11.849  19.306  0.00  0.00    +0.000 C 
BRANCH  24  25
ATOM     25  C   UNL     1      -2.474  12.081  19.330  0.00  0.00    +0.000 C 
BRANCH  25  26
ATOM     26  N   UNL     1      -3.232  11.286  18.339  0.00  0.00    +0.000 NA
BRANCH  26  28
ATOM     27  C   UNL     1      -5.169  12.285  19.603  0.00  0.00    +0.000 C 
ATOM     28  C   UNL     1      -4.625  11.761  18.278  0.00  0.00    +0.000 C 
ENDBRANCH  26  28
BRANCH  26  29
ATOM     29  C   UNL     1      -2.579  11.152  17.031  0.00  0.00    +0.000 C 
ATOM     30  C   UNL     1      -2.827   9.847  16.281  0.00  0.00    +0.000 C 
ENDBRANCH  26  29
ENDBRANCH  25  26
ENDBRANCH  24  25
ENDBRANCH  23  24
ENDBRANCH   1  23
TORSDOF 12
ENDMDL
MODEL 2
REMARK VINA RESULT:      -6.8      2.768      8.331
REMARK  Name = 
REMARK  18 active torsions:
REMARK  status: ('A' for Active; 'I' for Inactive)
REMARK    1  A    between atoms: C_1  and  C_2
REMARK    2  A    between atoms: C_2  and  N_3
REMARK    3  A    between atoms: N_3  and  C_4
REMARK    4  A    between atoms: N_3  and  C_6
REMARK    5  A    between atoms: C_4  and  C_5
REMARK    6  A    between atoms: C_6  and  C_7
REMARK    7  A    between atoms: C_7  and  O_8
REMARK    8  A    between atoms: O_8  and  C_9
REMARK    9  A    between atoms: C_11  and  C_12
REMARK   10  A    between atoms: C_13  and  C_14
REMARK   11  A    between atoms: C_16  and  O_17
REMARK   12  A    between atoms: O_17  and  C_18
REMARK   13  A    between atoms: C_19  and  O_20
REMARK   14  A    between atoms: O_20  and  C_21
REMARK   15  A    between atoms: C_22  and  O_23
REMARK   16  A    between atoms: O_23  and  C_24
REMARK   17  A    between atoms: C_28  and  O_29
REMARK   18  A    between atoms: O_29  and  C_30
REMARK                            x       y       z     vdW  Elec       q    Type
REMARK                         _______ _______ _______ _____ _____    ______ ____
ROOT
ATOM      1  C   UNL     1       1.488   4.214  18.830  0.00  0.00    +0.000 A 
ATOM      2  C   UNL     1       1.892   5.368  18.134  0.00  0.00    +0.000 A 
ATOM      3  C   UNL     1       2.102   6.580  18.813  0.00  0.00    +0.000 A 
ATOM      4  C   UNL     1       1.799   6.659  20.173  0.00  0.00    +0.000 A 
ATOM      5  C   UNL     1       1.447   5.508  20.880  0.00  0.00    +0.000 A 
ATOM      6  C   UNL     1       1.388   4.274  20.225  0.00  0.00    +0.000 A 
ENDROOT
BRANCH   3   7
ATOM      7  C   UNL     1       2.833   7.683  18.187  0.00  0.00    +0.000 C 
ATOM      8  C   UNL     1       2.543   8.983  18.087  0.00  0.00    +0.000 C 
BRANCH   8   9
ATOM      9  C   UNL     1       1.386   9.715  18.592  0.00  0.00    +0.000 A 
ATOM     10  C   UNL     1       0.327  10.023  17.737  0.00  0.00    +0.000 A 
ATOM     11  C   UNL     1      -0.872  10.517  18.257  0.00  0.00    +0.000 A 
ATOM     12  C   UNL     1      -1.000  10.738  19.648  0.00  0.00    +0.000 A 
ATOM     13  C   UNL     1       0.094  10.475  20.504  0.00  0.00    +0.000 A 
ATOM     14  C   UNL     1       1.270   9.957  19.961  0.00  0.00    +0.000 A 
BRANCH  11  15
ATOM     15  O   UNL     1      -1.974  10.790  17.480  0.00  0.00    +0.000 OA
ATOM     16  C   UNL     1      -2.860   9.705  17.230  0.00  0.00    +0.000 C 
ENDBRANCH  11  15
BRANCH  12  17
ATOM     17  O   UNL     1      -2.207  11.258  20.064  0.00  0.00    +0.000 OA
ATOM     18  C   UNL     1      -2.269  12.674  20.187  0.00  0.00    +0.000 C 
ENDBRANCH  12  17
BRANCH  13  19
ATOM     19  O   UNL     1      -0.059  10.756  21.838  0.00  0.00    +0.000 OA
ATOM     20  C   UNL     1       0.022   9.675  22.759  0.00  0.00    +0.000 C 
ENDBRANCH  13  19
ENDBRANCH   8   9
ENDBRANCH   3   7
BRANCH   6  21
ATOM     21  O   UNL     1       1.255   3.176  21.037  0.00  0.00    +0.000 OA
ATOM     22  C   UNL     1       2.498   2.859  21.673  0.00  0.00    +0.000 C 
ENDBRANCH   6  21
BRANCH   1  23
ATOM     23  O   UNL     1       1.283   3.112  18.037  0.00  0.00    +0.000 OA
BRANCH  23  24
ATOM     24  C   UNL     1       2.373   2.687  17.202  0.00  0.00    +0.000 C 
BRANCH  24  25
ATOM     25  C   UNL     1       3.573   2.272  18.066  0.00  0.00    +0.000 C 
BRANCH  25  26
ATOM     26  N   UNL     1       4.742   3.173  17.965  0.00  0.00    +0.000 NA
BRANCH  26  28
ATOM     27  C   UNL     1       5.766   3.715  15.728  0.00  0.00    +0.000 C 
ATOM     28  C   UNL     1       4.649   3.976  16.735  0.00  0.00    +0.000 C 
ENDBRANCH  26  28
BRANCH  26  29
ATOM     29  C   UNL     1       5.023   3.952  19.179  0.00  0.00    +0.000 C 
ATOM     30  C   UNL     1       5.671   5.317  18.972  0.00  0.00    +0.000 C 
ENDBRANCH  26  29
ENDBRANCH  25  26
ENDBRANCH  24  25
ENDBRANCH  23  24
ENDBRANCH   1  23
TORSDOF 12
ENDMDL
MODEL 3
REMARK VINA RESULT:      -6.8      3.166      8.397
REMARK  Name = 
REMARK  18 active torsions:
REMARK  status: ('A' for Active; 'I' for Inactive)
REMARK    1  A    between atoms: C_1  and  C_2
REMARK    2  A    between atoms: C_2  and  N_3
REMARK    3  A    between atoms: N_3  and  C_4
REMARK    4  A    between atoms: N_3  and  C_6
REMARK    5  A    between atoms: C_4  and  C_5
REMARK    6  A    between atoms: C_6  and  C_7
REMARK    7  A    between atoms: C_7  and  O_8
REMARK    8  A    between atoms: O_8  and  C_9
REMARK    9  A    between atoms: C_11  and  C_12
REMARK   10  A    between atoms: C_13  and  C_14
REMARK   11  A    between atoms: C_16  and  O_17
REMARK   12  A    between atoms: O_17  and  C_18
REMARK   13  A    between atoms: C_19  and  O_20
REMARK   14  A    between atoms: O_20  and  C_21
REMARK   15  A    between atoms: C_22  and  O_23
REMARK   16  A    between atoms: O_23  and  C_24
REMARK   17  A    between atoms: C_28  and  O_29
REMARK   18  A    between atoms: O_29  and  C_30
REMARK                            x       y       z     vdW  Elec       q    Type
REMARK                         _______ _______ _______ _____ _____    ______ ____
ROOT
ATOM      1  C   UNL     1       4.637   5.509  19.139  0.00  0.00    +0.000 A 
ATOM      2  C   UNL     1       3.368   6.083  18.939  0.00  0.00    +0.000 A 
ATOM      3  C   UNL     1       3.168   7.057  17.946  0.00  0.00    +0.000 A 
ATOM      4  C   UNL     1       4.267   7.531  17.227  0.00  0.00    +0.000 A 
ATOM      5  C   UNL     1       5.517   6.932  17.384  0.00  0.00    +0.000 A 
ATOM      6  C   UNL     1       5.675   5.859  18.267  0.00  0.00    +0.000 A 
ENDROOT
BRANCH   3   7
ATOM      7  C   UNL     1       1.822   7.416  17.496  0.00  0.00    +0.000 C 
ATOM      8  C   UNL     1       1.010   8.411  17.865  0.00  0.00    +0.000 C 
BRANCH   8   9
ATOM      9  C   UNL     1       1.230   9.471  18.843  0.00  0.00    +0.000 A 
ATOM     10  C   UNL     1       1.512  10.769  18.414  0.00  0.00    +0.000 A 
ATOM     11  C   UNL     1       1.499  11.827  19.328  0.00  0.00    +0.000 A 
ATOM     12  C   UNL     1       1.234  11.575  20.695  0.00  0.00    +0.000 A 
ATOM     13  C   UNL     1       1.002  10.252  21.133  0.00  0.00    +0.000 A 
ATOM     14  C   UNL     1       0.995   9.218  20.195  0.00  0.00    +0.000 A 
BRANCH  11  15
ATOM     15  O   UNL     1       1.713  13.137  18.967  0.00  0.00    +0.000 OA
ATOM     16  C   UNL     1       2.928  13.416  18.280  0.00  0.00    +0.000 C 
ENDBRANCH  11  15
BRANCH  12  17
ATOM     17  O   UNL     1       1.275  12.674  21.526  0.00  0.00    +0.000 OA
ATOM     18  C   UNL     1       0.038  13.344  21.739  0.00  0.00    +0.000 C 
ENDBRANCH  12  17
BRANCH  13  19
ATOM     19  O   UNL     1       0.804  10.050  22.475  0.00  0.00    +0.000 OA
ATOM     20  C   UNL     1      -0.527   9.828  22.925  0.00  0.00    +0.000 C 
ENDBRANCH  13  19
ENDBRANCH   8   9
ENDBRANCH   3   7
BRANCH   6  21
ATOM     21  O   UNL     1       6.873   5.195  18.189  0.00  0.00    +0.000 OA
ATOM     22  C   UNL     1       7.836   5.777  19.076  0.00  0.00    +0.000 C 
ENDBRANCH   6  21
BRANCH   1  23
ATOM     23  O   UNL     1       4.696   4.602  20.167  0.00  0.00    +0.000 OA
BRANCH  23  24
ATOM     24  C   UNL     1       4.529   3.213  19.835  0.00  0.00    +0.000 C 
BRANCH  24  25
ATOM     25  C   UNL     1       3.171   2.707  20.339  0.00  0.00    +0.000 C 
BRANCH  25  26
ATOM     26  N   UNL     1       2.310   2.114  19.291  0.00  0.00    +0.000 NA
BRANCH  26  28
ATOM     27  C   UNL     1       0.842   3.899  20.295  0.00  0.00    +0.000 C 
ATOM     28  C   UNL     1       0.957   2.690  19.372  0.00  0.00    +0.000 C 
ENDBRANCH  26  28
BRANCH  26  29
ATOM     29  C   UNL     1       2.892   2.119  17.943  0.00  0.00    +0.000 C 
ATOM     30  C   UNL     1       2.481   3.271  17.032  0.00  0.00    +0.000 C 
ENDBRANCH  26  29
ENDBRANCH  25  26
ENDBRANCH  24  25
ENDBRANCH  23  24
ENDBRANCH   1  23
TORSDOF 12
ENDMDL
MODEL 4
REMARK VINA RESULT:      -6.7      2.900      8.856
REMARK  Name = 
REMARK  18 active torsions:
REMARK  status: ('A' for Active; 'I' for Inactive)
REMARK    1  A    between atoms: C_1  and  C_2
REMARK    2  A    between atoms: C_2  and  N_3
REMARK    3  A    between atoms: N_3  and  C_4
REMARK    4  A    between atoms: N_3  and  C_6
REMARK    5  A    between atoms: C_4  and  C_5
REMARK    6  A    between atoms: C_6  and  C_7
REMARK    7  A    between atoms: C_7  and  O_8
REMARK    8  A    between atoms: O_8  and  C_9
REMARK    9  A    between atoms: C_11  and  C_12
REMARK   10  A    between atoms: C_13  and  C_14
REMARK   11  A    between atoms: C_16  and  O_17
REMARK   12  A    between atoms: O_17  and  C_18
REMARK   13  A    between atoms: C_19  and  O_20
REMARK   14  A    between atoms: O_20  and  C_21
REMARK   15  A    between atoms: C_22  and  O_23
REMARK   16  A    between atoms: O_23  and  C_24
REMARK   17  A    between atoms: C_28  and  O_29
REMARK   18  A    between atoms: O_29  and  C_30
REMARK                            x       y       z     vdW  Elec       q    Type
REMARK                         _______ _______ _______ _____ _____    ______ ____
ROOT
ATOM      1  C   UNL     1       2.721   5.181  19.015  0.00  0.00    +0.000 A 
ATOM      2  C   UNL     1       2.713   6.308  18.173  0.00  0.00    +0.000 A 
ATOM      3  C   UNL     1       2.221   7.542  18.630  0.00  0.00    +0.000 A 
ATOM      4  C   UNL     1       1.637   7.616  19.896  0.00  0.00    +0.000 A 
ATOM      5  C   UNL     1       1.688   6.517  20.755  0.00  0.00    +0.000 A 
ATOM      6  C   UNL     1       2.316   5.337  20.347  0.00  0.00    +0.000 A 
ENDROOT
BRANCH   3   7
ATOM      7  C   UNL     1       2.505   8.785  17.911  0.00  0.00    +0.000 C 
ATOM      8  C   UNL     1       1.918   9.984  17.964  0.00  0.00    +0.000 C 
BRANCH   8   9
ATOM      9  C   UNL     1       0.795  10.429  18.783  0.00  0.00    +0.000 A 
ATOM     10  C   UNL     1       1.030  11.114  19.976  0.00  0.00    +0.000 A 
ATOM     11  C   UNL     1      -0.027  11.737  20.645  0.00  0.00    +0.000 A 
ATOM     12  C   UNL     1      -1.341  11.644  20.131  0.00  0.00    +0.000 A 
ATOM     13  C   UNL     1      -1.582  10.903  18.952  0.00  0.00    +0.000 A 
ATOM     14  C   UNL     1      -0.505  10.313  18.289  0.00  0.00    +0.000 A 
BRANCH  11  15
ATOM     15  O   UNL     1       0.140  12.475  21.795  0.00  0.00    +0.000 OA
ATOM     16  C   UNL     1       0.751  13.751  21.647  0.00  0.00    +0.000 C 
ENDBRANCH  11  15
BRANCH  12  17
ATOM     17  O   UNL     1      -2.323  12.261  20.876  0.00  0.00    +0.000 OA
ATOM     18  C   UNL     1      -2.721  13.555  20.437  0.00  0.00    +0.000 C 
ENDBRANCH  12  17
BRANCH  13  19
ATOM     19  O   UNL     1      -2.880  10.794  18.520  0.00  0.00    +0.000 OA
ATOM     20  C   UNL     1      -3.182   9.784  17.567  0.00  0.00    +0.000 C 
ENDBRANCH  13  19
ENDBRANCH   8   9
ENDBRANCH   3   7
BRANCH   6  21
ATOM     21  O   UNL     1       2.514   4.398  21.327  0.00  0.00    +0.000 OA
ATOM     22  C   UNL     1       1.583   3.317  21.193  0.00  0.00    +0.000 C 
ENDBRANCH   6  21
BRANCH   1  23
ATOM     23  O   UNL     1       3.193   4.034  18.427  0.00  0.00    +0.000 OA
BRANCH  23  24
ATOM     24  C   UNL     1       3.495   4.086  17.023  0.00  0.00    +0.000 C 
BRANCH  24  25
ATOM     25  C   UNL     1       4.886   3.494  16.757  0.00  0.00    +0.000 C 
BRANCH  25  26
ATOM     26  N   UNL     1       5.920   4.492  16.405  0.00  0.00    +0.000 NA
BRANCH  26  28
ATOM     27  C   UNL     1       6.028   3.981  13.940  0.00  0.00    +0.000 C 
ATOM     28  C   UNL     1       6.740   3.990  15.289  0.00  0.00    +0.000 C 
ENDBRANCH  26  28
BRANCH  26  29
ATOM     29  C   UNL     1       5.416   5.860  16.219  0.00  0.00    +0.000 C 
ATOM     30  C   UNL     1       6.040   6.936  17.101  0.00  0.00    +0.000 C 
ENDBRANCH  26  29
ENDBRANCH  25  26
ENDBRANCH  24  25
ENDBRANCH  23  24
ENDBRANCH   1  23
TORSDOF 12
ENDMDL
MODEL 5
REMARK VINA RESULT:      -6.6      0.954      1.631
REMARK  Name = 
REMARK  18 active torsions:
REMARK  status: ('A' for Active; 'I' for Inactive)
REMARK    1  A    between atoms: C_1  and  C_2
REMARK    2  A    between atoms: C_2  and  N_3
REMARK    3  A    between atoms: N_3  and  C_4
REMARK    4  A    between atoms: N_3  and  C_6
REMARK    5  A    between atoms: C_4  and  C_5
REMARK    6  A    between atoms: C_6  and  C_7
REMARK    7  A    between atoms: C_7  and  O_8
REMARK    8  A    between atoms: O_8  and  C_9
REMARK    9  A    between atoms: C_11  and  C_12
REMARK   10  A    between atoms: C_13  and  C_14
REMARK   11  A    between atoms: C_16  and  O_17
REMARK   12  A    between atoms: O_17  and  C_18
REMARK   13  A    between atoms: C_19  and  O_20
REMARK   14  A    between atoms: O_20  and  C_21
REMARK   15  A    between atoms: C_22  and  O_23
REMARK   16  A    between atoms: O_23  and  C_24
REMARK   17  A    between atoms: C_28  and  O_29
REMARK   18  A    between atoms: O_29  and  C_30
REMARK                            x       y       z     vdW  Elec       q    Type
REMARK                         _______ _______ _______ _____ _____    ______ ____
ROOT
ATOM      1  C   UNL     1      -0.285  10.188  20.063  0.00  0.00    +0.000 A 
ATOM      2  C   UNL     1       0.465   9.946  18.898  0.00  0.00    +0.000 A 
ATOM      3  C   UNL     1       1.526   9.025  18.905  0.00  0.00    +0.000 A 
ATOM      4  C   UNL     1       1.903   8.430  20.111  0.00  0.00    +0.000 A 
ATOM      5  C   UNL     1       1.134   8.626  21.258  0.00  0.00    +0.000 A 
ATOM      6  C   UNL     1      -0.012   9.426  21.206  0.00  0.00    +0.000 A 
ENDROOT
BRANCH   3   7
ATOM      7  C   UNL     1       2.092   8.510  17.657  0.00  0.00    +0.000 C 
ATOM      8  C   UNL     1       2.746   7.375  17.392  0.00  0.00    +0.000 C 
BRANCH   8   9
ATOM      9  C   UNL     1       3.090   6.276  18.287  0.00  0.00    +0.000 A 
ATOM     10  C   UNL     1       2.111   5.361  18.679  0.00  0.00    +0.000 A 
ATOM     11  C   UNL     1       2.475   4.187  19.345  0.00  0.00    +0.000 A 
ATOM     12  C   UNL     1       3.834   3.943  19.651  0.00  0.00    +0.000 A 
ATOM     13  C   UNL     1       4.816   4.897  19.300  0.00  0.00    +0.000 A 
ATOM     14  C   UNL     1       4.428   6.047  18.613  0.00  0.00    +0.000 A 
BRANCH  11  15
ATOM     15  O   UNL     1       1.570   3.218  19.711  0.00  0.00    +0.000 OA
ATOM     16  C   UNL     1       0.927   2.517  18.653  0.00  0.00    +0.000 C 
ENDBRANCH  11  15
BRANCH  12  17
ATOM     17  O   UNL     1       4.093   2.776  20.338  0.00  0.00    +0.000 OA
ATOM     18  C   UNL     1       4.504   1.664  19.551  0.00  0.00    +0.000 C 
ENDBRANCH  12  17
BRANCH  13  19
ATOM     19  O   UNL     1       6.113   4.642  19.667  0.00  0.00    +0.000 OA
ATOM     20  C   UNL     1       7.113   5.567  19.261  0.00  0.00    +0.000 C 
ENDBRANCH  13  19
ENDBRANCH   8   9
ENDBRANCH   3   7
BRANCH   6  21
ATOM     21  O   UNL     1      -0.821   9.380  22.313  0.00  0.00    +0.000 OA
ATOM     22  C   UNL     1      -0.053   9.535  23.512  0.00  0.00    +0.000 C 
ENDBRANCH   6  21
BRANCH   1  23
ATOM     23  O   UNL     1      -1.265  11.139  19.923  0.00  0.00    +0.000 OA
BRANCH  23  24
ATOM     24  C   UNL     1      -1.387  11.778  18.641  0.00  0.00    +0.000 C 
BRANCH  24  25
ATOM     25  C   UNL     1      -2.126  10.859  17.658  0.00  0.00    +0.000 C 
BRANCH  25  26
ATOM     26  N   UNL     1      -3.468  11.339  17.260  0.00  0.00    +0.000 NA
BRANCH  26  28
ATOM     27  C   UNL     1      -2.974   9.909  15.245  0.00  0.00    +0.000 C 
ATOM     28  C   UNL     1      -3.657  11.151  15.812  0.00  0.00    +0.000 C 
ENDBRANCH  26  28
BRANCH  26  29
ATOM     29  C   UNL     1      -4.571  10.832  18.086  0.00  0.00    +0.000 C 
ATOM     30  C   UNL     1      -5.938  11.466  17.853  0.00  0.00    +0.000 C 
ENDBRANCH  26  29
ENDBRANCH  25  26
ENDBRANCH  24  25
ENDBRANCH  23  24
ENDBRANCH   1  23
TORSDOF 12
ENDMDL
MODEL 6
REMARK VINA RESULT:      -6.5      3.178      9.267
REMARK  Name = 
REMARK  18 active torsions:
REMARK  status: ('A' for Active; 'I' for Inactive)
REMARK    1  A    between atoms: C_1  and  C_2
REMARK    2  A    between atoms: C_2  and  N_3
REMARK    3  A    between atoms: N_3  and  C_4
REMARK    4  A    between atoms: N_3  and  C_6
REMARK    5  A    between atoms: C_4  and  C_5
REMARK    6  A    between atoms: C_6  and  C_7
REMARK    7  A    between atoms: C_7  and  O_8
REMARK    8  A    between atoms: O_8  and  C_9
REMARK    9  A    between atoms: C_11  and  C_12
REMARK   10  A    between atoms: C_13  and  C_14
REMARK   11  A    between atoms: C_16  and  O_17
REMARK   12  A    between atoms: O_17  and  C_18
REMARK   13  A    between atoms: C_19  and  O_20
REMARK   14  A    between atoms: O_20  and  C_21
REMARK   15  A    between atoms: C_22  and  O_23
REMARK   16  A    between atoms: O_23  and  C_24
REMARK   17  A    between atoms: C_28  and  O_29
REMARK   18  A    between atoms: O_29  and  C_30
REMARK                            x       y       z     vdW  Elec       q    Type
REMARK                         _______ _______ _______ _____ _____    ______ ____
ROOT
ATOM      1  C   UNL     1       2.304   8.318  18.279  0.00  0.00    +0.000 A 
ATOM      2  C   UNL     1       1.848   9.617  17.989  0.00  0.00    +0.000 A 
ATOM      3  C   UNL     1       1.074  10.331  18.918  0.00  0.00    +0.000 A 
ATOM      4  C   UNL     1       0.667   9.698  20.094  0.00  0.00    +0.000 A 
ATOM      5  C   UNL     1       1.156   8.431  20.412  0.00  0.00    +0.000 A 
ATOM      6  C   UNL     1       2.048   7.787  19.549  0.00  0.00    +0.000 A 
ENDROOT
BRANCH   3   7
ATOM      7  C   UNL     1       0.877  11.777  18.790  0.00  0.00    +0.000 C 
ATOM      8  C   UNL     1      -0.229  12.497  18.588  0.00  0.00    +0.000 C 
BRANCH   8   9
ATOM      9  C   UNL     1      -1.610  12.050  18.440  0.00  0.00    +0.000 A 
ATOM     10  C   UNL     1      -2.524  12.252  19.476  0.00  0.00    +0.000 A 
ATOM     11  C   UNL     1      -3.888  12.036  19.258  0.00  0.00    +0.000 A 
ATOM     12  C   UNL     1      -4.338  11.579  17.998  0.00  0.00    +0.000 A 
ATOM     13  C   UNL     1      -3.403  11.323  16.969  0.00  0.00    +0.000 A 
ATOM     14  C   UNL     1      -2.051  11.573  17.205  0.00  0.00    +0.000 A 
BRANCH  11  15
ATOM     15  O   UNL     1      -4.849  12.268  20.216  0.00  0.00    +0.000 OA
ATOM     16  C   UNL     1      -4.699  13.450  20.993  0.00  0.00    +0.000 C 
ENDBRANCH  11  15
BRANCH  12  17
ATOM     17  O   UNL     1      -5.695  11.362  17.888  0.00  0.00    +0.000 OA
ATOM     18  C   UNL     1      -6.460  12.438  17.355  0.00  0.00    +0.000 C 
ENDBRANCH  12  17
BRANCH  13  19
ATOM     19  O   UNL     1      -3.881  10.829  15.782  0.00  0.00    +0.000 OA
ATOM     20  C   UNL     1      -3.025   9.987  15.020  0.00  0.00    +0.000 C 
ENDBRANCH  13  19
ENDBRANCH   8   9
ENDBRANCH   3   7
BRANCH   6  21
ATOM     21  O   UNL     1       2.644   6.655  20.045  0.00  0.00    +0.000 OA
ATOM     22  C   UNL     1       1.663   5.744  20.553  0.00  0.00    +0.000 C 
ENDBRANCH   6  21
BRANCH   1  23
ATOM     23  O   UNL     1       3.015   7.724  17.266  0.00  0.00    +0.000 OA
BRANCH  23  24
ATOM     24  C   UNL     1       4.241   7.061  17.619  0.00  0.00    +0.000 C 
BRANCH  24  25
ATOM     25  C   UNL     1       5.044   6.724  16.355  0.00  0.00    +0.000 C 
BRANCH  25  26
ATOM     26  N   UNL     1       6.284   5.955  16.603  0.00  0.00    +0.000 NA
BRANCH  26  28
ATOM     27  C   UNL     1       7.725   6.115  18.663  0.00  0.00    +0.000 C 
ATOM     28  C   UNL     1       7.232   6.773  17.378  0.00  0.00    +0.000 C 
ENDBRANCH  26  28
BRANCH  26  29
ATOM     29  C   UNL     1       6.072   4.603  17.136  0.00  0.00    +0.000 C 
ATOM     30  C   UNL     1       5.035   3.747  16.416  0.00  0.00    +0.000 C 
ENDBRANCH  26  29
ENDBRANCH  25  26
ENDBRANCH  24  25
ENDBRANCH  23  24
ENDBRANCH   1  23
TORSDOF 12
ENDMDL
MODEL 7
REMARK VINA RESULT:      -6.5      2.691      8.682
REMARK  Name = 
REMARK  18 active torsions:
REMARK  status: ('A' for Active; 'I' for Inactive)
REMARK    1  A    between atoms: C_1  and  C_2
REMARK    2  A    between atoms: C_2  and  N_3
REMARK    3  A    between atoms: N_3  and  C_4
REMARK    4  A    between atoms: N_3  and  C_6
REMARK    5  A    between atoms: C_4  and  C_5
REMARK    6  A    between atoms: C_6  and  C_7
REMARK    7  A    between atoms: C_7  and  O_8
REMARK    8  A    between atoms: O_8  and  C_9
REMARK    9  A    between atoms: C_11  and  C_12
REMARK   10  A    between atoms: C_13  and  C_14
REMARK   11  A    between atoms: C_16  and  O_17
REMARK   12  A    between atoms: O_17  and  C_18
REMARK   13  A    between atoms: C_19  and  O_20
REMARK   14  A    between atoms: O_20  and  C_21
REMARK   15  A    between atoms: C_22  and  O_23
REMARK   16  A    between atoms: O_23  and  C_24
REMARK   17  A    between atoms: C_28  and  O_29
REMARK   18  A    between atoms: O_29  and  C_30
REMARK                            x       y       z     vdW  Elec       q    Type
REMARK                         _______ _______ _______ _____ _____    ______ ____
ROOT
ATOM      1  C   UNL     1       2.914   5.216  19.036  0.00  0.00    +0.000 A 
ATOM      2  C   UNL     1       2.903   6.353  18.207  0.00  0.00    +0.000 A 
ATOM      3  C   UNL     1       2.297   7.547  18.633  0.00  0.00    +0.000 A 
ATOM      4  C   UNL     1       1.608   7.565  19.848  0.00  0.00    +0.000 A 
ATOM      5  C   UNL     1       1.658   6.459  20.697  0.00  0.00    +0.000 A 
ATOM      6  C   UNL     1       2.392   5.326  20.331  0.00  0.00    +0.000 A 
ENDROOT
BRANCH   3   7
ATOM      7  C   UNL     1       2.560   8.816  17.953  0.00  0.00    +0.000 C 
ATOM      8  C   UNL     1       1.909   9.982  17.988  0.00  0.00    +0.000 C 
BRANCH   8   9
ATOM      9  C   UNL     1       0.717  10.354  18.743  0.00  0.00    +0.000 A 
ATOM     10  C   UNL     1       0.832  10.766  20.071  0.00  0.00    +0.000 A 
ATOM     11  C   UNL     1      -0.264  11.336  20.726  0.00  0.00    +0.000 A 
ATOM     12  C   UNL     1      -1.501  11.462  20.051  0.00  0.00    +0.000 A 
ATOM     13  C   UNL     1      -1.628  10.993  18.724  0.00  0.00    +0.000 A 
ATOM     14  C   UNL     1      -0.511  10.453  18.086  0.00  0.00    +0.000 A 
BRANCH  11  15
ATOM     15  O   UNL     1      -0.206  11.815  22.014  0.00  0.00    +0.000 OA
ATOM     16  C   UNL     1      -0.759  10.982  23.026  0.00  0.00    +0.000 C 
ENDBRANCH  11  15
BRANCH  12  17
ATOM     17  O   UNL     1      -2.533  12.005  20.787  0.00  0.00    +0.000 OA
ATOM     18  C   UNL     1      -2.781  13.392  20.589  0.00  0.00    +0.000 C 
ENDBRANCH  12  17
BRANCH  13  19
ATOM     19  O   UNL     1      -2.861  11.087  18.129  0.00  0.00    +0.000 OA
ATOM     20  C   UNL     1      -3.235  10.068  17.211  0.00  0.00    +0.000 C 
ENDBRANCH  13  19
ENDBRANCH   8   9
ENDBRANCH   3   7
BRANCH   6  21
ATOM     21  O   UNL     1       2.567   4.387  21.315  0.00  0.00    +0.000 OA
ATOM     22  C   UNL     1       1.557   3.375  21.240  0.00  0.00    +0.000 C 
ENDBRANCH   6  21
BRANCH   1  23
ATOM     23  O   UNL     1       3.505   4.110  18.478  0.00  0.00    +0.000 OA
BRANCH  23  24
ATOM     24  C   UNL     1       4.886   3.867  18.794  0.00  0.00    +0.000 C 
BRANCH  24  25
ATOM     25  C   UNL     1       5.758   4.071  17.547  0.00  0.00    +0.000 C 
BRANCH  25  26
ATOM     26  N   UNL     1       6.000   5.487  17.192  0.00  0.00    +0.000 NA
BRANCH  26  28
ATOM     27  C   UNL     1       7.579   7.416  17.553  0.00  0.00    +0.000 C 
ATOM     28  C   UNL     1       7.276   5.937  17.773  0.00  0.00    +0.000 C 
ENDBRANCH  26  28
BRANCH  26  29
ATOM     29  C   UNL     1       5.839   5.798  15.765  0.00  0.00    +0.000 C 
ATOM     30  C   UNL     1       5.463   4.633  14.856  0.00  0.00    +0.000 C 
ENDBRANCH  26  29
ENDBRANCH  25  26
ENDBRANCH  24  25
ENDBRANCH  23  24
ENDBRANCH   1  23
TORSDOF 12
ENDMDL
MODEL 8
REMARK VINA RESULT:      -6.5      3.032      9.107
REMARK  Name = 
REMARK  18 active torsions:
REMARK  status: ('A' for Active; 'I' for Inactive)
REMARK    1  A    between atoms: C_1  and  C_2
REMARK    2  A    between atoms: C_2  and  N_3
REMARK    3  A    between atoms: N_3  and  C_4
REMARK    4  A    between atoms: N_3  and  C_6
REMARK    5  A    between atoms: C_4  and  C_5
REMARK    6  A    between atoms: C_6  and  C_7
REMARK    7  A    between atoms: C_7  and  O_8
REMARK    8  A    between atoms: O_8  and  C_9
REMARK    9  A    between atoms: C_11  and  C_12
REMARK   10  A    between atoms: C_13  and  C_14
REMARK   11  A    between atoms: C_16  and  O_17
REMARK   12  A    between atoms: O_17  and  C_18
REMARK   13  A    between atoms: C_19  and  O_20
REMARK   14  A    between atoms: O_20  and  C_21
REMARK   15  A    between atoms: C_22  and  O_23
REMARK   16  A    between atoms: O_23  and  C_24
REMARK   17  A    between atoms: C_28  and  O_29
REMARK   18  A    between atoms: O_29  and  C_30
REMARK                            x       y       z     vdW  Elec       q    Type
REMARK                         _______ _______ _______ _____ _____    ______ ____
ROOT
ATOM      1  C   UNL     1       2.132   7.577  18.844  0.00  0.00    +0.000 A 
ATOM      2  C   UNL     1       1.838   8.893  18.443  0.00  0.00    +0.000 A 
ATOM      3  C   UNL     1       1.153   9.769  19.301  0.00  0.00    +0.000 A 
ATOM      4  C   UNL     1       0.668   9.289  20.519  0.00  0.00    +0.000 A 
ATOM      5  C   UNL     1       0.999   8.002  20.945  0.00  0.00    +0.000 A 
ATOM      6  C   UNL     1       1.810   7.187  20.150  0.00  0.00    +0.000 A 
ENDROOT
BRANCH   3   7
ATOM      7  C   UNL     1       1.133  11.212  19.053  0.00  0.00    +0.000 C 
ATOM      8  C   UNL     1       0.119  12.045  18.799  0.00  0.00    +0.000 C 
BRANCH   8   9
ATOM      9  C   UNL     1      -1.308  11.762  18.699  0.00  0.00    +0.000 A 
ATOM     10  C   UNL     1      -2.174  12.171  19.715  0.00  0.00    +0.000 A 
ATOM     11  C   UNL     1      -3.557  12.107  19.525  0.00  0.00    +0.000 A 
ATOM     12  C   UNL     1      -4.080  11.595  18.314  0.00  0.00    +0.000 A 
ATOM     13  C   UNL     1      -3.200  11.131  17.310  0.00  0.00    +0.000 A 
ATOM     14  C   UNL     1      -1.824  11.231  17.516  0.00  0.00    +0.000 A 
BRANCH  11  15
ATOM     15  O   UNL     1      -4.467  12.545  20.460  0.00  0.00    +0.000 OA
ATOM     16  C   UNL     1      -4.445  13.934  20.766  0.00  0.00    +0.000 C 
ENDBRANCH  11  15
BRANCH  12  17
ATOM     17  O   UNL     1      -5.455  11.540  18.231  0.00  0.00    +0.000 OA
ATOM     18  C   UNL     1      -6.077  12.566  17.466  0.00  0.00    +0.000 C 
ENDBRANCH  12  17
BRANCH  13  19
ATOM     19  O   UNL     1      -3.754  10.593  16.176  0.00  0.00    +0.000 OA
ATOM     20  C   UNL     1      -2.891  10.324  15.078  0.00  0.00    +0.000 C 
ENDBRANCH  13  19
ENDBRANCH   8   9
ENDBRANCH   3   7
BRANCH   6  21
ATOM     21  O   UNL     1       2.263   6.037  20.744  0.00  0.00    +0.000 OA
ATOM     22  C   UNL     1       1.316   4.974  20.585  0.00  0.00    +0.000 C 
ENDBRANCH   6  21
BRANCH   1  23
ATOM     23  O   UNL     1       2.769   6.820  17.892  0.00  0.00    +0.000 OA
BRANCH  23  24
ATOM     24  C   UNL     1       4.028   6.227  18.253  0.00  0.00    +0.000 C 
BRANCH  24  25
ATOM     25  C   UNL     1       4.748   5.709  17.000  0.00  0.00    +0.000 C 
BRANCH  25  26
ATOM     26  N   UNL     1       4.931   4.242  16.959  0.00  0.00    +0.000 NA
BRANCH  26  28
ATOM     27  C   UNL     1       3.634   2.469  18.193  0.00  0.00    +0.000 C 
ATOM     28  C   UNL     1       3.632   3.572  17.139  0.00  0.00    +0.000 C 
ENDBRANCH  26  28
BRANCH  26  29
ATOM     29  C   UNL     1       5.714   3.752  15.817  0.00  0.00    +0.000 C 
ATOM     30  C   UNL     1       5.756   4.654  14.589  0.00  0.00    +0.000 C 
ENDBRANCH  26  29
ENDBRANCH  25  26
ENDBRANCH  24  25
ENDBRANCH  23  24
ENDBRANCH   1  23
TORSDOF 12
ENDMDL
MODEL 9
REMARK VINA RESULT:      -6.5      3.019      9.128
REMARK  Name = 
REMARK  18 active torsions:
REMARK  status: ('A' for Active; 'I' for Inactive)
REMARK    1  A    between atoms: C_1  and  C_2
REMARK    2  A    between atoms: C_2  and  N_3
REMARK    3  A    between atoms: N_3  and  C_4
REMARK    4  A    between atoms: N_3  and  C_6
REMARK    5  A    between atoms: C_4  and  C_5
REMARK    6  A    between atoms: C_6  and  C_7
REMARK    7  A    between atoms: C_7  and  O_8
REMARK    8  A    between atoms: O_8  and  C_9
REMARK    9  A    between atoms: C_11  and  C_12
REMARK   10  A    between atoms: C_13  and  C_14
REMARK   11  A    between atoms: C_16  and  O_17
REMARK   12  A    between atoms: O_17  and  C_18
REMARK   13  A    between atoms: C_19  and  O_20
REMARK   14  A    between atoms: O_20  and  C_21
REMARK   15  A    between atoms: C_22  and  O_23
REMARK   16  A    between atoms: O_23  and  C_24
REMARK   17  A    between atoms: C_28  and  O_29
REMARK   18  A    between atoms: O_29  and  C_30
REMARK                            x       y       z     vdW  Elec       q    Type
REMARK                         _______ _______ _______ _____ _____    ______ ____
ROOT
ATOM      1  C   UNL     1       2.414   7.887  18.325  0.00  0.00    +0.000 A 
ATOM      2  C   UNL     1       2.051   9.208  18.004  0.00  0.00    +0.000 A 
ATOM      3  C   UNL     1       1.357  10.006  18.929  0.00  0.00    +0.000 A 
ATOM      4  C   UNL     1       0.934   9.441  20.134  0.00  0.00    +0.000 A 
ATOM      5  C   UNL     1       1.334   8.150  20.480  0.00  0.00    +0.000 A 
ATOM      6  C   UNL     1       2.153   7.415  19.617  0.00  0.00    +0.000 A 
ENDROOT
BRANCH   3   7
ATOM      7  C   UNL     1       1.267  11.458  18.760  0.00  0.00    +0.000 C 
ATOM      8  C   UNL     1       0.208  12.261  18.622  0.00  0.00    +0.000 C 
BRANCH   8   9
ATOM      9  C   UNL     1      -1.212  11.926  18.610  0.00  0.00    +0.000 A 
ATOM     10  C   UNL     1      -2.044  12.370  19.639  0.00  0.00    +0.000 A 
ATOM     11  C   UNL     1      -3.431  12.250  19.520  0.00  0.00    +0.000 A 
ATOM     12  C   UNL     1      -3.991  11.646  18.370  0.00  0.00    +0.000 A 
ATOM     13  C   UNL     1      -3.143  11.149  17.354  0.00  0.00    +0.000 A 
ATOM     14  C   UNL     1      -1.763  11.306  17.487  0.00  0.00    +0.000 A 
BRANCH  11  15
ATOM     15  O   UNL     1      -4.311  12.715  20.470  0.00  0.00    +0.000 OA
ATOM     16  C   UNL     1      -4.133  14.060  20.897  0.00  0.00    +0.000 C 
ENDBRANCH  11  15
BRANCH  12  17
ATOM     17  O   UNL     1      -5.365  11.542  18.356  0.00  0.00    +0.000 OA
ATOM     18  C   UNL     1      -5.902  10.294  18.778  0.00  0.00    +0.000 C 
ENDBRANCH  12  17
BRANCH  13  19
ATOM     19  O   UNL     1      -3.729  10.523  16.283  0.00  0.00    +0.000 OA
ATOM     20  C   UNL     1      -2.976  10.418  15.081  0.00  0.00    +0.000 C 
ENDBRANCH  13  19
ENDBRANCH   8   9
ENDBRANCH   3   7
BRANCH   6  21
ATOM     21  O   UNL     1       2.674   6.256  20.135  0.00  0.00    +0.000 OA
ATOM     22  C   UNL     1       1.656   5.260  20.279  0.00  0.00    +0.000 C 
ENDBRANCH   6  21
BRANCH   1  23
ATOM     23  O   UNL     1       3.052   7.210  17.315  0.00  0.00    +0.000 OA
BRANCH  23  24
ATOM     24  C   UNL     1       4.436   6.877  17.513  0.00  0.00    +0.000 C 
BRANCH  24  25
ATOM     25  C   UNL     1       4.964   6.070  16.318  0.00  0.00    +0.000 C 
BRANCH  25  26
ATOM     26  N   UNL     1       4.824   4.604  16.458  0.00  0.00    +0.000 NA
BRANCH  26  28
ATOM     27  C   UNL     1       6.737   4.832  14.835  0.00  0.00    +0.000 C 
ATOM     28  C   UNL     1       5.933   3.928  15.765  0.00  0.00    +0.000 C 
ENDBRANCH  26  28
BRANCH  26  29
ATOM     29  C   UNL     1       4.593   4.138  17.832  0.00  0.00    +0.000 C 
ATOM     30  C   UNL     1       3.666   2.938  17.993  0.00  0.00    +0.000 C 
ENDBRANCH  26  29
ENDBRANCH  25  26
ENDBRANCH  24  25
ENDBRANCH  23  24
ENDBRANCH   1  23
TORSDOF 12
ENDMDL
