MODEL 1
REMARK VINA RESULT:      -7.8      0.000      0.000
REMARK  Name = 
REMARK  7 active torsions:
REMARK  status: ('A' for Active; 'I' for Inactive)
REMARK    1  A    between atoms: C_1  and  C_2
REMARK    2  A    between atoms: C_2  and  C_3
REMARK    3  A    between atoms: C_2  and  O_4
REMARK    4  A    between atoms: O_4  and  C_5
REMARK    5  A    between atoms: N_7  and  C_8
REMARK    6  A    between atoms: N_13  and  S_14
REMARK    7  A    between atoms: S_14  and  C_17
REMARK                            x       y       z     vdW  Elec       q    Type
REMARK                         _______ _______ _______ _____ _____    ______ ____
ROOT
ATOM      1  C   UNL     1       5.978   3.708  15.888  0.00  0.00    +0.000 C 
ATOM      2  C   UNL     1       7.287   4.349  16.391  0.00  0.00    +0.000 C 
ATOM      3  C   UNL     1       7.325   4.796  17.850  0.00  0.00    +0.000 C 
ATOM      4  C   UNL     1       6.379   5.954  18.134  0.00  0.00    +0.000 C 
ATOM      5  C   UNL     1       4.966   5.525  18.518  0.00  0.00    +0.000 C 
ATOM      6  N   UNL     1       4.366   4.461  17.650  0.00  0.00    +0.000 NA
ATOM      7  C   UNL     1       4.722   4.566  16.204  0.00  0.00    +0.000 C 
ENDROOT
BRANCH   1  10
ATOM      8  C   UNL     1       6.695   4.338  13.564  0.00  0.00    +0.000 C 
ATOM      9  O   UNL     1       7.200   5.410  13.861  0.00  0.00    +0.000 OA
ATOM     10  N   UNL     1       6.138   3.463  14.448  0.00  0.00    +0.000 N 
ATOM     11  H   UNL     1       5.644   2.695  14.009  0.00  0.00    +0.000 HD
BRANCH   8  12
ATOM     12  O   UNL     1       6.616   3.817  12.315  0.00  0.00    +0.000 OA
BRANCH  12  14
ATOM     13  C   UNL     1       4.413   3.340  11.407  0.00  0.00    +0.000 C 
ATOM     14  C   UNL     1       5.638   2.774  12.122  0.00  0.00    +0.000 C 
ATOM     15  C   UNL     1       6.272   1.680  11.269  0.00  0.00    +0.000 C 
ENDBRANCH  12  14
ENDBRANCH   8  12
ENDBRANCH   1  10
BRANCH   6  16
ATOM     16  S   UNL     1       2.671   4.330  17.963  0.00  0.00    +0.000 S 
ATOM     17  O   UNL     1       2.131   5.673  17.896  0.00  0.00    +0.000 OA
ATOM     18  O   UNL     1       2.172   3.296  17.076  0.00  0.00    +0.000 OA
BRANCH  16  19
ATOM     19  C   UNL     1       2.408   3.693  19.644  0.00  0.00    +0.000 C 
ATOM     20  C   UNL     1       1.595   4.561  20.559  0.00  0.00    +0.000 C 
ATOM     21  C   UNL     1       0.979   3.325  19.958  0.00  0.00    +0.000 C 
ENDBRANCH  16  19
ENDBRANCH   6  16
TORSDOF 5
ENDMDL
MODEL 2
REMARK VINA RESULT:      -7.4      1.540      1.954
REMARK  Name = 
REMARK  7 active torsions:
REMARK  status: ('A' for Active; 'I' for Inactive)
REMARK    1  A    between atoms: C_1  and  C_2
REMARK    2  A    between atoms: C_2  and  C_3
REMARK    3  A    between atoms: C_2  and  O_4
REMARK    4  A    between atoms: O_4  and  C_5
REMARK    5  A    between atoms: N_7  and  C_8
REMARK    6  A    between atoms: N_13  and  S_14
REMARK    7  A    between atoms: S_14  and  C_17
REMARK                            x       y       z     vdW  Elec       q    Type
REMARK                         _______ _______ _______ _____ _____    ______ ____
ROOT
ATOM      1  C   UNL     1       5.306   4.943  15.925  0.00  0.00    +0.000 C 
ATOM      2  C   UNL     1       5.246   6.484  15.905  0.00  0.00    +0.000 C 
ATOM      3  C   UNL     1       4.967   7.185  17.232  0.00  0.00    +0.000 C 
ATOM      4  C   UNL     1       3.565   6.907  17.759  0.00  0.00    +0.000 C 
ATOM      5  C   UNL     1       3.464   5.661  18.633  0.00  0.00    +0.000 C 
ATOM      6  N   UNL     1       4.150   4.445  18.090  0.00  0.00    +0.000 NA
ATOM      7  C   UNL     1       4.068   4.297  16.607  0.00  0.00    +0.000 C 
ENDROOT
BRANCH   1  10
ATOM      8  C   UNL     1       6.649   4.515  13.846  0.00  0.00    +0.000 C 
ATOM      9  O   UNL     1       7.732   4.837  14.312  0.00  0.00    +0.000 OA
ATOM     10  N   UNL     1       5.474   4.496  14.536  0.00  0.00    +0.000 N 
ATOM     11  H   UNL     1       4.660   4.338  13.954  0.00  0.00    +0.000 HD
BRANCH   8  12
ATOM     12  O   UNL     1       6.424   4.098  12.575  0.00  0.00    +0.000 OA
BRANCH  12  14
ATOM     13  C   UNL     1       4.312   3.413  11.589  0.00  0.00    +0.000 C 
ATOM     14  C   UNL     1       5.518   2.986  12.422  0.00  0.00    +0.000 C 
ATOM     15  C   UNL     1       6.263   1.861  11.712  0.00  0.00    +0.000 C 
ENDBRANCH  12  14
ENDBRANCH   8  12
ENDBRANCH   1  10
BRANCH   6  16
ATOM     16  S   UNL     1       3.662   3.045  18.978  0.00  0.00    +0.000 S 
ATOM     17  O   UNL     1       3.094   2.121  18.017  0.00  0.00    +0.000 OA
ATOM     18  O   UNL     1       4.804   2.653  19.783  0.00  0.00    +0.000 OA
BRANCH  16  19
ATOM     19  C   UNL     1       2.366   3.498  20.168  0.00  0.00    +0.000 C 
ATOM     20  C   UNL     1       1.009   2.904  19.925  0.00  0.00    +0.000 C 
ATOM     21  C   UNL     1       1.877   2.357  21.026  0.00  0.00    +0.000 C 
ENDBRANCH  16  19
ENDBRANCH   6  16
TORSDOF 5
ENDMDL
MODEL 3
REMARK VINA RESULT:      -7.0      2.085      2.968
REMARK  Name = 
REMARK  7 active torsions:
REMARK  status: ('A' for Active; 'I' for Inactive)
REMARK    1  A    between atoms: C_1  and  C_2
REMARK    2  A    between atoms: C_2  and  C_3
REMARK    3  A    between atoms: C_2  and  O_4
REMARK    4  A    between atoms: O_4  and  C_5
REMARK    5  A    between atoms: N_7  and  C_8
REMARK    6  A    between atoms: N_13  and  S_14
REMARK    7  A    between atoms: S_14  and  C_17
REMARK                            x       y       z     vdW  Elec       q    Type
REMARK                         _______ _______ _______ _____ _____    ______ ____
ROOT
ATOM      1  C   UNL     1       5.235   5.755  17.029  0.00  0.00    +0.000 C 
ATOM      2  C   UNL     1       4.569   7.122  16.775  0.00  0.00    +0.000 C 
ATOM      3  C   UNL     1       3.540   7.593  17.799  0.00  0.00    +0.000 C 
ATOM      4  C   UNL     1       2.288   6.727  17.815  0.00  0.00    +0.000 C 
ATOM      5  C   UNL     1       2.370   5.529  18.755  0.00  0.00    +0.000 C 
ATOM      6  N   UNL     1       3.642   4.741  18.674  0.00  0.00    +0.000 NA
ATOM      7  C   UNL     1       4.209   4.620  17.298  0.00  0.00    +0.000 C 
ENDROOT
BRANCH   1  10
ATOM      8  C   UNL     1       7.288   4.814  15.930  0.00  0.00    +0.000 C 
ATOM      9  O   UNL     1       7.769   4.316  16.937  0.00  0.00    +0.000 OA
ATOM     10  N   UNL     1       6.094   5.467  15.872  0.00  0.00    +0.000 N 
ATOM     11  H   UNL     1       5.924   5.933  14.989  0.00  0.00    +0.000 HD
BRANCH   8  12
ATOM     12  O   UNL     1       7.839   4.786  14.690  0.00  0.00    +0.000 OA
BRANCH  12  14
ATOM     13  C   UNL     1       7.695   5.379  12.339  0.00  0.00    +0.000 C 
ATOM     14  C   UNL     1       6.926   4.951  13.586  0.00  0.00    +0.000 C 
ATOM     15  C   UNL     1       6.239   3.613  13.334  0.00  0.00    +0.000 C 
ENDBRANCH  12  14
ENDBRANCH   8  12
ENDBRANCH   1  10
BRANCH   6  16
ATOM     16  S   UNL     1       3.462   3.239  19.509  0.00  0.00    +0.000 S 
ATOM     17  O   UNL     1       2.707   2.365  18.633  0.00  0.00    +0.000 OA
ATOM     18  O   UNL     1       4.788   2.859  19.955  0.00  0.00    +0.000 OA
BRANCH  16  19
ATOM     19  C   UNL     1       2.496   3.496  21.026  0.00  0.00    +0.000 C 
ATOM     20  C   UNL     1       1.072   3.024  20.991  0.00  0.00    +0.000 C 
ATOM     21  C   UNL     1       2.105   2.227  21.743  0.00  0.00    +0.000 C 
ENDBRANCH  16  19
ENDBRANCH   6  16
TORSDOF 5
ENDMDL
MODEL 4
REMARK VINA RESULT:      -7.0      3.259      7.908
REMARK  Name = 
REMARK  7 active torsions:
REMARK  status: ('A' for Active; 'I' for Inactive)
REMARK    1  A    between atoms: C_1  and  C_2
REMARK    2  A    between atoms: C_2  and  C_3
REMARK    3  A    between atoms: C_2  and  O_4
REMARK    4  A    between atoms: O_4  and  C_5
REMARK    5  A    between atoms: N_7  and  C_8
REMARK    6  A    between atoms: N_13  and  S_14
REMARK    7  A    between atoms: S_14  and  C_17
REMARK                            x       y       z     vdW  Elec       q    Type
REMARK                         _______ _______ _______ _____ _____    ______ ____
ROOT
ATOM      1  C   UNL     1       2.276   5.443  20.396  0.00  0.00    +0.000 C 
ATOM      2  C   UNL     1       1.061   4.498  20.301  0.00  0.00    +0.000 C 
ATOM      3  C   UNL     1       1.266   3.175  19.569  0.00  0.00    +0.000 C 
ATOM      4  C   UNL     1       1.528   3.361  18.081  0.00  0.00    +0.000 C 
ATOM      5  C   UNL     1       3.000   3.549  17.726  0.00  0.00    +0.000 C 
ATOM      6  N   UNL     1       3.745   4.519  18.591  0.00  0.00    +0.000 NA
ATOM      7  C   UNL     1       2.948   5.706  19.020  0.00  0.00    +0.000 C 
ENDROOT
BRANCH   1  10
ATOM      8  C   UNL     1       1.744   7.898  20.426  0.00  0.00    +0.000 C 
ATOM      9  O   UNL     1       1.983   8.106  19.246  0.00  0.00    +0.000 OA
ATOM     10  N   UNL     1       1.815   6.682  21.037  0.00  0.00    +0.000 N 
ATOM     11  H   UNL     1       1.720   6.724  22.045  0.00  0.00    +0.000 HD
BRANCH   8  12
ATOM     12  O   UNL     1       1.344   8.826  21.330  0.00  0.00    +0.000 OA
BRANCH  12  14
ATOM     13  C   UNL     1      -0.434   9.427  22.873  0.00  0.00    +0.000 C 
ATOM     14  C   UNL     1      -0.079   9.033  21.442  0.00  0.00    +0.000 C 
ATOM     15  C   UNL     1      -0.472  10.155  20.486  0.00  0.00    +0.000 C 
ENDBRANCH  12  14
ENDBRANCH   8  12
ENDBRANCH   1  10
BRANCH   6  16
ATOM     16  S   UNL     1       5.269   4.901  17.873  0.00  0.00    +0.000 S 
ATOM     17  O   UNL     1       5.280   6.335  17.659  0.00  0.00    +0.000 OA
ATOM     18  O   UNL     1       6.281   4.279  18.705  0.00  0.00    +0.000 OA
BRANCH  16  19
ATOM     19  C   UNL     1       5.405   4.084  16.256  0.00  0.00    +0.000 C 
ATOM     20  C   UNL     1       5.535   4.990  15.066  0.00  0.00    +0.000 C 
ATOM     21  C   UNL     1       6.743   4.252  15.578  0.00  0.00    +0.000 C 
ENDBRANCH  16  19
ENDBRANCH   6  16
TORSDOF 5
ENDMDL
MODEL 5
REMARK VINA RESULT:      -7.0      1.863      2.361
REMARK  Name = 
REMARK  7 active torsions:
REMARK  status: ('A' for Active; 'I' for Inactive)
REMARK    1  A    between atoms: C_1  and  C_2
REMARK    2  A    between atoms: C_2  and  C_3
REMARK    3  A    between atoms: C_2  and  O_4
REMARK    4  A    between atoms: O_4  and  C_5
REMARK    5  A    between atoms: N_7  and  C_8
REMARK    6  A    between atoms: N_13  and  S_14
REMARK    7  A    between atoms: S_14  and  C_17
REMARK                            x       y       z     vdW  Elec       q    Type
REMARK                         _______ _______ _______ _____ _____    ______ ____
ROOT
ATOM      1  C   UNL     1       5.344   4.555  16.680  0.00  0.00    +0.000 C 
ATOM      2  C   UNL     1       5.031   6.028  16.347  0.00  0.00    +0.000 C 
ATOM      3  C   UNL     1       4.410   6.872  17.456  0.00  0.00    +0.000 C 
ATOM      4  C   UNL     1       3.004   6.417  17.824  0.00  0.00    +0.000 C 
ATOM      5  C   UNL     1       2.961   5.340  18.903  0.00  0.00    +0.000 C 
ATOM      6  N   UNL     1       3.926   4.210  18.715  0.00  0.00    +0.000 NA
ATOM      7  C   UNL     1       4.132   3.801  17.294  0.00  0.00    +0.000 C 
ENDROOT
BRANCH   1  10
ATOM      8  C   UNL     1       6.841   4.397  14.669  0.00  0.00    +0.000 C 
ATOM      9  O   UNL     1       7.531   5.370  14.933  0.00  0.00    +0.000 OA
ATOM     10  N   UNL     1       5.827   3.922  15.445  0.00  0.00    +0.000 N 
ATOM     11  H   UNL     1       5.277   3.196  15.001  0.00  0.00    +0.000 HD
BRANCH   8  12
ATOM     12  O   UNL     1       6.972   3.605  13.576  0.00  0.00    +0.000 OA
BRANCH  12  14
ATOM     13  C   UNL     1       7.286   4.583  11.374  0.00  0.00    +0.000 C 
ATOM     14  C   UNL     1       6.280   4.044  12.388  0.00  0.00    +0.000 C 
ATOM     15  C   UNL     1       5.545   2.846  11.797  0.00  0.00    +0.000 C 
ENDBRANCH  12  14
ENDBRANCH   8  12
ENDBRANCH   1  10
BRANCH   6  16
ATOM     16  S   UNL     1       3.531   2.911  19.784  0.00  0.00    +0.000 S 
ATOM     17  O   UNL     1       2.840   1.915  18.990  0.00  0.00    +0.000 OA
ATOM     18  O   UNL     1       4.756   2.569  20.481  0.00  0.00    +0.000 OA
BRANCH  16  19
ATOM     19  C   UNL     1       2.393   3.503  21.071  0.00  0.00    +0.000 C 
ATOM     20  C   UNL     1       0.934   3.246  20.832  0.00  0.00    +0.000 C 
ATOM     21  C   UNL     1       1.685   2.410  21.833  0.00  0.00    +0.000 C 
ENDBRANCH  16  19
ENDBRANCH   6  16
TORSDOF 5
ENDMDL
MODEL 6
REMARK VINA RESULT:      -7.0      1.744      2.456
REMARK  Name = 
REMARK  7 active torsions:
REMARK  status: ('A' for Active; 'I' for Inactive)
REMARK    1  A    between atoms: C_1  and  C_2
REMARK    2  A    between atoms: C_2  and  C_3
REMARK    3  A    between atoms: C_2  and  O_4
REMARK    4  A    between atoms: O_4  and  C_5
REMARK    5  A    between atoms: N_7  and  C_8
REMARK    6  A    between atoms: N_13  and  S_14
REMARK    7  A    between atoms: S_14  and  C_17
REMARK                            x       y       z     vdW  Elec       q    Type
REMARK                         _______ _______ _______ _____ _____    ______ ____
ROOT
ATOM      1  C   UNL     1       4.763   4.546  16.761  0.00  0.00    +0.000 C 
ATOM      2  C   UNL     1       4.838   6.082  16.657  0.00  0.00    +0.000 C 
ATOM      3  C   UNL     1       4.150   6.886  17.758  0.00  0.00    +0.000 C 
ATOM      4  C   UNL     1       2.636   6.728  17.741  0.00  0.00    +0.000 C 
ATOM      5  C   UNL     1       2.123   5.551  18.565  0.00  0.00    +0.000 C 
ATOM      6  N   UNL     1       2.861   4.263  18.364  0.00  0.00    +0.000 NA
ATOM      7  C   UNL     1       3.315   4.021  16.963  0.00  0.00    +0.000 C 
ENDROOT
BRANCH   1  10
ATOM      8  C   UNL     1       6.698   4.167  15.204  0.00  0.00    +0.000 C 
ATOM      9  O   UNL     1       7.538   4.736  15.885  0.00  0.00    +0.000 OA
ATOM     10  N   UNL     1       5.391   3.997  15.551  0.00  0.00    +0.000 N 
ATOM     11  H   UNL     1       4.814   3.628  14.805  0.00  0.00    +0.000 HD
BRANCH   8  12
ATOM     12  O   UNL     1       6.916   3.586  13.997  0.00  0.00    +0.000 OA
BRANCH  12  14
ATOM     13  C   UNL     1       7.381   4.861  11.982  0.00  0.00    +0.000 C 
ATOM     14  C   UNL     1       6.303   4.232  12.862  0.00  0.00    +0.000 C 
ATOM     15  C   UNL     1       5.543   3.175  12.068  0.00  0.00    +0.000 C 
ENDBRANCH  12  14
ENDBRANCH   8  12
ENDBRANCH   1  10
BRANCH   6  16
ATOM     16  S   UNL     1       1.972   2.957  19.065  0.00  0.00    +0.000 S 
ATOM     17  O   UNL     1       0.871   2.674  18.166  0.00  0.00    +0.000 OA
ATOM     18  O   UNL     1       2.942   1.926  19.380  0.00  0.00    +0.000 OA
BRANCH  16  19
ATOM     19  C   UNL     1       1.284   3.476  20.664  0.00  0.00    +0.000 C 
ATOM     20  C   UNL     1       1.435   2.502  21.796  0.00  0.00    +0.000 C 
ATOM     21  C   UNL     1       2.313   3.724  21.740  0.00  0.00    +0.000 C 
ENDBRANCH  16  19
ENDBRANCH   6  16
TORSDOF 5
ENDMDL
MODEL 7
REMARK VINA RESULT:      -6.9      1.587      1.833
REMARK  Name = 
REMARK  7 active torsions:
REMARK  status: ('A' for Active; 'I' for Inactive)
REMARK    1  A    between atoms: C_1  and  C_2
REMARK    2  A    between atoms: C_2  and  C_3
REMARK    3  A    between atoms: C_2  and  O_4
REMARK    4  A    between atoms: O_4  and  C_5
REMARK    5  A    between atoms: N_7  and  C_8
REMARK    6  A    between atoms: N_13  and  S_14
REMARK    7  A    between atoms: S_14  and  C_17
REMARK                            x       y       z     vdW  Elec       q    Type
REMARK                         _______ _______ _______ _____ _____    ______ ____
ROOT
ATOM      1  C   UNL     1       6.132   3.864  16.244  0.00  0.00    +0.000 C 
ATOM      2  C   UNL     1       6.948   5.101  16.670  0.00  0.00    +0.000 C 
ATOM      3  C   UNL     1       7.053   5.381  18.167  0.00  0.00    +0.000 C 
ATOM      4  C   UNL     1       5.716   5.761  18.789  0.00  0.00    +0.000 C 
ATOM      5  C   UNL     1       4.896   4.573  19.279  0.00  0.00    +0.000 C 
ATOM      6  N   UNL     1       4.805   3.424  18.321  0.00  0.00    +0.000 NA
ATOM      7  C   UNL     1       4.717   3.819  16.885  0.00  0.00    +0.000 C 
ENDROOT
BRANCH   1  10
ATOM      8  C   UNL     1       6.872   4.617  13.965  0.00  0.00    +0.000 C 
ATOM      9  O   UNL     1       7.779   5.341  14.346  0.00  0.00    +0.000 OA
ATOM     10  N   UNL     1       6.080   3.861  14.776  0.00  0.00    +0.000 N 
ATOM     11  H   UNL     1       5.293   3.435  14.299  0.00  0.00    +0.000 HD
BRANCH   8  12
ATOM     12  O   UNL     1       6.506   4.416  12.674  0.00  0.00    +0.000 OA
BRANCH  12  14
ATOM     13  C   UNL     1       4.606   3.291  11.660  0.00  0.00    +0.000 C 
ATOM     14  C   UNL     1       5.948   3.122  12.367  0.00  0.00    +0.000 C 
ATOM     15  C   UNL     1       6.924   2.390  11.450  0.00  0.00    +0.000 C 
ENDBRANCH  12  14
ENDBRANCH   8  12
ENDBRANCH   1  10
BRANCH   6  16
ATOM     16  S   UNL     1       3.578   2.321  18.836  0.00  0.00    +0.000 S 
ATOM     17  O   UNL     1       4.010   0.999  18.427  0.00  0.00    +0.000 OA
ATOM     18  O   UNL     1       3.332   2.609  20.237  0.00  0.00    +0.000 OA
BRANCH  16  19
ATOM     19  C   UNL     1       2.019   2.700  17.984  0.00  0.00    +0.000 C 
ATOM     20  C   UNL     1       0.761   2.441  18.761  0.00  0.00    +0.000 C 
ATOM     21  C   UNL     1       1.246   3.853  18.575  0.00  0.00    +0.000 C 
ENDBRANCH  16  19
ENDBRANCH   6  16
TORSDOF 5
ENDMDL
MODEL 8
REMARK VINA RESULT:      -6.8      3.512      7.900
REMARK  Name = 
REMARK  7 active torsions:
REMARK  status: ('A' for Active; 'I' for Inactive)
REMARK    1  A    between atoms: C_1  and  C_2
REMARK    2  A    between atoms: C_2  and  C_3
REMARK    3  A    between atoms: C_2  and  O_4
REMARK    4  A    between atoms: O_4  and  C_5
REMARK    5  A    between atoms: N_7  and  C_8
REMARK    6  A    between atoms: N_13  and  S_14
REMARK    7  A    between atoms: S_14  and  C_17
REMARK                            x       y       z     vdW  Elec       q    Type
REMARK                         _______ _______ _______ _____ _____    ______ ____
ROOT
ATOM      1  C   UNL     1       2.295   5.490  20.300  0.00  0.00    +0.000 C 
ATOM      2  C   UNL     1       1.186   4.435  20.480  0.00  0.00    +0.000 C 
ATOM      3  C   UNL     1       1.378   3.098  19.768  0.00  0.00    +0.000 C 
ATOM      4  C   UNL     1       1.328   3.228  18.252  0.00  0.00    +0.000 C 
ATOM      5  C   UNL     1       2.677   3.529  17.608  0.00  0.00    +0.000 C 
ATOM      6  N   UNL     1       3.474   4.609  18.274  0.00  0.00    +0.000 NA
ATOM      7  C   UNL     1       2.660   5.739  18.811  0.00  0.00    +0.000 C 
ENDROOT
BRANCH   1  10
ATOM      8  C   UNL     1       1.750   7.941  20.389  0.00  0.00    +0.000 C 
ATOM      9  O   UNL     1       1.955   8.171  19.207  0.00  0.00    +0.000 OA
ATOM     10  N   UNL     1       1.846   6.715  20.976  0.00  0.00    +0.000 N 
ATOM     11  H   UNL     1       1.778   6.738  21.987  0.00  0.00    +0.000 HD
BRANCH   8  12
ATOM     12  O   UNL     1       1.370   8.850  21.321  0.00  0.00    +0.000 OA
BRANCH  12  14
ATOM     13  C   UNL     1      -0.391   9.428  22.892  0.00  0.00    +0.000 C 
ATOM     14  C   UNL     1      -0.049   9.077  21.446  0.00  0.00    +0.000 C 
ATOM     15  C   UNL     1      -0.427  10.236  20.530  0.00  0.00    +0.000 C 
ENDBRANCH  12  14
ENDBRANCH   8  12
ENDBRANCH   1  10
BRANCH   6  16
ATOM     16  S   UNL     1       4.785   5.090  17.257  0.00  0.00    +0.000 S 
ATOM     17  O   UNL     1       4.997   4.010  16.313  0.00  0.00    +0.000 OA
ATOM     18  O   UNL     1       4.466   6.423  16.782  0.00  0.00    +0.000 OA
BRANCH  16  19
ATOM     19  C   UNL     1       6.293   5.280  18.252  0.00  0.00    +0.000 C 
ATOM     20  C   UNL     1       7.540   4.664  17.688  0.00  0.00    +0.000 C 
ATOM     21  C   UNL     1       7.351   6.156  17.627  0.00  0.00    +0.000 C 
ENDBRANCH  16  19
ENDBRANCH   6  16
TORSDOF 5
ENDMDL
MODEL 9
REMARK VINA RESULT:      -6.8      3.289      7.788
REMARK  Name = 
REMARK  7 active torsions:
REMARK  status: ('A' for Active; 'I' for Inactive)
REMARK    1  A    between atoms: C_1  and  C_2
REMARK    2  A    between atoms: C_2  and  C_3
REMARK    3  A    between atoms: C_2  and  O_4
REMARK    4  A    between atoms: O_4  and  C_5
REMARK    5  A    between atoms: N_7  and  C_8
REMARK    6  A    between atoms: N_13  and  S_14
REMARK    7  A    between atoms: S_14  and  C_17
REMARK                            x       y       z     vdW  Elec       q    Type
REMARK                         _______ _______ _______ _____ _____    ______ ____
ROOT
ATOM      1  C   UNL     1       2.188   5.160  20.474  0.00  0.00    +0.000 C 
ATOM      2  C   UNL     1       0.975   4.218  20.607  0.00  0.00    +0.000 C 
ATOM      3  C   UNL     1       1.109   2.825  19.998  0.00  0.00    +0.000 C 
ATOM      4  C   UNL     1       1.211   2.855  18.479  0.00  0.00    +0.000 C 
ATOM      5  C   UNL     1       2.636   2.996  17.953  0.00  0.00    +0.000 C 
ATOM      6  N   UNL     1       3.463   4.046  18.629  0.00  0.00    +0.000 NA
ATOM      7  C   UNL     1       2.710   5.276  19.016  0.00  0.00    +0.000 C 
ENDROOT
BRANCH   1  10
ATOM      8  C   UNL     1       1.843   7.646  20.357  0.00  0.00    +0.000 C 
ATOM      9  O   UNL     1       2.155   7.774  19.182  0.00  0.00    +0.000 OA
ATOM     10  N   UNL     1       1.792   6.462  21.029  0.00  0.00    +0.000 N 
ATOM     11  H   UNL     1       1.650   6.563  22.027  0.00  0.00    +0.000 HD
BRANCH   8  12
ATOM     12  O   UNL     1       1.471   8.647  21.193  0.00  0.00    +0.000 OA
BRANCH  12  14
ATOM     13  C   UNL     1      -0.259   9.335  22.754  0.00  0.00    +0.000 C 
ATOM     14  C   UNL     1       0.051   8.859  21.337  0.00  0.00    +0.000 C 
ATOM     15  C   UNL     1      -0.375   9.924  20.331  0.00  0.00    +0.000 C 
ENDBRANCH  12  14
ENDBRANCH   8  12
ENDBRANCH   1  10
BRANCH   6  16
ATOM     16  S   UNL     1       4.901   4.343  17.719  0.00  0.00    +0.000 S 
ATOM     17  O   UNL     1       6.006   4.282  18.655  0.00  0.00    +0.000 OA
ATOM     18  O   UNL     1       4.857   3.445  16.580  0.00  0.00    +0.000 OA
BRANCH  16  19
ATOM     19  C   UNL     1       4.843   6.017  17.015  0.00  0.00    +0.000 C 
ATOM     20  C   UNL     1       6.132   6.786  17.031  0.00  0.00    +0.000 C 
ATOM     21  C   UNL     1       5.634   6.190  15.741  0.00  0.00    +0.000 C 
ENDBRANCH  16  19
ENDBRANCH   6  16
TORSDOF 5
ENDMDL
