MODEL 1
REMARK VINA RESULT:      -6.9      0.000      0.000
REMARK  Name = 
REMARK  7 active torsions:
REMARK  status: ('A' for Active; 'I' for Inactive)
REMARK    1  A    between atoms: C_1  and  O_2
REMARK    2  A    between atoms: O_2  and  C_3
REMARK    3  A    between atoms: C_9  and  C_10
REMARK    4  A    between atoms: C_10  and  O_12
REMARK    5  A    between atoms: O_12  and  C_13
REMARK    6  A    between atoms: C_13  and  C_14
REMARK    7  A    between atoms: C_14  and  C_16
REMARK                            x       y       z     vdW  Elec       q    Type
REMARK                         _______ _______ _______ _____ _____    ______ ____
ROOT
ATOM      1  C   UNL     1       1.621   3.110  18.189  0.00  0.00    +0.000 C 
ATOM      2  O   UNL     1       0.600   2.448  18.269  0.00  0.00    +0.000 OA
ENDROOT
BRANCH   1   9
ATOM      3  C   UNL     1       1.498   4.682  20.224  0.00  0.00    +0.000 A 
ATOM      4  C   UNL     1       1.693   5.977  20.734  0.00  0.00    +0.000 A 
ATOM      5  C   UNL     1       2.133   7.017  19.919  0.00  0.00    +0.000 A 
ATOM      6  C   UNL     1       2.396   6.769  18.579  0.00  0.00    +0.000 A 
ATOM      7 CL   UNL     1       2.948   8.054  17.579  0.00  0.00    +0.000 Cl
ATOM      8  C   UNL     1       2.229   5.488  18.051  0.00  0.00    +0.000 A 
ATOM      9  C   UNL     1       1.782   4.433  18.869  0.00  0.00    +0.000 A 
BRANCH   3  11
ATOM     10  C   UNL     1       2.113   3.098  21.866  0.00  0.00    +0.000 C 
ATOM     11  O   UNL     1       1.095   3.647  21.030  0.00  0.00    +0.000 OA
ENDBRANCH   3  11
ENDBRANCH   1   9
BRANCH   1  12
ATOM     12  O   UNL     1       2.788   2.687  17.649  0.00  0.00    +0.000 OA
BRANCH  12  13
ATOM     13  C   UNL     1       3.507   1.732  18.444  0.00  0.00    +0.000 C 
BRANCH  13  14
ATOM     14  C   UNL     1       4.590   2.448  19.257  0.00  0.00    +0.000 C 
ATOM     15  O   UNL     1       4.973   2.020  20.347  0.00  0.00    +0.000 OA
BRANCH  14  16
ATOM     16  C   UNL     1       5.161   3.658  18.692  0.00  0.00    +0.000 A 
ATOM     17  C   UNL     1       5.545   4.851  19.277  0.00  0.00    +0.000 A 
ATOM     18  C   UNL     1       5.997   5.715  18.248  0.00  0.00    +0.000 A 
ATOM     19  C   UNL     1       5.888   5.030  17.060  0.00  0.00    +0.000 A 
ATOM     20  N   UNL     1       5.413   3.778  17.340  0.00  0.00    +0.000 N 
ATOM     21  H   UNL     1       5.239   3.041  16.666  0.00  0.00    +0.000 HD
ENDBRANCH  14  16
ENDBRANCH  13  14
ENDBRANCH  12  13
ENDBRANCH   1  12
TORSDOF 6
ENDMDL
MODEL 2
REMARK VINA RESULT:      -6.5      2.878      4.198
REMARK  Name = 
REMARK  7 active torsions:
REMARK  status: ('A' for Active; 'I' for Inactive)
REMARK    1  A    between atoms: C_1  and  O_2
REMARK    2  A    between atoms: O_2  and  C_3
REMARK    3  A    between atoms: C_9  and  C_10
REMARK    4  A    between atoms: C_10  and  O_12
REMARK    5  A    between atoms: O_12  and  C_13
REMARK    6  A    between atoms: C_13  and  C_14
REMARK    7  A    between atoms: C_14  and  C_16
REMARK                            x       y       z     vdW  Elec       q    Type
REMARK                         _______ _______ _______ _____ _____    ______ ____
ROOT
ATOM      1  C   UNL     1       5.309   4.517  18.816  0.00  0.00    +0.000 C 
ATOM      2  O   UNL     1       6.317   4.834  19.424  0.00  0.00    +0.000 OA
ENDROOT
BRANCH   1   9
ATOM      3  C   UNL     1       3.264   3.266  19.755  0.00  0.00    +0.000 A 
ATOM      4  C   UNL     1       2.001   3.351  20.365  0.00  0.00    +0.000 A 
ATOM      5  C   UNL     1       1.421   4.582  20.659  0.00  0.00    +0.000 A 
ATOM      6  C   UNL     1       2.107   5.750  20.354  0.00  0.00    +0.000 A 
ATOM      7 CL   UNL     1       1.389   7.267  20.726  0.00  0.00    +0.000 Cl
ATOM      8  C   UNL     1       3.370   5.694  19.765  0.00  0.00    +0.000 A 
ATOM      9  C   UNL     1       3.962   4.453  19.464  0.00  0.00    +0.000 A 
BRANCH   3  11
ATOM     10  C   UNL     1       3.481   1.454  18.254  0.00  0.00    +0.000 C 
ATOM     11  O   UNL     1       3.854   2.054  19.494  0.00  0.00    +0.000 OA
ENDBRANCH   3  11
ENDBRANCH   1   9
BRANCH   1  12
ATOM     12  O   UNL     1       5.220   4.359  17.474  0.00  0.00    +0.000 OA
BRANCH  12  13
ATOM     13  C   UNL     1       5.274   5.579  16.721  0.00  0.00    +0.000 C 
BRANCH  13  14
ATOM     14  C   UNL     1       6.560   5.616  15.890  0.00  0.00    +0.000 C 
ATOM     15  O   UNL     1       7.578   6.184  16.293  0.00  0.00    +0.000 OA
BRANCH  14  16
ATOM     16  C   UNL     1       6.544   4.946  14.601  0.00  0.00    +0.000 A 
ATOM     17  C   UNL     1       5.704   3.979  14.081  0.00  0.00    +0.000 A 
ATOM     18  C   UNL     1       6.175   3.644  12.786  0.00  0.00    +0.000 A 
ATOM     19  C   UNL     1       7.284   4.418  12.541  0.00  0.00    +0.000 A 
ATOM     20  N   UNL     1       7.482   5.225  13.628  0.00  0.00    +0.000 N 
ATOM     21  H   UNL     1       8.218   5.913  13.734  0.00  0.00    +0.000 HD
ENDBRANCH  14  16
ENDBRANCH  13  14
ENDBRANCH  12  13
ENDBRANCH   1  12
TORSDOF 6
ENDMDL
MODEL 3
REMARK VINA RESULT:      -6.5      2.698      3.775
REMARK  Name = 
REMARK  7 active torsions:
REMARK  status: ('A' for Active; 'I' for Inactive)
REMARK    1  A    between atoms: C_1  and  O_2
REMARK    2  A    between atoms: O_2  and  C_3
REMARK    3  A    between atoms: C_9  and  C_10
REMARK    4  A    between atoms: C_10  and  O_12
REMARK    5  A    between atoms: O_12  and  C_13
REMARK    6  A    between atoms: C_13  and  C_14
REMARK    7  A    between atoms: C_14  and  C_16
REMARK                            x       y       z     vdW  Elec       q    Type
REMARK                         _______ _______ _______ _____ _____    ______ ____
ROOT
ATOM      1  C   UNL     1       3.428   3.830  17.143  0.00  0.00    +0.000 C 
ATOM      2  O   UNL     1       2.736   3.168  16.389  0.00  0.00    +0.000 OA
ENDROOT
BRANCH   1   9
ATOM      3  C   UNL     1       2.930   5.737  18.799  0.00  0.00    +0.000 A 
ATOM      4  C   UNL     1       2.418   6.114  20.053  0.00  0.00    +0.000 A 
ATOM      5  C   UNL     1       1.928   5.168  20.948  0.00  0.00    +0.000 A 
ATOM      6  C   UNL     1       1.933   3.826  20.594  0.00  0.00    +0.000 A 
ATOM      7 CL   UNL     1       1.318   2.662  21.700  0.00  0.00    +0.000 Cl
ATOM      8  C   UNL     1       2.418   3.426  19.348  0.00  0.00    +0.000 A 
ATOM      9  C   UNL     1       2.917   4.378  18.439  0.00  0.00    +0.000 A 
BRANCH   3  11
ATOM     10  C   UNL     1       2.690   7.916  17.917  0.00  0.00    +0.000 C 
ATOM     11  O   UNL     1       3.384   6.670  17.901  0.00  0.00    +0.000 OA
ENDBRANCH   3  11
ENDBRANCH   1   9
BRANCH   1  12
ATOM     12  O   UNL     1       4.765   4.012  17.024  0.00  0.00    +0.000 OA
BRANCH  12  13
ATOM     13  C   UNL     1       5.219   4.277  15.688  0.00  0.00    +0.000 C 
BRANCH  13  14
ATOM     14  C   UNL     1       6.656   4.805  15.727  0.00  0.00    +0.000 C 
ATOM     15  O   UNL     1       7.387   4.773  14.735  0.00  0.00    +0.000 OA
BRANCH  14  16
ATOM     16  C   UNL     1       7.133   5.357  16.983  0.00  0.00    +0.000 A 
ATOM     17  C   UNL     1       7.351   6.661  17.388  0.00  0.00    +0.000 A 
ATOM     18  C   UNL     1       7.870   6.627  18.707  0.00  0.00    +0.000 A 
ATOM     19  C   UNL     1       7.949   5.307  19.082  0.00  0.00    +0.000 A 
ATOM     20  N   UNL     1       7.473   4.548  18.048  0.00  0.00    +0.000 N 
ATOM     21  H   UNL     1       7.397   3.537  18.035  0.00  0.00    +0.000 HD
ENDBRANCH  14  16
ENDBRANCH  13  14
ENDBRANCH  12  13
ENDBRANCH   1  12
TORSDOF 6
ENDMDL
MODEL 4
REMARK VINA RESULT:      -6.5      3.242      4.463
REMARK  Name = 
REMARK  7 active torsions:
REMARK  status: ('A' for Active; 'I' for Inactive)
REMARK    1  A    between atoms: C_1  and  O_2
REMARK    2  A    between atoms: O_2  and  C_3
REMARK    3  A    between atoms: C_9  and  C_10
REMARK    4  A    between atoms: C_10  and  O_12
REMARK    5  A    between atoms: O_12  and  C_13
REMARK    6  A    between atoms: C_13  and  C_14
REMARK    7  A    between atoms: C_14  and  C_16
REMARK                            x       y       z     vdW  Elec       q    Type
REMARK                         _______ _______ _______ _____ _____    ______ ____
ROOT
ATOM      1  C   UNL     1       4.820   6.347  17.367  0.00  0.00    +0.000 C 
ATOM      2  O   UNL     1       4.627   6.882  16.289  0.00  0.00    +0.000 OA
ENDROOT
BRANCH   1   9
ATOM      3  C   UNL     1       2.694   5.822  18.720  0.00  0.00    +0.000 A 
ATOM      4  C   UNL     1       1.847   4.839  19.261  0.00  0.00    +0.000 A 
ATOM      5  C   UNL     1       2.127   3.483  19.118  0.00  0.00    +0.000 A 
ATOM      6  C   UNL     1       3.259   3.091  18.417  0.00  0.00    +0.000 A 
ATOM      7 CL   UNL     1       3.596   1.414  18.236  0.00  0.00    +0.000 Cl
ATOM      8  C   UNL     1       4.107   4.044  17.853  0.00  0.00    +0.000 A 
ATOM      9  C   UNL     1       3.830   5.417  17.996  0.00  0.00    +0.000 A 
BRANCH   3  11
ATOM     10  C   UNL     1       1.972   7.579  20.124  0.00  0.00    +0.000 C 
ATOM     11  O   UNL     1       2.404   7.158  18.831  0.00  0.00    +0.000 OA
ENDBRANCH   3  11
ENDBRANCH   1   9
BRANCH   1  12
ATOM     12  O   UNL     1       5.989   6.359  18.051  0.00  0.00    +0.000 OA
BRANCH  12  13
ATOM     13  C   UNL     1       7.165   6.411  17.230  0.00  0.00    +0.000 C 
BRANCH  13  14
ATOM     14  C   UNL     1       7.490   5.009  16.705  0.00  0.00    +0.000 C 
ATOM     15  O   UNL     1       8.072   4.174  17.400  0.00  0.00    +0.000 OA
BRANCH  14  16
ATOM     16  C   UNL     1       7.080   4.690  15.349  0.00  0.00    +0.000 A 
ATOM     17  C   UNL     1       6.131   3.810  14.861  0.00  0.00    +0.000 A 
ATOM     18  C   UNL     1       6.177   3.862  13.445  0.00  0.00    +0.000 A 
ATOM     19  C   UNL     1       7.143   4.776  13.099  0.00  0.00    +0.000 A 
ATOM     20  N   UNL     1       7.661   5.296  14.253  0.00  0.00    +0.000 N 
ATOM     21  H   UNL     1       8.385   6.003  14.318  0.00  0.00    +0.000 HD
ENDBRANCH  14  16
ENDBRANCH  13  14
ENDBRANCH  12  13
ENDBRANCH   1  12
TORSDOF 6
ENDMDL
MODEL 5
REMARK VINA RESULT:      -6.4      2.259      3.042
REMARK  Name = 
REMARK  7 active torsions:
REMARK  status: ('A' for Active; 'I' for Inactive)
REMARK    1  A    between atoms: C_1  and  O_2
REMARK    2  A    between atoms: O_2  and  C_3
REMARK    3  A    between atoms: C_9  and  C_10
REMARK    4  A    between atoms: C_10  and  O_12
REMARK    5  A    between atoms: O_12  and  C_13
REMARK    6  A    between atoms: C_13  and  C_14
REMARK    7  A    between atoms: C_14  and  C_16
REMARK                            x       y       z     vdW  Elec       q    Type
REMARK                         _______ _______ _______ _____ _____    ______ ____
ROOT
ATOM      1  C   UNL     1       3.588   5.591  18.113  0.00  0.00    +0.000 C 
ATOM      2  O   UNL     1       3.082   4.699  17.454  0.00  0.00    +0.000 OA
ENDROOT
BRANCH   1   9
ATOM      3  C   UNL     1       2.194   6.340  20.143  0.00  0.00    +0.000 A 
ATOM      4  C   UNL     1       1.453   7.365  20.759  0.00  0.00    +0.000 A 
ATOM      5  C   UNL     1       1.266   8.596  20.137  0.00  0.00    +0.000 A 
ATOM      6  C   UNL     1       1.830   8.823  18.889  0.00  0.00    +0.000 A 
ATOM      7 CL   UNL     1       1.603  10.349  18.129  0.00  0.00    +0.000 Cl
ATOM      8  C   UNL     1       2.586   7.831  18.264  0.00  0.00    +0.000 A 
ATOM      9  C   UNL     1       2.778   6.583  18.886  0.00  0.00    +0.000 A 
BRANCH   3  11
ATOM     10  C   UNL     1       1.365   4.177  20.606  0.00  0.00    +0.000 C 
ATOM     11  O   UNL     1       2.408   5.137  20.767  0.00  0.00    +0.000 OA
ENDBRANCH   3  11
ENDBRANCH   1   9
BRANCH   1  12
ATOM     12  O   UNL     1       4.908   5.709  18.390  0.00  0.00    +0.000 OA
BRANCH  12  13
ATOM     13  C   UNL     1       5.606   4.463  18.534  0.00  0.00    +0.000 C 
BRANCH  13  14
ATOM     14  C   UNL     1       6.876   4.481  17.678  0.00  0.00    +0.000 C 
ATOM     15  O   UNL     1       8.000   4.508  18.184  0.00  0.00    +0.000 OA
BRANCH  14  16
ATOM     16  C   UNL     1       6.712   4.459  16.235  0.00  0.00    +0.000 A 
ATOM     17  C   UNL     1       5.861   3.734  15.420  0.00  0.00    +0.000 A 
ATOM     18  C   UNL     1       6.158   4.068  14.075  0.00  0.00    +0.000 A 
ATOM     19  C   UNL     1       7.175   4.993  14.097  0.00  0.00    +0.000 A 
ATOM     20  N   UNL     1       7.482   5.248  15.405  0.00  0.00    +0.000 N 
ATOM     21  H   UNL     1       8.186   5.897  15.738  0.00  0.00    +0.000 HD
ENDBRANCH  14  16
ENDBRANCH  13  14
ENDBRANCH  12  13
ENDBRANCH   1  12
TORSDOF 6
ENDMDL
MODEL 6
REMARK VINA RESULT:      -6.4      2.050      2.842
REMARK  Name = 
REMARK  7 active torsions:
REMARK  status: ('A' for Active; 'I' for Inactive)
REMARK    1  A    between atoms: C_1  and  O_2
REMARK    2  A    between atoms: O_2  and  C_3
REMARK    3  A    between atoms: C_9  and  C_10
REMARK    4  A    between atoms: C_10  and  O_12
REMARK    5  A    between atoms: O_12  and  C_13
REMARK    6  A    between atoms: C_13  and  C_14
REMARK    7  A    between atoms: C_14  and  C_16
REMARK                            x       y       z     vdW  Elec       q    Type
REMARK                         _______ _______ _______ _____ _____    ______ ____
ROOT
ATOM      1  C   UNL     1       3.914   4.064  17.599  0.00  0.00    +0.000 C 
ATOM      2  O   UNL     1       4.047   2.895  17.920  0.00  0.00    +0.000 OA
ENDROOT
BRANCH   1   9
ATOM      3  C   UNL     1       2.648   4.786  19.721  0.00  0.00    +0.000 A 
ATOM      4  C   UNL     1       2.025   5.826  20.432  0.00  0.00    +0.000 A 
ATOM      5  C   UNL     1       1.944   7.114  19.909  0.00  0.00    +0.000 A 
ATOM      6  C   UNL     1       2.498   7.380  18.664  0.00  0.00    +0.000 A 
ATOM      7 CL   UNL     1       2.402   8.974  18.026  0.00  0.00    +0.000 Cl
ATOM      8  C   UNL     1       3.138   6.371  17.945  0.00  0.00    +0.000 A 
ATOM      9  C   UNL     1       3.223   5.067  18.468  0.00  0.00    +0.000 A 
BRANCH   3  11
ATOM     10  C   UNL     1       2.166   3.350  21.534  0.00  0.00    +0.000 C 
ATOM     11  O   UNL     1       2.758   3.524  20.247  0.00  0.00    +0.000 OA
ENDBRANCH   3  11
ENDBRANCH   1   9
BRANCH   1  12
ATOM     12  O   UNL     1       4.509   4.657  16.537  0.00  0.00    +0.000 OA
BRANCH  12  13
ATOM     13  C   UNL     1       5.551   3.885  15.922  0.00  0.00    +0.000 C 
BRANCH  13  14
ATOM     14  C   UNL     1       6.835   4.716  15.851  0.00  0.00    +0.000 C 
ATOM     15  O   UNL     1       7.508   4.786  14.820  0.00  0.00    +0.000 OA
BRANCH  14  16
ATOM     16  C   UNL     1       7.236   5.433  17.049  0.00  0.00    +0.000 A 
ATOM     17  C   UNL     1       7.477   6.776  17.277  0.00  0.00    +0.000 A 
ATOM     18  C   UNL     1       7.890   6.921  18.625  0.00  0.00    +0.000 A 
ATOM     19  C   UNL     1       7.885   5.669  19.193  0.00  0.00    +0.000 A 
ATOM     20  N   UNL     1       7.458   4.780  18.245  0.00  0.00    +0.000 N 
ATOM     21  H   UNL     1       7.341   3.782  18.372  0.00  0.00    +0.000 HD
ENDBRANCH  14  16
ENDBRANCH  13  14
ENDBRANCH  12  13
ENDBRANCH   1  12
TORSDOF 6
ENDMDL
MODEL 7
REMARK VINA RESULT:      -6.4      1.736      2.497
REMARK  Name = 
REMARK  7 active torsions:
REMARK  status: ('A' for Active; 'I' for Inactive)
REMARK    1  A    between atoms: C_1  and  O_2
REMARK    2  A    between atoms: O_2  and  C_3
REMARK    3  A    between atoms: C_9  and  C_10
REMARK    4  A    between atoms: C_10  and  O_12
REMARK    5  A    between atoms: O_12  and  C_13
REMARK    6  A    between atoms: C_13  and  C_14
REMARK    7  A    between atoms: C_14  and  C_16
REMARK                            x       y       z     vdW  Elec       q    Type
REMARK                         _______ _______ _______ _____ _____    ______ ____
ROOT
ATOM      1  C   UNL     1       2.886   4.219  17.782  0.00  0.00    +0.000 C 
ATOM      2  O   UNL     1       2.059   3.606  17.128  0.00  0.00    +0.000 OA
ENDROOT
BRANCH   1   9
ATOM      3  C   UNL     1       2.209   5.357  19.990  0.00  0.00    +0.000 A 
ATOM      4  C   UNL     1       1.894   6.554  20.658  0.00  0.00    +0.000 A 
ATOM      5  C   UNL     1       1.872   7.773  19.986  0.00  0.00    +0.000 A 
ATOM      6  C   UNL     1       2.176   7.812  18.633  0.00  0.00    +0.000 A 
ATOM      7 CL   UNL     1       2.156   9.322  17.811  0.00  0.00    +0.000 Cl
ATOM      8  C   UNL     1       2.510   6.643  17.949  0.00  0.00    +0.000 A 
ATOM      9  C   UNL     1       2.533   5.406  18.622  0.00  0.00    +0.000 A 
BRANCH   3  11
ATOM     10  C   UNL     1       1.065   3.385  20.610  0.00  0.00    +0.000 C 
ATOM     11  O   UNL     1       2.264   4.158  20.655  0.00  0.00    +0.000 OA
ENDBRANCH   3  11
ENDBRANCH   1   9
BRANCH   1  12
ATOM     12  O   UNL     1       4.165   3.828  17.993  0.00  0.00    +0.000 OA
BRANCH  12  13
ATOM     13  C   UNL     1       4.975   3.760  16.809  0.00  0.00    +0.000 C 
BRANCH  13  14
ATOM     14  C   UNL     1       5.550   5.145  16.498  0.00  0.00    +0.000 C 
ATOM     15  O   UNL     1       5.213   5.778  15.495  0.00  0.00    +0.000 OA
BRANCH  14  16
ATOM     16  C   UNL     1       6.511   5.697  17.436  0.00  0.00    +0.000 A 
ATOM     17  C   UNL     1       7.256   6.862  17.407  0.00  0.00    +0.000 A 
ATOM     18  C   UNL     1       8.076   6.883  18.563  0.00  0.00    +0.000 A 
ATOM     19  C   UNL     1       7.809   5.739  19.277  0.00  0.00    +0.000 A 
ATOM     20  N   UNL     1       6.841   5.043  18.606  0.00  0.00    +0.000 N 
ATOM     21  H   UNL     1       6.430   4.163  18.895  0.00  0.00    +0.000 HD
ENDBRANCH  14  16
ENDBRANCH  13  14
ENDBRANCH  12  13
ENDBRANCH   1  12
TORSDOF 6
ENDMDL
MODEL 8
REMARK VINA RESULT:      -6.3      3.712      4.963
REMARK  Name = 
REMARK  7 active torsions:
REMARK  status: ('A' for Active; 'I' for Inactive)
REMARK    1  A    between atoms: C_1  and  O_2
REMARK    2  A    between atoms: O_2  and  C_3
REMARK    3  A    between atoms: C_9  and  C_10
REMARK    4  A    between atoms: C_10  and  O_12
REMARK    5  A    between atoms: O_12  and  C_13
REMARK    6  A    between atoms: C_13  and  C_14
REMARK    7  A    between atoms: C_14  and  C_16
REMARK                            x       y       z     vdW  Elec       q    Type
REMARK                         _______ _______ _______ _____ _____    ______ ____
ROOT
ATOM      1  C   UNL     1       5.983   5.381  17.241  0.00  0.00    +0.000 C 
ATOM      2  O   UNL     1       7.118   5.543  17.655  0.00  0.00    +0.000 OA
ENDROOT
BRANCH   1   9
ATOM      3  C   UNL     1       4.355   4.701  19.115  0.00  0.00    +0.000 A 
ATOM      4  C   UNL     1       3.194   5.009  19.846  0.00  0.00    +0.000 A 
ATOM      5  C   UNL     1       2.443   6.147  19.565  0.00  0.00    +0.000 A 
ATOM      6  C   UNL     1       2.852   7.001  18.551  0.00  0.00    +0.000 A 
ATOM      7 CL   UNL     1       1.925   8.410  18.214  0.00  0.00    +0.000 Cl
ATOM      8  C   UNL     1       4.010   6.729  17.822  0.00  0.00    +0.000 A 
ATOM      9  C   UNL     1       4.773   5.580  18.100  0.00  0.00    +0.000 A 
BRANCH   3  11
ATOM     10  C   UNL     1       4.402   2.507  19.992  0.00  0.00    +0.000 C 
ATOM     11  O   UNL     1       5.116   3.597  19.411  0.00  0.00    +0.000 OA
ENDBRANCH   3  11
ENDBRANCH   1   9
BRANCH   1  12
ATOM     12  O   UNL     1       5.641   5.187  15.945  0.00  0.00    +0.000 OA
BRANCH  12  13
ATOM     13  C   UNL     1       6.242   4.037  15.332  0.00  0.00    +0.000 C 
BRANCH  13  14
ATOM     14  C   UNL     1       6.633   4.368  13.888  0.00  0.00    +0.000 C 
ATOM     15  O   UNL     1       7.481   5.223  13.624  0.00  0.00    +0.000 OA
BRANCH  14  16
ATOM     16  C   UNL     1       5.970   3.629  12.828  0.00  0.00    +0.000 A 
ATOM     17  C   UNL     1       4.723   3.777  12.248  0.00  0.00    +0.000 A 
ATOM     18  C   UNL     1       4.565   2.748  11.286  0.00  0.00    +0.000 A 
ATOM     19  C   UNL     1       5.720   2.001  11.292  0.00  0.00    +0.000 A 
ATOM     20  N   UNL     1       6.575   2.558  12.203  0.00  0.00    +0.000 N 
ATOM     21  H   UNL     1       7.510   2.232  12.420  0.00  0.00    +0.000 HD
ENDBRANCH  14  16
ENDBRANCH  13  14
ENDBRANCH  12  13
ENDBRANCH   1  12
TORSDOF 6
ENDMDL
MODEL 9
REMARK VINA RESULT:      -6.3      2.986      5.689
REMARK  Name = 
REMARK  7 active torsions:
REMARK  status: ('A' for Active; 'I' for Inactive)
REMARK    1  A    between atoms: C_1  and  O_2
REMARK    2  A    between atoms: O_2  and  C_3
REMARK    3  A    between atoms: C_9  and  C_10
REMARK    4  A    between atoms: C_10  and  O_12
REMARK    5  A    between atoms: O_12  and  C_13
REMARK    6  A    between atoms: C_13  and  C_14
REMARK    7  A    between atoms: C_14  and  C_16
REMARK                            x       y       z     vdW  Elec       q    Type
REMARK                         _______ _______ _______ _____ _____    ______ ____
ROOT
ATOM      1  C   UNL     1       4.496   4.276  17.376  0.00  0.00    +0.000 C 
ATOM      2  O   UNL     1       4.387   3.236  18.004  0.00  0.00    +0.000 OA
ENDROOT
BRANCH   1   9
ATOM      3  C   UNL     1       6.696   5.079  16.309  0.00  0.00    +0.000 A 
ATOM      4  C   UNL     1       7.492   5.159  15.153  0.00  0.00    +0.000 A 
ATOM      5  C   UNL     1       7.057   4.638  13.937  0.00  0.00    +0.000 A 
ATOM      6  C   UNL     1       5.817   4.018  13.866  0.00  0.00    +0.000 A 
ATOM      7 CL   UNL     1       5.288   3.369  12.364  0.00  0.00    +0.000 Cl
ATOM      8  C   UNL     1       5.015   3.908  15.001  0.00  0.00    +0.000 A 
ATOM      9  C   UNL     1       5.448   4.434  16.233  0.00  0.00    +0.000 A 
BRANCH   3  11
ATOM     10  C   UNL     1       7.321   6.976  17.571  0.00  0.00    +0.000 C 
ATOM     11  O   UNL     1       7.135   5.563  17.516  0.00  0.00    +0.000 OA
ENDBRANCH   3  11
ENDBRANCH   1   9
BRANCH   1  12
ATOM     12  O   UNL     1       3.675   5.348  17.488  0.00  0.00    +0.000 OA
BRANCH  12  13
ATOM     13  C   UNL     1       3.921   6.175  18.634  0.00  0.00    +0.000 C 
BRANCH  13  14
ATOM     14  C   UNL     1       2.669   6.218  19.517  0.00  0.00    +0.000 C 
ATOM     15  O   UNL     1       2.178   7.283  19.897  0.00  0.00    +0.000 OA
BRANCH  14  16
ATOM     16  C   UNL     1       2.070   4.949  19.890  0.00  0.00    +0.000 A 
ATOM     17  C   UNL     1       2.014   4.281  21.101  0.00  0.00    +0.000 A 
ATOM     18  C   UNL     1       1.344   3.050  20.889  0.00  0.00    +0.000 A 
ATOM     19  C   UNL     1       0.998   2.996  19.560  0.00  0.00    +0.000 A 
ATOM     20  N   UNL     1       1.411   4.159  18.970  0.00  0.00    +0.000 N 
ATOM     21  H   UNL     1       1.285   4.413  17.997  0.00  0.00    +0.000 HD
ENDBRANCH  14  16
ENDBRANCH  13  14
ENDBRANCH  12  13
ENDBRANCH   1  12
TORSDOF 6
ENDMDL
