MODEL 1
REMARK VINA RESULT:      -6.6      0.000      0.000
REMARK  Name = 
REMARK  4 active torsions:
REMARK  status: ('A' for Active; 'I' for Inactive)
REMARK    1  A    between atoms: O_1  and  C_2
REMARK    2  A    between atoms: C_2  and  C_3
REMARK    3  A    between atoms: C_3  and  C_4
REMARK    4  A    between atoms: C_3  and  C_12
REMARK                            x       y       z     vdW  Elec       q    Type
REMARK                         _______ _______ _______ _____ _____    ______ ____
ROOT
ATOM      1  C   UNL     1       3.598   3.660  18.528  0.00  0.00    +0.000 C 
ENDROOT
BRANCH   1   2
ATOM      2  C   UNL     1       4.663   4.699  18.200  0.00  0.00    +0.000 A 
ATOM      3  C   UNL     1       4.385   5.695  17.245  0.00  0.00    +0.000 A 
ATOM      4  C   UNL     1       5.308   6.709  16.984  0.00  0.00    +0.000 A 
ATOM      5  C   UNL     1       6.522   6.754  17.676  0.00  0.00    +0.000 A 
ATOM      6 CL   UNL     1       7.631   8.082  17.351  0.00  0.00    +0.000 Cl
ATOM      7  C   UNL     1       6.821   5.763  18.623  0.00  0.00    +0.000 A 
ATOM      8 CL   UNL     1       8.325   5.809  19.533  0.00  0.00    +0.000 Cl
ATOM      9  C   UNL     1       5.904   4.736  18.873  0.00  0.00    +0.000 A 
ENDBRANCH   1   2
BRANCH   1  10
ATOM     10  C   UNL     1       2.186   4.286  18.824  0.00  0.00    +0.000 C 
ATOM     11  C   UNL     1       1.024   3.253  18.811  0.00  0.00    +0.000 C 
ATOM     12  C   UNL     1       1.152   2.268  19.982  0.00  0.00    +0.000 C 
ATOM     13  C   UNL     1       1.158   3.052  21.296  0.00  0.00    +0.000 C 
ATOM     14  C   UNL     1       2.269   4.114  21.292  0.00  0.00    +0.000 C 
ATOM     15  N   UNL     1       2.144   5.002  20.121  0.00  0.00    +0.000 NA
ATOM     16  H   UNL     1       2.878   5.747  20.159  0.00  0.00    +0.000 HD
ENDBRANCH   1  10
BRANCH   1  17
ATOM     17  C   UNL     1       3.564   2.617  17.387  0.00  0.00    +0.000 C 
BRANCH  17  18
ATOM     18  O   UNL     1       4.072   1.390  17.848  0.00  0.00    +0.000 OA
ATOM     19  H   UNL     1       4.786   1.591  18.507  0.00  0.00    +0.000 HD
ENDBRANCH  17  18
ENDBRANCH   1  17
TORSDOF 4
ENDMDL
MODEL 2
REMARK VINA RESULT:      -6.5      1.902      2.280
REMARK  Name = 
REMARK  4 active torsions:
REMARK  status: ('A' for Active; 'I' for Inactive)
REMARK    1  A    between atoms: O_1  and  C_2
REMARK    2  A    between atoms: C_2  and  C_3
REMARK    3  A    between atoms: C_3  and  C_4
REMARK    4  A    between atoms: C_3  and  C_12
REMARK                            x       y       z     vdW  Elec       q    Type
REMARK                         _______ _______ _______ _____ _____    ______ ____
ROOT
ATOM      1  C   UNL     1       3.859   3.656  18.885  0.00  0.00    +0.000 C 
ENDROOT
BRANCH   1   2
ATOM      2  C   UNL     1       4.849   4.074  17.805  0.00  0.00    +0.000 A 
ATOM      3  C   UNL     1       4.817   3.433  16.553  0.00  0.00    +0.000 A 
ATOM      4  C   UNL     1       5.654   3.848  15.517  0.00  0.00    +0.000 A 
ATOM      5  C   UNL     1       6.535   4.919  15.708  0.00  0.00    +0.000 A 
ATOM      6 CL   UNL     1       7.532   5.442  14.356  0.00  0.00    +0.000 Cl
ATOM      7  C   UNL     1       6.588   5.562  16.953  0.00  0.00    +0.000 A 
ATOM      8 CL   UNL     1       7.662   6.931  17.215  0.00  0.00    +0.000 Cl
ATOM      9  C   UNL     1       5.762   5.134  17.998  0.00  0.00    +0.000 A 
ENDBRANCH   1   2
BRANCH   1  10
ATOM     10  C   UNL     1       2.380   4.095  18.579  0.00  0.00    +0.000 C 
ATOM     11  C   UNL     1       1.364   3.701  19.688  0.00  0.00    +0.000 C 
ATOM     12  C   UNL     1       1.633   4.482  20.982  0.00  0.00    +0.000 C 
ATOM     13  C   UNL     1       1.550   5.982  20.686  0.00  0.00    +0.000 C 
ATOM     14  C   UNL     1       2.511   6.367  19.551  0.00  0.00    +0.000 C 
ATOM     15  N   UNL     1       2.258   5.554  18.348  0.00  0.00    +0.000 NA
ATOM     16  H   UNL     1       2.888   5.861  17.571  0.00  0.00    +0.000 HD
ENDBRANCH   1  10
BRANCH   1  17
ATOM     17  C   UNL     1       3.997   2.133  19.113  0.00  0.00    +0.000 C 
BRANCH  17  18
ATOM     18  O   UNL     1       5.090   1.875  19.959  0.00  0.00    +0.000 OA
ATOM     19  H   UNL     1       4.798   2.059  20.889  0.00  0.00    +0.000 HD
ENDBRANCH  17  18
ENDBRANCH   1  17
TORSDOF 4
ENDMDL
MODEL 3
REMARK VINA RESULT:      -6.4      3.641      4.234
REMARK  Name = 
REMARK  4 active torsions:
REMARK  status: ('A' for Active; 'I' for Inactive)
REMARK    1  A    between atoms: O_1  and  C_2
REMARK    2  A    between atoms: C_2  and  C_3
REMARK    3  A    between atoms: C_3  and  C_4
REMARK    4  A    between atoms: C_3  and  C_12
REMARK                            x       y       z     vdW  Elec       q    Type
REMARK                         _______ _______ _______ _____ _____    ______ ____
ROOT
ATOM      1  C   UNL     1       3.624   5.113  18.653  0.00  0.00    +0.000 C 
ENDROOT
BRANCH   1   2
ATOM      2  C   UNL     1       2.977   6.485  18.796  0.00  0.00    +0.000 A 
ATOM      3  C   UNL     1       3.011   7.380  17.710  0.00  0.00    +0.000 A 
ATOM      4  C   UNL     1       2.357   8.611  17.780  0.00  0.00    +0.000 A 
ATOM      5  C   UNL     1       1.648   8.969  18.932  0.00  0.00    +0.000 A 
ATOM      6 CL   UNL     1       0.794  10.507  18.953  0.00  0.00    +0.000 Cl
ATOM      7  C   UNL     1       1.613   8.094  20.027  0.00  0.00    +0.000 A 
ATOM      8 CL   UNL     1       0.705   8.501  21.478  0.00  0.00    +0.000 Cl
ATOM      9  C   UNL     1       2.284   6.867  19.966  0.00  0.00    +0.000 A 
ENDBRANCH   1   2
BRANCH   1  10
ATOM     10  C   UNL     1       2.944   4.213  17.558  0.00  0.00    +0.000 C 
ATOM     11  C   UNL     1       3.514   2.768  17.487  0.00  0.00    +0.000 C 
ATOM     12  C   UNL     1       3.169   1.979  18.759  0.00  0.00    +0.000 C 
ATOM     13  C   UNL     1       1.648   1.950  18.931  0.00  0.00    +0.000 C 
ATOM     14  C   UNL     1       1.073   3.375  18.944  0.00  0.00    +0.000 C 
ATOM     15  N   UNL     1       1.476   4.116  17.734  0.00  0.00    +0.000 NA
ATOM     16  H   UNL     1       1.038   5.066  17.736  0.00  0.00    +0.000 HD
ENDBRANCH   1  10
BRANCH   1  17
ATOM     17  C   UNL     1       5.139   5.308  18.414  0.00  0.00    +0.000 C 
BRANCH  17  18
ATOM     18  O   UNL     1       5.809   5.390  19.647  0.00  0.00    +0.000 OA
ATOM     19  H   UNL     1       5.757   6.332  19.953  0.00  0.00    +0.000 HD
ENDBRANCH  17  18
ENDBRANCH   1  17
TORSDOF 4
ENDMDL
MODEL 4
REMARK VINA RESULT:      -6.3      1.526      2.046
REMARK  Name = 
REMARK  4 active torsions:
REMARK  status: ('A' for Active; 'I' for Inactive)
REMARK    1  A    between atoms: O_1  and  C_2
REMARK    2  A    between atoms: C_2  and  C_3
REMARK    3  A    between atoms: C_3  and  C_4
REMARK    4  A    between atoms: C_3  and  C_12
REMARK                            x       y       z     vdW  Elec       q    Type
REMARK                         _______ _______ _______ _____ _____    ______ ____
ROOT
ATOM      1  C   UNL     1       3.435   2.764  18.473  0.00  0.00    +0.000 C 
ENDROOT
BRANCH   1   2
ATOM      2  C   UNL     1       4.441   3.850  18.112  0.00  0.00    +0.000 A 
ATOM      3  C   UNL     1       5.139   4.513  19.139  0.00  0.00    +0.000 A 
ATOM      4  C   UNL     1       6.126   5.453  18.840  0.00  0.00    +0.000 A 
ATOM      5  C   UNL     1       6.441   5.744  17.508  0.00  0.00    +0.000 A 
ATOM      6 CL   UNL     1       7.730   6.897  17.179  0.00  0.00    +0.000 Cl
ATOM      7  C   UNL     1       5.748   5.102  16.472  0.00  0.00    +0.000 A 
ATOM      8 CL   UNL     1       6.142   5.423  14.788  0.00  0.00    +0.000 Cl
ATOM      9  C   UNL     1       4.745   4.172  16.771  0.00  0.00    +0.000 A 
ENDBRANCH   1   2
BRANCH   1  10
ATOM     10  C   UNL     1       1.945   3.172  18.182  0.00  0.00    +0.000 C 
ATOM     11  C   UNL     1       0.906   2.452  19.088  0.00  0.00    +0.000 C 
ATOM     12  C   UNL     1       1.046   2.903  20.549  0.00  0.00    +0.000 C 
ATOM     13  C   UNL     1       0.863   4.420  20.623  0.00  0.00    +0.000 C 
ATOM     14  C   UNL     1       1.849   5.135  19.686  0.00  0.00    +0.000 C 
ATOM     15  N   UNL     1       1.722   4.632  18.306  0.00  0.00    +0.000 NA
ATOM     16  H   UNL     1       2.365   5.161  17.673  0.00  0.00    +0.000 HD
ENDBRANCH   1  10
BRANCH   1  17
ATOM     17  C   UNL     1       3.849   1.456  17.759  0.00  0.00    +0.000 C 
BRANCH  17  18
ATOM     18  O   UNL     1       4.456   0.583  18.679  0.00  0.00    +0.000 OA
ATOM     19  H   UNL     1       4.682   1.111  19.488  0.00  0.00    +0.000 HD
ENDBRANCH  17  18
ENDBRANCH   1  17
TORSDOF 4
ENDMDL
MODEL 5
REMARK VINA RESULT:      -6.3      2.695      3.139
REMARK  Name = 
REMARK  4 active torsions:
REMARK  status: ('A' for Active; 'I' for Inactive)
REMARK    1  A    between atoms: O_1  and  C_2
REMARK    2  A    between atoms: C_2  and  C_3
REMARK    3  A    between atoms: C_3  and  C_4
REMARK    4  A    between atoms: C_3  and  C_12
REMARK                            x       y       z     vdW  Elec       q    Type
REMARK                         _______ _______ _______ _____ _____    ______ ____
ROOT
ATOM      1  C   UNL     1       4.039   4.158  18.145  0.00  0.00    +0.000 C 
ENDROOT
BRANCH   1   2
ATOM      2  C   UNL     1       4.943   4.507  16.969  0.00  0.00    +0.000 A 
ATOM      3  C   UNL     1       6.108   5.264  17.194  0.00  0.00    +0.000 A 
ATOM      4  C   UNL     1       6.998   5.530  16.153  0.00  0.00    +0.000 A 
ATOM      5  C   UNL     1       6.748   5.037  14.868  0.00  0.00    +0.000 A 
ATOM      6 CL   UNL     1       7.926   5.352  13.599  0.00  0.00    +0.000 Cl
ATOM      7  C   UNL     1       5.586   4.290  14.623  0.00  0.00    +0.000 A 
ATOM      8 CL   UNL     1       5.258   3.631  13.025  0.00  0.00    +0.000 Cl
ATOM      9  C   UNL     1       4.683   4.039  15.662  0.00  0.00    +0.000 A 
ENDBRANCH   1   2
BRANCH   1  10
ATOM     10  C   UNL     1       2.557   4.651  17.962  0.00  0.00    +0.000 C 
ATOM     11  C   UNL     1       1.541   3.960  18.914  0.00  0.00    +0.000 C 
ATOM     12  C   UNL     1       1.797   4.360  20.374  0.00  0.00    +0.000 C 
ATOM     13  C   UNL     1       1.700   5.882  20.499  0.00  0.00    +0.000 C 
ATOM     14  C   UNL     1       2.661   6.572  19.519  0.00  0.00    +0.000 C 
ATOM     15  N   UNL     1       2.421   6.117  18.137  0.00  0.00    +0.000 NA
ATOM     16  H   UNL     1       3.050   6.630  17.478  0.00  0.00    +0.000 HD
ENDBRANCH   1  10
BRANCH   1  17
ATOM     17  C   UNL     1       4.138   2.637  18.404  0.00  0.00    +0.000 C 
BRANCH  17  18
ATOM     18  O   UNL     1       4.990   2.394  19.496  0.00  0.00    +0.000 OA
ATOM     19  H   UNL     1       4.451   2.491  20.323  0.00  0.00    +0.000 HD
ENDBRANCH  17  18
ENDBRANCH   1  17
TORSDOF 4
ENDMDL
MODEL 6
REMARK VINA RESULT:      -6.3      4.091      5.357
REMARK  Name = 
REMARK  4 active torsions:
REMARK  status: ('A' for Active; 'I' for Inactive)
REMARK    1  A    between atoms: O_1  and  C_2
REMARK    2  A    between atoms: C_2  and  C_3
REMARK    3  A    between atoms: C_3  and  C_4
REMARK    4  A    between atoms: C_3  and  C_12
REMARK                            x       y       z     vdW  Elec       q    Type
REMARK                         _______ _______ _______ _____ _____    ______ ____
ROOT
ATOM      1  C   UNL     1       2.890   5.852  17.933  0.00  0.00    +0.000 C 
ENDROOT
BRANCH   1   2
ATOM      2  C   UNL     1       2.350   7.164  18.487  0.00  0.00    +0.000 A 
ATOM      3  C   UNL     1       2.061   8.220  17.603  0.00  0.00    +0.000 A 
ATOM      4  C   UNL     1       1.488   9.404  18.068  0.00  0.00    +0.000 A 
ATOM      5  C   UNL     1       1.184   9.555  19.426  0.00  0.00    +0.000 A 
ATOM      6 CL   UNL     1       0.413  11.045  19.958  0.00  0.00    +0.000 Cl
ATOM      7  C   UNL     1       1.476   8.517  20.324  0.00  0.00    +0.000 A 
ATOM      8 CL   UNL     1       1.079   8.663  22.031  0.00  0.00    +0.000 Cl
ATOM      9  C   UNL     1       2.067   7.337  19.860  0.00  0.00    +0.000 A 
ENDBRANCH   1   2
BRANCH   1  10
ATOM     10  C   UNL     1       4.433   5.664  18.166  0.00  0.00    +0.000 C 
ATOM     11  C   UNL     1       4.967   4.264  17.748  0.00  0.00    +0.000 C 
ATOM     12  C   UNL     1       4.883   4.076  16.227  0.00  0.00    +0.000 C 
ATOM     13  C   UNL     1       5.685   5.184  15.540  0.00  0.00    +0.000 C 
ATOM     14  C   UNL     1       5.199   6.570  15.994  0.00  0.00    +0.000 C 
ATOM     15  N   UNL     1       5.242   6.688  17.463  0.00  0.00    +0.000 NA
ATOM     16  H   UNL     1       4.954   7.651  17.751  0.00  0.00    +0.000 HD
ENDBRANCH   1  10
BRANCH   1  17
ATOM     17  C   UNL     1       2.050   4.692  18.515  0.00  0.00    +0.000 C 
BRANCH  17  18
ATOM     18  O   UNL     1       1.246   4.132  17.506  0.00  0.00    +0.000 OA
ATOM     19  H   UNL     1       0.836   4.882  17.001  0.00  0.00    +0.000 HD
ENDBRANCH  17  18
ENDBRANCH   1  17
TORSDOF 4
ENDMDL
MODEL 7
REMARK VINA RESULT:      -6.3      2.321      2.855
REMARK  Name = 
REMARK  4 active torsions:
REMARK  status: ('A' for Active; 'I' for Inactive)
REMARK    1  A    between atoms: O_1  and  C_2
REMARK    2  A    between atoms: C_2  and  C_3
REMARK    3  A    between atoms: C_3  and  C_4
REMARK    4  A    between atoms: C_3  and  C_12
REMARK                            x       y       z     vdW  Elec       q    Type
REMARK                         _______ _______ _______ _____ _____    ______ ____
ROOT
ATOM      1  C   UNL     1       3.053   5.260  18.700  0.00  0.00    +0.000 C 
ENDROOT
BRANCH   1   2
ATOM      2  C   UNL     1       4.230   5.206  17.734  0.00  0.00    +0.000 A 
ATOM      3  C   UNL     1       4.182   4.325  16.637  0.00  0.00    +0.000 A 
ATOM      4  C   UNL     1       5.205   4.310  15.688  0.00  0.00    +0.000 A 
ATOM      5  C   UNL     1       6.293   5.181  15.811  0.00  0.00    +0.000 A 
ATOM      6 CL   UNL     1       7.533   5.164  14.562  0.00  0.00    +0.000 Cl
ATOM      7  C   UNL     1       6.363   6.058  16.904  0.00  0.00    +0.000 A 
ATOM      8 CL   UNL     1       7.702   7.186  17.071  0.00  0.00    +0.000 Cl
ATOM      9  C   UNL     1       5.346   6.060  17.865  0.00  0.00    +0.000 A 
ENDBRANCH   1   2
BRANCH   1  10
ATOM     10  C   UNL     1       3.278   4.415  20.006  0.00  0.00    +0.000 C 
ATOM     11  C   UNL     1       2.115   4.521  21.033  0.00  0.00    +0.000 C 
ATOM     12  C   UNL     1       0.839   3.867  20.486  0.00  0.00    +0.000 C 
ATOM     13  C   UNL     1       1.130   2.402  20.154  0.00  0.00    +0.000 C 
ATOM     14  C   UNL     1       2.316   2.288  19.184  0.00  0.00    +0.000 C 
ATOM     15  N   UNL     1       3.504   2.978  19.720  0.00  0.00    +0.000 NA
ATOM     16  H   UNL     1       4.314   2.851  19.071  0.00  0.00    +0.000 HD
ENDBRANCH   1  10
BRANCH   1  17
ATOM     17  C   UNL     1       2.728   6.743  18.993  0.00  0.00    +0.000 C 
BRANCH  17  18
ATOM     18  O   UNL     1       2.093   7.321  17.880  0.00  0.00    +0.000 OA
ATOM     19  H   UNL     1       1.209   7.656  18.181  0.00  0.00    +0.000 HD
ENDBRANCH  17  18
ENDBRANCH   1  17
TORSDOF 4
ENDMDL
MODEL 8
REMARK VINA RESULT:      -6.2      3.427      4.455
REMARK  Name = 
REMARK  4 active torsions:
REMARK  status: ('A' for Active; 'I' for Inactive)
REMARK    1  A    between atoms: O_1  and  C_2
REMARK    2  A    between atoms: C_2  and  C_3
REMARK    3  A    between atoms: C_3  and  C_4
REMARK    4  A    between atoms: C_3  and  C_12
REMARK                            x       y       z     vdW  Elec       q    Type
REMARK                         _______ _______ _______ _____ _____    ______ ____
ROOT
ATOM      1  C   UNL     1       3.439   5.021  18.875  0.00  0.00    +0.000 C 
ENDROOT
BRANCH   1   2
ATOM      2  C   UNL     1       2.652   6.272  19.247  0.00  0.00    +0.000 A 
ATOM      3  C   UNL     1       2.007   6.336  20.497  0.00  0.00    +0.000 A 
ATOM      4  C   UNL     1       1.349   7.497  20.902  0.00  0.00    +0.000 A 
ATOM      5  C   UNL     1       1.329   8.623  20.071  0.00  0.00    +0.000 A 
ATOM      6 CL   UNL     1       0.534  10.083  20.647  0.00  0.00    +0.000 Cl
ATOM      7  C   UNL     1       1.958   8.574  18.818  0.00  0.00    +0.000 A 
ATOM      8 CL   UNL     1       1.977   9.982  17.763  0.00  0.00    +0.000 Cl
ATOM      9  C   UNL     1       2.602   7.403  18.403  0.00  0.00    +0.000 A 
ENDBRANCH   1   2
BRANCH   1  10
ATOM     10  C   UNL     1       2.833   4.245  17.649  0.00  0.00    +0.000 C 
ATOM     11  C   UNL     1       3.495   2.862  17.390  0.00  0.00    +0.000 C 
ATOM     12  C   UNL     1       3.185   1.883  18.530  0.00  0.00    +0.000 C 
ATOM     13  C   UNL     1       1.668   1.735  18.663  0.00  0.00    +0.000 C 
ATOM     14  C   UNL     1       1.002   3.105  18.863  0.00  0.00    +0.000 C 
ATOM     15  N   UNL     1       1.372   4.033  17.778  0.00  0.00    +0.000 NA
ATOM     16  H   UNL     1       0.873   4.944  17.903  0.00  0.00    +0.000 HD
ENDBRANCH   1  10
BRANCH   1  17
ATOM     17  C   UNL     1       4.918   5.418  18.663  0.00  0.00    +0.000 C 
BRANCH  17  18
ATOM     18  O   UNL     1       5.753   4.550  19.389  0.00  0.00    +0.000 OA
ATOM     19  H   UNL     1       5.565   4.692  20.353  0.00  0.00    +0.000 HD
ENDBRANCH  17  18
ENDBRANCH   1  17
TORSDOF 4
ENDMDL
MODEL 9
REMARK VINA RESULT:      -6.2      0.933      1.806
REMARK  Name = 
REMARK  4 active torsions:
REMARK  status: ('A' for Active; 'I' for Inactive)
REMARK    1  A    between atoms: O_1  and  C_2
REMARK    2  A    between atoms: C_2  and  C_3
REMARK    3  A    between atoms: C_3  and  C_4
REMARK    4  A    between atoms: C_3  and  C_12
REMARK                            x       y       z     vdW  Elec       q    Type
REMARK                         _______ _______ _______ _____ _____    ______ ____
ROOT
ATOM      1  C   UNL     1       3.528   3.380  18.702  0.00  0.00    +0.000 C 
ENDROOT
BRANCH   1   2
ATOM      2  C   UNL     1       4.503   4.490  18.328  0.00  0.00    +0.000 A 
ATOM      3  C   UNL     1       5.599   4.757  19.169  0.00  0.00    +0.000 A 
ATOM      4  C   UNL     1       6.555   5.710  18.814  0.00  0.00    +0.000 A 
ATOM      5  C   UNL     1       6.440   6.408  17.607  0.00  0.00    +0.000 A 
ATOM      6 CL   UNL     1       7.698   7.561  17.176  0.00  0.00    +0.000 Cl
ATOM      7  C   UNL     1       5.348   6.162  16.762  0.00  0.00    +0.000 A 
ATOM      8 CL   UNL     1       5.191   7.001  15.224  0.00  0.00    +0.000 Cl
ATOM      9  C   UNL     1       4.379   5.221  17.126  0.00  0.00    +0.000 A 
ENDBRANCH   1   2
BRANCH   1  10
ATOM     10  C   UNL     1       2.066   3.896  18.966  0.00  0.00    +0.000 C 
ATOM     11  C   UNL     1       1.036   2.762  19.232  0.00  0.00    +0.000 C 
ATOM     12  C   UNL     1       1.333   2.051  20.560  0.00  0.00    +0.000 C 
ATOM     13  C   UNL     1       1.306   3.078  21.694  0.00  0.00    +0.000 C 
ATOM     14  C   UNL     1       2.281   4.231  21.409  0.00  0.00    +0.000 C 
ATOM     15  N   UNL     1       1.998   4.848  20.100  0.00  0.00    +0.000 NA
ATOM     16  H   UNL     1       2.638   5.660  19.943  0.00  0.00    +0.000 HD
ENDBRANCH   1  10
BRANCH   1  17
ATOM     17  C   UNL     1       3.589   2.286  17.611  0.00  0.00    +0.000 C 
BRANCH  17  18
ATOM     18  O   UNL     1       4.091   1.093  18.160  0.00  0.00    +0.000 OA
ATOM     19  H   UNL     1       3.347   0.654  18.649  0.00  0.00    +0.000 HD
ENDBRANCH  17  18
ENDBRANCH   1  17
TORSDOF 4
ENDMDL
