MODEL 1
REMARK VINA RESULT:      -7.6      0.000      0.000
REMARK  Name = 
REMARK  3 active torsions:
REMARK  status: ('A' for Active; 'I' for Inactive)
REMARK    1  A    between atoms: S_2  and  O_4
REMARK    2  A    between atoms: S_2  and  C_14
REMARK    3  A    between atoms: O_4  and  C_5
REMARK                            x       y       z     vdW  Elec       q    Type
REMARK                         _______ _______ _______ _____ _____    ______ ____
ROOT
ATOM      1  O   UNL     1       5.545   3.564  18.849  0.00  0.00    +0.000 OA
ATOM      2  S   UNL     1       5.435   4.274  17.590  0.00  0.00    +0.000 S 
ATOM      3  O   UNL     1       5.901   3.659  16.357  0.00  0.00    +0.000 OA
ENDROOT
BRANCH   2   4
ATOM      4  C   UNL     1       6.378   5.772  17.773  0.00  0.00    +0.000 A 
ATOM      5  C   UNL     1       7.379   5.814  18.757  0.00  0.00    +0.000 A 
ATOM      6  C   UNL     1       8.167   6.955  18.905  0.00  0.00    +0.000 A 
ATOM      7  C   UNL     1       7.954   8.051  18.074  0.00  0.00    +0.000 A 
ATOM      8 CL   UNL     1       8.940   9.450  18.241  0.00  0.00    +0.000 Cl
ATOM      9  C   UNL     1       6.950   8.021  17.108  0.00  0.00    +0.000 A 
ATOM     10  C   UNL     1       6.152   6.880  16.954  0.00  0.00    +0.000 A 
ATOM     11 CL   UNL     1       4.921   6.950  15.749  0.00  0.00    +0.000 Cl
ENDBRANCH   2   4
BRANCH   2  12
ATOM     12  O   UNL     1       3.905   4.787  17.354  0.00  0.00    +0.000 OA
BRANCH  12  13
ATOM     13  C   UNL     1       3.053   4.991  18.415  0.00  0.00    +0.000 A 
ATOM     14  C   UNL     1       3.093   6.140  19.221  0.00  0.00    +0.000 A 
ATOM     15  C   UNL     1       2.225   6.290  20.302  0.00  0.00    +0.000 A 
ATOM     16  C   UNL     1       1.297   5.301  20.627  0.00  0.00    +0.000 A 
ATOM     17  C   UNL     1       1.278   4.150  19.832  0.00  0.00    +0.000 A 
ATOM     18  N   UNL     1       0.485   3.029  19.924  0.00  0.00    +0.000 N 
ATOM     19  C   UNL     1       0.810   2.138  18.937  0.00  0.00    +0.000 A 
ATOM     20  C   UNL     1       1.829   2.689  18.194  0.00  0.00    +0.000 A 
ATOM     21  C   UNL     1       2.135   3.968  18.744  0.00  0.00    +0.000 A 
ATOM     22  H   UNL     1      -0.233   2.891  20.621  0.00  0.00    +0.000 HD
ENDBRANCH  12  13
ENDBRANCH   2  12
TORSDOF 3
ENDMDL
MODEL 2
REMARK VINA RESULT:      -7.5      3.313      5.529
REMARK  Name = 
REMARK  3 active torsions:
REMARK  status: ('A' for Active; 'I' for Inactive)
REMARK    1  A    between atoms: S_2  and  O_4
REMARK    2  A    between atoms: S_2  and  C_14
REMARK    3  A    between atoms: O_4  and  C_5
REMARK                            x       y       z     vdW  Elec       q    Type
REMARK                         _______ _______ _______ _____ _____    ______ ____
ROOT
ATOM      1  O   UNL     1       2.582   3.516  16.483  0.00  0.00    +0.000 OA
ATOM      2  S   UNL     1       2.821   3.223  17.883  0.00  0.00    +0.000 S 
ATOM      3  O   UNL     1       2.053   2.189  18.558  0.00  0.00    +0.000 OA
ENDROOT
BRANCH   2   4
ATOM      4  C   UNL     1       2.499   4.729  18.775  0.00  0.00    +0.000 A 
ATOM      5  C   UNL     1       2.481   5.937  18.058  0.00  0.00    +0.000 A 
ATOM      6  C   UNL     1       2.192   7.134  18.713  0.00  0.00    +0.000 A 
ATOM      7  C   UNL     1       1.926   7.124  20.080  0.00  0.00    +0.000 A 
ATOM      8 CL   UNL     1       1.548   8.596  20.884  0.00  0.00    +0.000 Cl
ATOM      9  C   UNL     1       1.962   5.930  20.799  0.00  0.00    +0.000 A 
ATOM     10  C   UNL     1       2.253   4.724  20.149  0.00  0.00    +0.000 A 
ATOM     11 CL   UNL     1       2.298   3.306  21.129  0.00  0.00    +0.000 Cl
ENDBRANCH   2   4
BRANCH   2  12
ATOM     12  O   UNL     1       4.404   2.930  18.143  0.00  0.00    +0.000 OA
BRANCH  12  13
ATOM     13  C   UNL     1       5.331   3.946  18.102  0.00  0.00    +0.000 A 
ATOM     14  C   UNL     1       5.686   4.707  19.227  0.00  0.00    +0.000 A 
ATOM     15  C   UNL     1       6.613   5.745  19.130  0.00  0.00    +0.000 A 
ATOM     16  C   UNL     1       7.207   6.072  17.911  0.00  0.00    +0.000 A 
ATOM     17  C   UNL     1       6.831   5.324  16.791  0.00  0.00    +0.000 A 
ATOM     18  N   UNL     1       7.245   5.428  15.482  0.00  0.00    +0.000 N 
ATOM     19  C   UNL     1       6.613   4.491  14.710  0.00  0.00    +0.000 A 
ATOM     20  C   UNL     1       5.776   3.768  15.529  0.00  0.00    +0.000 A 
ATOM     21  C   UNL     1       5.906   4.279  16.854  0.00  0.00    +0.000 A 
ATOM     22  H   UNL     1       7.921   6.100  15.147  0.00  0.00    +0.000 HD
ENDBRANCH  12  13
ENDBRANCH   2  12
TORSDOF 3
ENDMDL
MODEL 3
REMARK VINA RESULT:      -7.5      2.253      3.360
REMARK  Name = 
REMARK  3 active torsions:
REMARK  status: ('A' for Active; 'I' for Inactive)
REMARK    1  A    between atoms: S_2  and  O_4
REMARK    2  A    between atoms: S_2  and  C_14
REMARK    3  A    between atoms: O_4  and  C_5
REMARK                            x       y       z     vdW  Elec       q    Type
REMARK                         _______ _______ _______ _____ _____    ______ ____
ROOT
ATOM      1  O   UNL     1       4.645   5.924  18.769  0.00  0.00    +0.000 OA
ATOM      2  S   UNL     1       5.553   4.801  18.639  0.00  0.00    +0.000 S 
ATOM      3  O   UNL     1       6.751   4.727  19.461  0.00  0.00    +0.000 OA
ENDROOT
BRANCH   2   4
ATOM      4  C   UNL     1       6.119   4.803  16.953  0.00  0.00    +0.000 A 
ATOM      5  C   UNL     1       5.715   3.753  16.112  0.00  0.00    +0.000 A 
ATOM      6  C   UNL     1       6.104   3.739  14.773  0.00  0.00    +0.000 A 
ATOM      7  C   UNL     1       6.897   4.770  14.276  0.00  0.00    +0.000 A 
ATOM      8 CL   UNL     1       7.358   4.766  12.619  0.00  0.00    +0.000 Cl
ATOM      9  C   UNL     1       7.316   5.805  15.110  0.00  0.00    +0.000 A 
ATOM     10  C   UNL     1       6.932   5.825  16.458  0.00  0.00    +0.000 A 
ATOM     11 CL   UNL     1       7.522   7.133  17.414  0.00  0.00    +0.000 Cl
ENDBRANCH   2   4
BRANCH   2  12
ATOM     12  O   UNL     1       4.744   3.393  18.792  0.00  0.00    +0.000 OA
BRANCH  12  13
ATOM     13  C   UNL     1       3.370   3.352  18.733  0.00  0.00    +0.000 A 
ATOM     14  C   UNL     1       2.644   3.640  17.566  0.00  0.00    +0.000 A 
ATOM     15  C   UNL     1       1.249   3.611  17.562  0.00  0.00    +0.000 A 
ATOM     16  C   UNL     1       0.529   3.309  18.718  0.00  0.00    +0.000 A 
ATOM     17  C   UNL     1       1.260   3.045  19.881  0.00  0.00    +0.000 A 
ATOM     18  N   UNL     1       0.819   2.731  21.147  0.00  0.00    +0.000 N 
ATOM     19  C   UNL     1       1.885   2.557  21.989  0.00  0.00    +0.000 A 
ATOM     20  C   UNL     1       3.034   2.763  21.260  0.00  0.00    +0.000 A 
ATOM     21  C   UNL     1       2.656   3.068  19.919  0.00  0.00    +0.000 A 
ATOM     22  H   UNL     1      -0.152   2.640  21.409  0.00  0.00    +0.000 HD
ENDBRANCH  12  13
ENDBRANCH   2  12
TORSDOF 3
ENDMDL
MODEL 4
REMARK VINA RESULT:      -7.5      2.071      3.212
REMARK  Name = 
REMARK  3 active torsions:
REMARK  status: ('A' for Active; 'I' for Inactive)
REMARK    1  A    between atoms: S_2  and  O_4
REMARK    2  A    between atoms: S_2  and  C_14
REMARK    3  A    between atoms: O_4  and  C_5
REMARK                            x       y       z     vdW  Elec       q    Type
REMARK                         _______ _______ _______ _____ _____    ______ ____
ROOT
ATOM      1  O   UNL     1       6.708   5.440  19.857  0.00  0.00    +0.000 OA
ATOM      2  S   UNL     1       5.692   4.669  19.168  0.00  0.00    +0.000 S 
ATOM      3  O   UNL     1       5.485   3.267  19.498  0.00  0.00    +0.000 OA
ENDROOT
BRANCH   2   4
ATOM      4  C   UNL     1       6.117   4.704  17.441  0.00  0.00    +0.000 A 
ATOM      5  C   UNL     1       5.656   3.662  16.619  0.00  0.00    +0.000 A 
ATOM      6  C   UNL     1       5.934   3.675  15.252  0.00  0.00    +0.000 A 
ATOM      7  C   UNL     1       6.671   4.723  14.709  0.00  0.00    +0.000 A 
ATOM      8 CL   UNL     1       6.994   4.752  13.020  0.00  0.00    +0.000 Cl
ATOM      9  C   UNL     1       7.146   5.750  15.524  0.00  0.00    +0.000 A 
ATOM     10  C   UNL     1       6.874   5.744  16.898  0.00  0.00    +0.000 A 
ATOM     11 CL   UNL     1       7.526   7.044  17.824  0.00  0.00    +0.000 Cl
ENDBRANCH   2   4
BRANCH   2  12
ATOM     12  O   UNL     1       4.249   5.426  19.245  0.00  0.00    +0.000 OA
BRANCH  12  13
ATOM     13  C   UNL     1       3.082   4.763  18.946  0.00  0.00    +0.000 A 
ATOM     14  C   UNL     1       2.491   4.783  17.673  0.00  0.00    +0.000 A 
ATOM     15  C   UNL     1       1.291   4.116  17.425  0.00  0.00    +0.000 A 
ATOM     16  C   UNL     1       0.632   3.417  18.436  0.00  0.00    +0.000 A 
ATOM     17  C   UNL     1       1.215   3.419  19.707  0.00  0.00    +0.000 A 
ATOM     18  N   UNL     1       0.787   2.828  20.874  0.00  0.00    +0.000 N 
ATOM     19  C   UNL     1       1.669   3.091  21.888  0.00  0.00    +0.000 A 
ATOM     20  C   UNL     1       2.682   3.866  21.372  0.00  0.00    +0.000 A 
ATOM     21  C   UNL     1       2.414   4.079  19.988  0.00  0.00    +0.000 A 
ATOM     22  H   UNL     1      -0.055   2.277  20.962  0.00  0.00    +0.000 HD
ENDBRANCH  12  13
ENDBRANCH   2  12
TORSDOF 3
ENDMDL
MODEL 5
REMARK VINA RESULT:      -7.4      2.541      3.328
REMARK  Name = 
REMARK  3 active torsions:
REMARK  status: ('A' for Active; 'I' for Inactive)
REMARK    1  A    between atoms: S_2  and  O_4
REMARK    2  A    between atoms: S_2  and  C_14
REMARK    3  A    between atoms: O_4  and  C_5
REMARK                            x       y       z     vdW  Elec       q    Type
REMARK                         _______ _______ _______ _____ _____    ______ ____
ROOT
ATOM      1  O   UNL     1       4.568   6.010  19.494  0.00  0.00    +0.000 OA
ATOM      2  S   UNL     1       5.671   5.092  19.284  0.00  0.00    +0.000 S 
ATOM      3  O   UNL     1       6.944   5.310  19.953  0.00  0.00    +0.000 OA
ENDROOT
BRANCH   2   4
ATOM      4  C   UNL     1       6.025   5.121  17.541  0.00  0.00    +0.000 A 
ATOM      5  C   UNL     1       7.157   4.428  17.079  0.00  0.00    +0.000 A 
ATOM      6  C   UNL     1       7.447   4.392  15.715  0.00  0.00    +0.000 A 
ATOM      7  C   UNL     1       6.611   5.049  14.816  0.00  0.00    +0.000 A 
ATOM      8 CL   UNL     1       6.954   4.987  13.133  0.00  0.00    +0.000 Cl
ATOM      9  C   UNL     1       5.497   5.754  15.272  0.00  0.00    +0.000 A 
ATOM     10  C   UNL     1       5.200   5.797  16.640  0.00  0.00    +0.000 A 
ATOM     11 CL   UNL     1       3.817   6.715  17.106  0.00  0.00    +0.000 Cl
ENDBRANCH   2   4
BRANCH   2  12
ATOM     12  O   UNL     1       5.200   3.558  19.575  0.00  0.00    +0.000 OA
BRANCH  12  13
ATOM     13  C   UNL     1       3.977   3.096  19.146  0.00  0.00    +0.000 A 
ATOM     14  C   UNL     1       3.724   2.714  17.820  0.00  0.00    +0.000 A 
ATOM     15  C   UNL     1       2.458   2.277  17.427  0.00  0.00    +0.000 A 
ATOM     16  C   UNL     1       1.400   2.216  18.334  0.00  0.00    +0.000 A 
ATOM     17  C   UNL     1       1.656   2.620  19.648  0.00  0.00    +0.000 A 
ATOM     18  N   UNL     1       0.812   2.670  20.734  0.00  0.00    +0.000 N 
ATOM     19  C   UNL     1       1.483   3.135  21.834  0.00  0.00    +0.000 A 
ATOM     20  C   UNL     1       2.781   3.391  21.455  0.00  0.00    +0.000 A 
ATOM     21  C   UNL     1       2.910   3.064  20.073  0.00  0.00    +0.000 A 
ATOM     22  H   UNL     1      -0.161   2.399  20.717  0.00  0.00    +0.000 HD
ENDBRANCH  12  13
ENDBRANCH   2  12
TORSDOF 3
ENDMDL
MODEL 6
REMARK VINA RESULT:      -7.1      0.997      2.118
REMARK  Name = 
REMARK  3 active torsions:
REMARK  status: ('A' for Active; 'I' for Inactive)
REMARK    1  A    between atoms: S_2  and  O_4
REMARK    2  A    between atoms: S_2  and  C_14
REMARK    3  A    between atoms: O_4  and  C_5
REMARK                            x       y       z     vdW  Elec       q    Type
REMARK                         _______ _______ _______ _____ _____    ______ ____
ROOT
ATOM      1  O   UNL     1       5.483   3.171  18.572  0.00  0.00    +0.000 OA
ATOM      2  S   UNL     1       5.286   4.004  17.402  0.00  0.00    +0.000 S 
ATOM      3  O   UNL     1       5.673   3.523  16.086  0.00  0.00    +0.000 OA
ENDROOT
BRANCH   2   4
ATOM      4  C   UNL     1       6.229   5.487  17.676  0.00  0.00    +0.000 A 
ATOM      5  C   UNL     1       7.199   5.483  18.692  0.00  0.00    +0.000 A 
ATOM      6  C   UNL     1       7.987   6.612  18.911  0.00  0.00    +0.000 A 
ATOM      7  C   UNL     1       7.805   7.743  18.121  0.00  0.00    +0.000 A 
ATOM      8 CL   UNL     1       8.791   9.129  18.375  0.00  0.00    +0.000 Cl
ATOM      9  C   UNL     1       6.830   7.759  17.123  0.00  0.00    +0.000 A 
ATOM     10  C   UNL     1       6.033   6.630  16.898  0.00  0.00    +0.000 A 
ATOM     11 CL   UNL     1       4.839   6.757  15.660  0.00  0.00    +0.000 Cl
ENDBRANCH   2   4
BRANCH   2  12
ATOM     12  O   UNL     1       3.740   4.518  17.321  0.00  0.00    +0.000 OA
BRANCH  12  13
ATOM     13  C   UNL     1       2.867   4.312  18.364  0.00  0.00    +0.000 A 
ATOM     14  C   UNL     1       2.273   3.068  18.634  0.00  0.00    +0.000 A 
ATOM     15  C   UNL     1       1.373   2.915  19.688  0.00  0.00    +0.000 A 
ATOM     16  C   UNL     1       1.022   3.993  20.501  0.00  0.00    +0.000 A 
ATOM     17  C   UNL     1       1.601   5.233  20.212  0.00  0.00    +0.000 A 
ATOM     18  N   UNL     1       1.434   6.450  20.834  0.00  0.00    +0.000 N 
ATOM     19  C   UNL     1       2.195   7.405  20.215  0.00  0.00    +0.000 A 
ATOM     20  C   UNL     1       2.865   6.799  19.176  0.00  0.00    +0.000 A 
ATOM     21  C   UNL     1       2.504   5.420  19.163  0.00  0.00    +0.000 A 
ATOM     22  H   UNL     1       0.837   6.608  21.633  0.00  0.00    +0.000 HD
ENDBRANCH  12  13
ENDBRANCH   2  12
TORSDOF 3
ENDMDL
MODEL 7
REMARK VINA RESULT:      -7.1      3.358      5.875
REMARK  Name = 
REMARK  3 active torsions:
REMARK  status: ('A' for Active; 'I' for Inactive)
REMARK    1  A    between atoms: S_2  and  O_4
REMARK    2  A    between atoms: S_2  and  C_14
REMARK    3  A    between atoms: O_4  and  C_5
REMARK                            x       y       z     vdW  Elec       q    Type
REMARK                         _______ _______ _______ _____ _____    ______ ____
ROOT
ATOM      1  O   UNL     1       2.407   3.307  16.723  0.00  0.00    +0.000 OA
ATOM      2  S   UNL     1       2.965   3.233  18.059  0.00  0.00    +0.000 S 
ATOM      3  O   UNL     1       2.539   2.187  18.976  0.00  0.00    +0.000 OA
ENDROOT
BRANCH   2   4
ATOM      4  C   UNL     1       2.566   4.772  18.858  0.00  0.00    +0.000 A 
ATOM      5  C   UNL     1       2.700   5.960  18.120  0.00  0.00    +0.000 A 
ATOM      6  C   UNL     1       2.358   7.183  18.696  0.00  0.00    +0.000 A 
ATOM      7  C   UNL     1       1.887   7.220  20.006  0.00  0.00    +0.000 A 
ATOM      8 CL   UNL     1       1.444   8.725  20.710  0.00  0.00    +0.000 Cl
ATOM      9  C   UNL     1       1.770   6.045  20.748  0.00  0.00    +0.000 A 
ATOM     10  C   UNL     1       2.113   4.813  20.178  0.00  0.00    +0.000 A 
ATOM     11 CL   UNL     1       1.958   3.421  21.184  0.00  0.00    +0.000 Cl
ENDBRANCH   2   4
BRANCH   2  12
ATOM     12  O   UNL     1       4.595   3.221  17.998  0.00  0.00    +0.000 OA
BRANCH  12  13
ATOM     13  C   UNL     1       5.272   3.840  16.973  0.00  0.00    +0.000 A 
ATOM     14  C   UNL     1       5.194   3.418  15.637  0.00  0.00    +0.000 A 
ATOM     15  C   UNL     1       5.921   4.063  14.635  0.00  0.00    +0.000 A 
ATOM     16  C   UNL     1       6.758   5.139  14.929  0.00  0.00    +0.000 A 
ATOM     17  C   UNL     1       6.847   5.539  16.266  0.00  0.00    +0.000 A 
ATOM     18  N   UNL     1       7.589   6.549  16.836  0.00  0.00    +0.000 N 
ATOM     19  C   UNL     1       7.377   6.586  18.188  0.00  0.00    +0.000 A 
ATOM     20  C   UNL     1       6.485   5.584  18.501  0.00  0.00    +0.000 A 
ATOM     21  C   UNL     1       6.135   4.914  17.292  0.00  0.00    +0.000 A 
ATOM     22  H   UNL     1       8.197   7.172  16.325  0.00  0.00    +0.000 HD
ENDBRANCH  12  13
ENDBRANCH   2  12
TORSDOF 3
ENDMDL
MODEL 8
REMARK VINA RESULT:      -7.1      2.212      3.251
REMARK  Name = 
REMARK  3 active torsions:
REMARK  status: ('A' for Active; 'I' for Inactive)
REMARK    1  A    between atoms: S_2  and  O_4
REMARK    2  A    between atoms: S_2  and  C_14
REMARK    3  A    between atoms: O_4  and  C_5
REMARK                            x       y       z     vdW  Elec       q    Type
REMARK                         _______ _______ _______ _____ _____    ______ ____
ROOT
ATOM      1  O   UNL     1       4.690   5.866  19.176  0.00  0.00    +0.000 OA
ATOM      2  S   UNL     1       5.720   4.855  19.042  0.00  0.00    +0.000 S 
ATOM      3  O   UNL     1       6.951   4.955  19.810  0.00  0.00    +0.000 OA
ENDROOT
BRANCH   2   4
ATOM      4  C   UNL     1       6.213   4.862  17.332  0.00  0.00    +0.000 A 
ATOM      5  C   UNL     1       5.794   3.800  16.513  0.00  0.00    +0.000 A 
ATOM      6  C   UNL     1       6.125   3.788  15.159  0.00  0.00    +0.000 A 
ATOM      7  C   UNL     1       6.874   4.833  14.624  0.00  0.00    +0.000 A 
ATOM      8 CL   UNL     1       7.263   4.832  12.949  0.00  0.00    +0.000 Cl
ATOM      9  C   UNL     1       7.307   5.880  15.436  0.00  0.00    +0.000 A 
ATOM     10  C   UNL     1       6.982   5.898  16.799  0.00  0.00    +0.000 A 
ATOM     11 CL   UNL     1       7.585   7.222  17.724  0.00  0.00    +0.000 Cl
ENDBRANCH   2   4
BRANCH   2  12
ATOM     12  O   UNL     1       5.095   3.367  19.276  0.00  0.00    +0.000 OA
BRANCH  12  13
ATOM     13  C   UNL     1       3.838   3.201  19.809  0.00  0.00    +0.000 A 
ATOM     14  C   UNL     1       3.613   2.755  21.121  0.00  0.00    +0.000 A 
ATOM     15  C   UNL     1       2.318   2.576  21.609  0.00  0.00    +0.000 A 
ATOM     16  C   UNL     1       1.204   2.823  20.807  0.00  0.00    +0.000 A 
ATOM     17  C   UNL     1       1.436   3.246  19.494  0.00  0.00    +0.000 A 
ATOM     18  N   UNL     1       0.540   3.552  18.495  0.00  0.00    +0.000 N 
ATOM     19  C   UNL     1       1.207   3.921  17.358  0.00  0.00    +0.000 A 
ATOM     20  C   UNL     1       2.556   3.853  17.623  0.00  0.00    +0.000 A 
ATOM     21  C   UNL     1       2.719   3.433  18.975  0.00  0.00    +0.000 A 
ATOM     22  H   UNL     1      -0.464   3.510  18.594  0.00  0.00    +0.000 HD
ENDBRANCH  12  13
ENDBRANCH   2  12
TORSDOF 3
ENDMDL
MODEL 9
REMARK VINA RESULT:      -7.0      2.271      3.500
REMARK  Name = 
REMARK  3 active torsions:
REMARK  status: ('A' for Active; 'I' for Inactive)
REMARK    1  A    between atoms: S_2  and  O_4
REMARK    2  A    between atoms: S_2  and  C_14
REMARK    3  A    between atoms: O_4  and  C_5
REMARK                            x       y       z     vdW  Elec       q    Type
REMARK                         _______ _______ _______ _____ _____    ______ ____
ROOT
ATOM      1  O   UNL     1       6.785   5.333  19.824  0.00  0.00    +0.000 OA
ATOM      2  S   UNL     1       5.896   4.701  18.869  0.00  0.00    +0.000 S 
ATOM      3  O   UNL     1       6.392   4.290  17.565  0.00  0.00    +0.000 OA
ENDROOT
BRANCH   2   4
ATOM      4  C   UNL     1       4.591   5.867  18.549  0.00  0.00    +0.000 A 
ATOM      5  C   UNL     1       3.634   6.091  19.553  0.00  0.00    +0.000 A 
ATOM      6  C   UNL     1       2.619   7.026  19.356  0.00  0.00    +0.000 A 
ATOM      7  C   UNL     1       2.558   7.734  18.159  0.00  0.00    +0.000 A 
ATOM      8 CL   UNL     1       1.320   8.904  17.924  0.00  0.00    +0.000 Cl
ATOM      9  C   UNL     1       3.493   7.502  17.152  0.00  0.00    +0.000 A 
ATOM     10  C   UNL     1       4.515   6.562  17.340  0.00  0.00    +0.000 A 
ATOM     11 CL   UNL     1       5.607   6.329  16.027  0.00  0.00    +0.000 Cl
ENDBRANCH   2   4
BRANCH   2  12
ATOM     12  O   UNL     1       5.139   3.426  19.550  0.00  0.00    +0.000 OA
BRANCH  12  13
ATOM     13  C   UNL     1       3.898   3.022  19.117  0.00  0.00    +0.000 A 
ATOM     14  C   UNL     1       3.609   2.735  17.773  0.00  0.00    +0.000 A 
ATOM     15  C   UNL     1       2.326   2.354  17.379  0.00  0.00    +0.000 A 
ATOM     16  C   UNL     1       1.285   2.259  18.301  0.00  0.00    +0.000 A 
ATOM     17  C   UNL     1       1.575   2.569  19.634  0.00  0.00    +0.000 A 
ATOM     18  N   UNL     1       0.753   2.567  20.738  0.00  0.00    +0.000 N 
ATOM     19  C   UNL     1       1.456   2.942  21.852  0.00  0.00    +0.000 A 
ATOM     20  C   UNL     1       2.753   3.192  21.464  0.00  0.00    +0.000 A 
ATOM     21  C   UNL     1       2.848   2.954  20.061  0.00  0.00    +0.000 A 
ATOM     22  H   UNL     1      -0.226   2.321  20.723  0.00  0.00    +0.000 HD
ENDBRANCH  12  13
ENDBRANCH   2  12
TORSDOF 3
ENDMDL
