MODEL 1
REMARK VINA RESULT:      -9.2      0.000      0.000
REMARK  Name = 
REMARK  10 active torsions:
REMARK  status: ('A' for Active; 'I' for Inactive)
REMARK    1  A    between atoms: C_1  and  N_2
REMARK    2  A    between atoms: C_3  and  C_5
REMARK    3  A    between atoms: C_5  and  N_6
REMARK    4  A    between atoms: C_5  and  C_30
REMARK    5  A    between atoms: C_7  and  C_9
REMARK    6  A    between atoms: C_12  and  C_13
REMARK    7  A    between atoms: C_17  and  C_18
REMARK    8  A    between atoms: C_18  and  N_19
REMARK    9  A    between atoms: C_20  and  C_22
REMARK   10  A    between atoms: N_25  and  C_26
REMARK                            x       y       z     vdW  Elec       q    Type
REMARK                         _______ _______ _______ _____ _____    ______ ____
ROOT
ATOM      1  C   UNL     1       2.108   7.849  18.564  0.00  0.00    +0.000 A 
ATOM      2  C   UNL     1       2.035   8.935  17.718  0.00  0.00    +0.000 A 
ATOM      3  C   UNL     1       1.410   9.969  18.452  0.00  0.00    +0.000 A 
ATOM      4  C   UNL     1       1.111   9.443  19.694  0.00  0.00    +0.000 A 
ATOM      5  O   UNL     1       1.624   8.184  19.787  0.00  0.00    +0.000 OA
ENDROOT
BRANCH   4   6
ATOM      6  C   UNL     1       0.332   9.867  20.851  0.00  0.00    +0.000 A 
ATOM      7  C   UNL     1       0.070   8.990  21.911  0.00  0.00    +0.000 A 
ATOM      8  C   UNL     1      -0.594   9.446  23.052  0.00  0.00    +0.000 A 
ATOM      9  C   UNL     1      -0.990  10.782  23.155  0.00  0.00    +0.000 A 
ATOM     10  C   UNL     1      -0.721  11.677  22.117  0.00  0.00    +0.000 A 
ATOM     11  C   UNL     1      -0.080  11.203  20.967  0.00  0.00    +0.000 A 
BRANCH  10  12
ATOM     12  C   UNL     1      -1.118  13.125  22.205  0.00  0.00    +0.000 C 
BRANCH  12  13
ATOM     13  N   UNL     1      -2.502  13.252  22.582  0.00  0.00    +0.000 N 
ATOM     14  C   UNL     1      -2.995  14.451  23.048  0.00  0.00    +0.000 C 
ATOM     15  O   UNL     1      -2.290  15.453  23.181  0.00  0.00    +0.000 OA
ATOM     16  H   UNL     1      -3.130  12.491  22.392  0.00  0.00    +0.000 HD
BRANCH  14  17
ATOM     17  C   UNL     1      -4.408  14.452  23.364  0.00  0.00    +0.000 A 
ATOM     18  C   UNL     1      -5.178  15.560  23.804  0.00  0.00    +0.000 A 
ATOM     19  N   UNL     1      -6.461  15.250  24.022  0.00  0.00    +0.000 NA
ATOM     20  N   UNL     1      -6.522  13.942  23.727  0.00  0.00    +0.000 N 
ATOM     21  C   UNL     1      -7.770  13.227  23.845  0.00  0.00    +0.000 C 
ATOM     22  C   UNL     1      -5.326  13.416  23.328  0.00  0.00    +0.000 A 
ENDBRANCH  14  17
ENDBRANCH  12  13
ENDBRANCH  10  12
ENDBRANCH   4   6
BRANCH   1  24
ATOM     23  N   UNL     1       3.535   6.048  19.127  0.00  0.00    +0.000 N 
ATOM     24  C   UNL     1       2.496   6.487  18.344  0.00  0.00    +0.000 C 
ATOM     25  O   UNL     1       1.918   5.756  17.541  0.00  0.00    +0.000 OA
ATOM     26  H   UNL     1       3.736   6.612  19.945  0.00  0.00    +0.000 HD
BRANCH  23  27
ATOM     27  C   UNL     1       4.178   4.739  19.034  0.00  0.00    +0.000 C 
BRANCH  27  28
ATOM     28  C   UNL     1       3.646   3.593  19.959  0.00  0.00    +0.000 C 
ATOM     29  C   UNL     1       2.533   3.924  20.961  0.00  0.00    +0.000 C 
ATOM     30  C   UNL     1       1.110   3.921  20.403  0.00  0.00    +0.000 C 
ATOM     31  C   UNL     1       0.769   2.736  19.516  0.00  0.00    +0.000 C 
ATOM     32  C   UNL     1       1.888   2.279  18.587  0.00  0.00    +0.000 C 
ATOM     33  C   UNL     1       3.277   2.296  19.212  0.00  0.00    +0.000 C 
ENDBRANCH  27  28
BRANCH  27  36
ATOM     34  C   UNL     1       7.696   4.428  17.475  0.00  0.00    +0.000 C 
ATOM     35  N   UNL     1       6.278   4.466  17.710  0.00  0.00    +0.000 N 
ATOM     36  C   UNL     1       5.740   4.775  18.940  0.00  0.00    +0.000 C 
ATOM     37  O   UNL     1       6.437   5.088  19.903  0.00  0.00    +0.000 OA
ATOM     38  H   UNL     1       5.693   4.694  16.909  0.00  0.00    +0.000 HD
ENDBRANCH  27  36
ENDBRANCH  23  27
ENDBRANCH   1  24
TORSDOF 8
ENDMDL
MODEL 2
REMARK VINA RESULT:      -9.1      2.478      3.929
REMARK  Name = 
REMARK  10 active torsions:
REMARK  status: ('A' for Active; 'I' for Inactive)
REMARK    1  A    between atoms: C_1  and  N_2
REMARK    2  A    between atoms: C_3  and  C_5
REMARK    3  A    between atoms: C_5  and  N_6
REMARK    4  A    between atoms: C_5  and  C_30
REMARK    5  A    between atoms: C_7  and  C_9
REMARK    6  A    between atoms: C_12  and  C_13
REMARK    7  A    between atoms: C_17  and  C_18
REMARK    8  A    between atoms: C_18  and  N_19
REMARK    9  A    between atoms: C_20  and  C_22
REMARK   10  A    between atoms: N_25  and  C_26
REMARK                            x       y       z     vdW  Elec       q    Type
REMARK                         _______ _______ _______ _____ _____    ______ ____
ROOT
ATOM      1  C   UNL     1       2.113   7.857  18.577  0.00  0.00    +0.000 A 
ATOM      2  C   UNL     1       2.045   8.942  17.729  0.00  0.00    +0.000 A 
ATOM      3  C   UNL     1       1.420   9.979  18.458  0.00  0.00    +0.000 A 
ATOM      4  C   UNL     1       1.114   9.456  19.700  0.00  0.00    +0.000 A 
ATOM      5  O   UNL     1       1.625   8.196  19.798  0.00  0.00    +0.000 OA
ENDROOT
BRANCH   4   6
ATOM      6  C   UNL     1       0.331   9.884  20.853  0.00  0.00    +0.000 A 
ATOM      7  C   UNL     1       0.201   9.070  21.984  0.00  0.00    +0.000 A 
ATOM      8  C   UNL     1      -0.472   9.540  23.115  0.00  0.00    +0.000 A 
ATOM      9  C   UNL     1      -1.008  10.831  23.134  0.00  0.00    +0.000 A 
ATOM     10  C   UNL     1      -0.871  11.665  22.023  0.00  0.00    +0.000 A 
ATOM     11  C   UNL     1      -0.219  11.174  20.886  0.00  0.00    +0.000 A 
BRANCH  10  12
ATOM     12  C   UNL     1      -1.420  13.066  22.019  0.00  0.00    +0.000 C 
BRANCH  12  13
ATOM     13  N   UNL     1      -0.740  13.877  21.042  0.00  0.00    +0.000 N 
ATOM     14  C   UNL     1       0.292  14.710  21.416  0.00  0.00    +0.000 C 
ATOM     15  O   UNL     1       0.669  14.816  22.585  0.00  0.00    +0.000 OA
ATOM     16  H   UNL     1      -0.948  13.743  20.068  0.00  0.00    +0.000 HD
BRANCH  14  17
ATOM     17  C   UNL     1       0.909  15.447  20.334  0.00  0.00    +0.000 A 
ATOM     18  C   UNL     1       2.253  15.339  19.892  0.00  0.00    +0.000 A 
ATOM     19  N   UNL     1       2.534  16.157  18.871  0.00  0.00    +0.000 NA
ATOM     20  N   UNL     1       1.374  16.796  18.654  0.00  0.00    +0.000 N 
ATOM     21  C   UNL     1       1.274  17.786  17.608  0.00  0.00    +0.000 C 
ATOM     22  C   UNL     1       0.371  16.410  19.497  0.00  0.00    +0.000 A 
ENDBRANCH  14  17
ENDBRANCH  12  13
ENDBRANCH  10  12
ENDBRANCH   4   6
BRANCH   1  24
ATOM     23  N   UNL     1       3.547   6.061  19.134  0.00  0.00    +0.000 N 
ATOM     24  C   UNL     1       2.498   6.494  18.362  0.00  0.00    +0.000 C 
ATOM     25  O   UNL     1       1.910   5.757  17.571  0.00  0.00    +0.000 OA
ATOM     26  H   UNL     1       3.759   6.630  19.946  0.00  0.00    +0.000 HD
BRANCH  23  27
ATOM     27  C   UNL     1       4.190   4.752  19.042  0.00  0.00    +0.000 C 
BRANCH  27  28
ATOM     28  C   UNL     1       3.663   3.609  19.974  0.00  0.00    +0.000 C 
ATOM     29  C   UNL     1       2.527   3.933  20.952  0.00  0.00    +0.000 C 
ATOM     30  C   UNL     1       1.114   3.896  20.371  0.00  0.00    +0.000 C 
ATOM     31  C   UNL     1       0.810   2.693  19.495  0.00  0.00    +0.000 C 
ATOM     32  C   UNL     1       1.952   2.245  18.591  0.00  0.00    +0.000 C 
ATOM     33  C   UNL     1       3.330   2.295  19.238  0.00  0.00    +0.000 C 
ENDBRANCH  27  28
BRANCH  27  36
ATOM     34  C   UNL     1       7.700   4.408  17.473  0.00  0.00    +0.000 C 
ATOM     35  N   UNL     1       6.283   4.449  17.714  0.00  0.00    +0.000 N 
ATOM     36  C   UNL     1       5.751   4.787  18.939  0.00  0.00    +0.000 C 
ATOM     37  O   UNL     1       6.453   5.124  19.891  0.00  0.00    +0.000 OA
ATOM     38  H   UNL     1       5.694   4.657  16.911  0.00  0.00    +0.000 HD
ENDBRANCH  27  36
ENDBRANCH  23  27
ENDBRANCH   1  24
TORSDOF 8
ENDMDL
MODEL 3
REMARK VINA RESULT:      -9.0      2.416      3.688
REMARK  Name = 
REMARK  10 active torsions:
REMARK  status: ('A' for Active; 'I' for Inactive)
REMARK    1  A    between atoms: C_1  and  N_2
REMARK    2  A    between atoms: C_3  and  C_5
REMARK    3  A    between atoms: C_5  and  N_6
REMARK    4  A    between atoms: C_5  and  C_30
REMARK    5  A    between atoms: C_7  and  C_9
REMARK    6  A    between atoms: C_12  and  C_13
REMARK    7  A    between atoms: C_17  and  C_18
REMARK    8  A    between atoms: C_18  and  N_19
REMARK    9  A    between atoms: C_20  and  C_22
REMARK   10  A    between atoms: N_25  and  C_26
REMARK                            x       y       z     vdW  Elec       q    Type
REMARK                         _______ _______ _______ _____ _____    ______ ____
ROOT
ATOM      1  C   UNL     1       2.140   7.833  18.577  0.00  0.00    +0.000 A 
ATOM      2  C   UNL     1       2.095   8.916  17.725  0.00  0.00    +0.000 A 
ATOM      3  C   UNL     1       1.462   9.959  18.440  0.00  0.00    +0.000 A 
ATOM      4  C   UNL     1       1.130   9.440  19.678  0.00  0.00    +0.000 A 
ATOM      5  O   UNL     1       1.631   8.177  19.788  0.00  0.00    +0.000 OA
ENDROOT
BRANCH   4   6
ATOM      6  C   UNL     1       0.328   9.876  20.815  0.00  0.00    +0.000 A 
ATOM      7  C   UNL     1       0.271   9.123  21.994  0.00  0.00    +0.000 A 
ATOM      8  C   UNL     1      -0.424   9.607  23.105  0.00  0.00    +0.000 A 
ATOM      9  C   UNL     1      -1.056  10.852  23.056  0.00  0.00    +0.000 A 
ATOM     10  C   UNL     1      -0.994  11.628  21.896  0.00  0.00    +0.000 A 
ATOM     11  C   UNL     1      -0.318  11.120  20.780  0.00  0.00    +0.000 A 
BRANCH  10  12
ATOM     12  C   UNL     1      -1.647  12.980  21.819  0.00  0.00    +0.000 C 
BRANCH  12  13
ATOM     13  N   UNL     1      -0.966  13.822  20.869  0.00  0.00    +0.000 N 
ATOM     14  C   UNL     1      -1.304  15.150  20.739  0.00  0.00    +0.000 C 
ATOM     15  O   UNL     1      -2.200  15.676  21.402  0.00  0.00    +0.000 OA
ATOM     16  H   UNL     1      -0.164  13.459  20.384  0.00  0.00    +0.000 HD
BRANCH  14  17
ATOM     17  C   UNL     1      -0.523  15.890  19.771  0.00  0.00    +0.000 A 
ATOM     18  C   UNL     1      -0.998  16.892  18.884  0.00  0.00    +0.000 A 
ATOM     19  N   UNL     1      -0.037  17.393  18.100  0.00  0.00    +0.000 NA
ATOM     20  N   UNL     1       1.058  16.715  18.475  0.00  0.00    +0.000 N 
ATOM     21  C   UNL     1       2.328  16.977  17.840  0.00  0.00    +0.000 C 
ATOM     22  C   UNL     1       0.825  15.808  19.469  0.00  0.00    +0.000 A 
ENDBRANCH  14  17
ENDBRANCH  12  13
ENDBRANCH  10  12
ENDBRANCH   4   6
BRANCH   1  24
ATOM     23  N   UNL     1       3.574   6.038  19.141  0.00  0.00    +0.000 N 
ATOM     24  C   UNL     1       2.521   6.466  18.372  0.00  0.00    +0.000 C 
ATOM     25  O   UNL     1       1.925   5.724  17.592  0.00  0.00    +0.000 OA
ATOM     26  H   UNL     1       3.792   6.615  19.946  0.00  0.00    +0.000 HD
BRANCH  23  27
ATOM     27  C   UNL     1       4.213   4.727  19.057  0.00  0.00    +0.000 C 
BRANCH  27  28
ATOM     28  C   UNL     1       3.682   3.591  19.995  0.00  0.00    +0.000 C 
ATOM     29  C   UNL     1       2.581   3.936  21.005  0.00  0.00    +0.000 C 
ATOM     30  C   UNL     1       1.152   3.939  20.462  0.00  0.00    +0.000 C 
ATOM     31  C   UNL     1       0.795   2.750  19.586  0.00  0.00    +0.000 C 
ATOM     32  C   UNL     1       1.901   2.280  18.649  0.00  0.00    +0.000 C 
ATOM     33  C   UNL     1       3.297   2.291  19.260  0.00  0.00    +0.000 C 
ENDBRANCH  27  28
BRANCH  27  36
ATOM     34  C   UNL     1       7.721   4.406  17.479  0.00  0.00    +0.000 C 
ATOM     35  N   UNL     1       6.305   4.448  17.722  0.00  0.00    +0.000 N 
ATOM     36  C   UNL     1       5.774   4.757  18.955  0.00  0.00    +0.000 C 
ATOM     37  O   UNL     1       6.477   5.067  19.915  0.00  0.00    +0.000 OA
ATOM     38  H   UNL     1       5.716   4.679  16.924  0.00  0.00    +0.000 HD
ENDBRANCH  27  36
ENDBRANCH  23  27
ENDBRANCH   1  24
TORSDOF 8
ENDMDL
MODEL 4
REMARK VINA RESULT:      -8.8      2.332      3.931
REMARK  Name = 
REMARK  10 active torsions:
REMARK  status: ('A' for Active; 'I' for Inactive)
REMARK    1  A    between atoms: C_1  and  N_2
REMARK    2  A    between atoms: C_3  and  C_5
REMARK    3  A    between atoms: C_5  and  N_6
REMARK    4  A    between atoms: C_5  and  C_30
REMARK    5  A    between atoms: C_7  and  C_9
REMARK    6  A    between atoms: C_12  and  C_13
REMARK    7  A    between atoms: C_17  and  C_18
REMARK    8  A    between atoms: C_18  and  N_19
REMARK    9  A    between atoms: C_20  and  C_22
REMARK   10  A    between atoms: N_25  and  C_26
REMARK                            x       y       z     vdW  Elec       q    Type
REMARK                         _______ _______ _______ _____ _____    ______ ____
ROOT
ATOM      1  C   UNL     1       2.337   7.668  18.646  0.00  0.00    +0.000 A 
ATOM      2  C   UNL     1       2.078   8.665  17.729  0.00  0.00    +0.000 A 
ATOM      3  C   UNL     1       1.358   9.665  18.422  0.00  0.00    +0.000 A 
ATOM      4  C   UNL     1       1.194   9.205  19.715  0.00  0.00    +0.000 A 
ATOM      5  O   UNL     1       1.874   8.034  19.868  0.00  0.00    +0.000 OA
ENDROOT
BRANCH   4   6
ATOM      6  C   UNL     1       0.423   9.616  20.882  0.00  0.00    +0.000 A 
ATOM      7  C   UNL     1       0.523   8.927  22.097  0.00  0.00    +0.000 A 
ATOM      8  C   UNL     1      -0.148   9.396  23.228  0.00  0.00    +0.000 A 
ATOM      9  C   UNL     1      -0.914  10.564  23.163  0.00  0.00    +0.000 A 
ATOM     10  C   UNL     1      -1.011  11.276  21.966  0.00  0.00    +0.000 A 
ATOM     11  C   UNL     1      -0.356  10.782  20.832  0.00  0.00    +0.000 A 
BRANCH  10  12
ATOM     12  C   UNL     1      -1.812  12.545  21.869  0.00  0.00    +0.000 C 
BRANCH  12  13
ATOM     13  N   UNL     1      -1.250  13.568  22.714  0.00  0.00    +0.000 N 
ATOM     14  C   UNL     1      -2.003  14.147  23.711  0.00  0.00    +0.000 C 
ATOM     15  O   UNL     1      -3.179  13.839  23.918  0.00  0.00    +0.000 OA
ATOM     16  H   UNL     1      -0.269  13.772  22.644  0.00  0.00    +0.000 HD
BRANCH  14  17
ATOM     17  C   UNL     1      -1.312  15.138  24.506  0.00  0.00    +0.000 A 
ATOM     18  C   UNL     1      -0.292  16.021  24.063  0.00  0.00    +0.000 A 
ATOM     19  N   UNL     1       0.162  16.823  25.033  0.00  0.00    +0.000 NA
ATOM     20  N   UNL     1      -0.559  16.458  26.104  0.00  0.00    +0.000 N 
ATOM     21  C   UNL     1      -0.351  17.107  27.376  0.00  0.00    +0.000 C 
ATOM     22  C   UNL     1      -1.453  15.458  25.845  0.00  0.00    +0.000 A 
ENDBRANCH  14  17
ENDBRANCH  12  13
ENDBRANCH  10  12
ENDBRANCH   4   6
BRANCH   1  24
ATOM     23  N   UNL     1       4.043   6.132  19.215  0.00  0.00    +0.000 N 
ATOM     24  C   UNL     1       2.892   6.354  18.502  0.00  0.00    +0.000 C 
ATOM     25  O   UNL     1       2.356   5.482  17.821  0.00  0.00    +0.000 OA
ATOM     26  H   UNL     1       4.232   6.792  19.961  0.00  0.00    +0.000 HD
BRANCH  23  27
ATOM     27  C   UNL     1       4.853   4.916  19.169  0.00  0.00    +0.000 C 
BRANCH  27  28
ATOM     28  C   UNL     1       5.949   4.807  18.055  0.00  0.00    +0.000 C 
ATOM     29  C   UNL     1       5.774   5.639  16.778  0.00  0.00    +0.000 C 
ATOM     30  C   UNL     1       6.229   7.096  16.864  0.00  0.00    +0.000 C 
ATOM     31  C   UNL     1       7.579   7.312  17.526  0.00  0.00    +0.000 C 
ATOM     32  C   UNL     1       7.860   6.418  18.728  0.00  0.00    +0.000 C 
ATOM     33  C   UNL     1       7.392   4.976  18.570  0.00  0.00    +0.000 C 
ENDBRANCH  27  28
BRANCH  27  36
ATOM     34  C   UNL     1       3.588   1.336  18.475  0.00  0.00    +0.000 C 
ATOM     35  N   UNL     1       4.267   2.602  18.434  0.00  0.00    +0.000 N 
ATOM     36  C   UNL     1       4.058   3.584  19.378  0.00  0.00    +0.000 C 
ATOM     37  O   UNL     1       3.316   3.421  20.344  0.00  0.00    +0.000 OA
ATOM     38  H   UNL     1       5.184   2.609  17.994  0.00  0.00    +0.000 HD
ENDBRANCH  27  36
ENDBRANCH  23  27
ENDBRANCH   1  24
TORSDOF 8
ENDMDL
MODEL 5
REMARK VINA RESULT:      -8.7      3.004      5.138
REMARK  Name = 
REMARK  10 active torsions:
REMARK  status: ('A' for Active; 'I' for Inactive)
REMARK    1  A    between atoms: C_1  and  N_2
REMARK    2  A    between atoms: C_3  and  C_5
REMARK    3  A    between atoms: C_5  and  N_6
REMARK    4  A    between atoms: C_5  and  C_30
REMARK    5  A    between atoms: C_7  and  C_9
REMARK    6  A    between atoms: C_12  and  C_13
REMARK    7  A    between atoms: C_17  and  C_18
REMARK    8  A    between atoms: C_18  and  N_19
REMARK    9  A    between atoms: C_20  and  C_22
REMARK   10  A    between atoms: N_25  and  C_26
REMARK                            x       y       z     vdW  Elec       q    Type
REMARK                         _______ _______ _______ _____ _____    ______ ____
ROOT
ATOM      1  C   UNL     1       2.408   7.573  18.595  0.00  0.00    +0.000 A 
ATOM      2  C   UNL     1       2.151   8.537  17.643  0.00  0.00    +0.000 A 
ATOM      3  C   UNL     1       1.429   9.561  18.298  0.00  0.00    +0.000 A 
ATOM      4  C   UNL     1       1.261   9.148  19.606  0.00  0.00    +0.000 A 
ATOM      5  O   UNL     1       1.941   7.983  19.802  0.00  0.00    +0.000 OA
ENDROOT
BRANCH   4   6
ATOM      6  C   UNL     1       0.487   9.599  20.756  0.00  0.00    +0.000 A 
ATOM      7  C   UNL     1       0.124   8.716  21.778  0.00  0.00    +0.000 A 
ATOM      8  C   UNL     1      -0.533   9.189  22.917  0.00  0.00    +0.000 A 
ATOM      9  C   UNL     1      -0.819  10.551  23.053  0.00  0.00    +0.000 A 
ATOM     10  C   UNL     1      -0.448  11.451  22.053  0.00  0.00    +0.000 A 
ATOM     11  C   UNL     1       0.185  10.961  20.904  0.00  0.00    +0.000 A 
BRANCH  10  12
ATOM     12  C   UNL     1      -0.725  12.924  22.179  0.00  0.00    +0.000 C 
BRANCH  12  13
ATOM     13  N   UNL     1       0.347  13.695  21.605  0.00  0.00    +0.000 N 
ATOM     14  C   UNL     1       0.110  14.560  20.560  0.00  0.00    +0.000 C 
ATOM     15  O   UNL     1      -1.006  14.705  20.058  0.00  0.00    +0.000 OA
ATOM     16  H   UNL     1       1.248  13.683  22.051  0.00  0.00    +0.000 HD
BRANCH  14  17
ATOM     17  C   UNL     1       1.267  15.296  20.097  0.00  0.00    +0.000 A 
ATOM     18  C   UNL     1       1.672  15.480  18.749  0.00  0.00    +0.000 A 
ATOM     19  N   UNL     1       2.791  16.204  18.635  0.00  0.00    +0.000 NA
ATOM     20  N   UNL     1       3.113  16.486  19.906  0.00  0.00    +0.000 N 
ATOM     21  C   UNL     1       4.290  17.267  20.202  0.00  0.00    +0.000 C 
ATOM     22  C   UNL     1       2.237  15.969  20.818  0.00  0.00    +0.000 A 
ENDBRANCH  14  17
ENDBRANCH  12  13
ENDBRANCH  10  12
ENDBRANCH   4   6
BRANCH   1  24
ATOM     23  N   UNL     1       4.129   6.068  19.199  0.00  0.00    +0.000 N 
ATOM     24  C   UNL     1       2.963   6.255  18.500  0.00  0.00    +0.000 C 
ATOM     25  O   UNL     1       2.415   5.352  17.871  0.00  0.00    +0.000 OA
ATOM     26  H   UNL     1       4.331   6.761  19.910  0.00  0.00    +0.000 HD
BRANCH  23  27
ATOM     27  C   UNL     1       4.941   4.852  19.191  0.00  0.00    +0.000 C 
BRANCH  27  28
ATOM     28  C   UNL     1       6.075   4.735  18.118  0.00  0.00    +0.000 C 
ATOM     29  C   UNL     1       5.885   5.453  16.776  0.00  0.00    +0.000 C 
ATOM     30  C   UNL     1       6.236   6.940  16.758  0.00  0.00    +0.000 C 
ATOM     31  C   UNL     1       7.548   7.300  17.436  0.00  0.00    +0.000 C 
ATOM     32  C   UNL     1       7.852   6.522  18.711  0.00  0.00    +0.000 C 
ATOM     33  C   UNL     1       7.488   5.044  18.654  0.00  0.00    +0.000 C 
ENDBRANCH  27  28
BRANCH  27  36
ATOM     34  C   UNL     1       3.503   1.367  18.360  0.00  0.00    +0.000 C 
ATOM     35  N   UNL     1       4.207   2.621  18.343  0.00  0.00    +0.000 N 
ATOM     36  C   UNL     1       4.140   3.521  19.384  0.00  0.00    +0.000 C 
ATOM     37  O   UNL     1       3.514   3.288  20.416  0.00  0.00    +0.000 OA
ATOM     38  H   UNL     1       5.066   2.650  17.797  0.00  0.00    +0.000 HD
ENDBRANCH  27  36
ENDBRANCH  23  27
ENDBRANCH   1  24
TORSDOF 8
ENDMDL
MODEL 6
REMARK VINA RESULT:      -8.6      2.907      5.163
REMARK  Name = 
REMARK  10 active torsions:
REMARK  status: ('A' for Active; 'I' for Inactive)
REMARK    1  A    between atoms: C_1  and  N_2
REMARK    2  A    between atoms: C_3  and  C_5
REMARK    3  A    between atoms: C_5  and  N_6
REMARK    4  A    between atoms: C_5  and  C_30
REMARK    5  A    between atoms: C_7  and  C_9
REMARK    6  A    between atoms: C_12  and  C_13
REMARK    7  A    between atoms: C_17  and  C_18
REMARK    8  A    between atoms: C_18  and  N_19
REMARK    9  A    between atoms: C_20  and  C_22
REMARK   10  A    between atoms: N_25  and  C_26
REMARK                            x       y       z     vdW  Elec       q    Type
REMARK                         _______ _______ _______ _____ _____    ______ ____
ROOT
ATOM      1  C   UNL     1       2.346   7.653  18.638  0.00  0.00    +0.000 A 
ATOM      2  C   UNL     1       2.193   8.653  17.701  0.00  0.00    +0.000 A 
ATOM      3  C   UNL     1       1.513   9.708  18.353  0.00  0.00    +0.000 A 
ATOM      4  C   UNL     1       1.264   9.275  19.642  0.00  0.00    +0.000 A 
ATOM      5  O   UNL     1       1.857   8.064  19.835  0.00  0.00    +0.000 OA
ENDROOT
BRANCH   4   6
ATOM      6  C   UNL     1       0.474   9.751  20.772  0.00  0.00    +0.000 A 
ATOM      7  C   UNL     1       0.097   8.888  21.808  0.00  0.00    +0.000 A 
ATOM      8  C   UNL     1      -0.575   9.385  22.927  0.00  0.00    +0.000 A 
ATOM      9  C   UNL     1      -0.864  10.749  23.031  0.00  0.00    +0.000 A 
ATOM     10  C   UNL     1      -0.479  11.629  22.017  0.00  0.00    +0.000 A 
ATOM     11  C   UNL     1       0.169  11.115  20.888  0.00  0.00    +0.000 A 
BRANCH  10  12
ATOM     12  C   UNL     1      -0.759  13.104  22.108  0.00  0.00    +0.000 C 
BRANCH  12  13
ATOM     13  N   UNL     1       0.114  13.843  21.233  0.00  0.00    +0.000 N 
ATOM     14  C   UNL     1       0.880  14.880  21.717  0.00  0.00    +0.000 C 
ATOM     15  O   UNL     1       0.846  15.236  22.897  0.00  0.00    +0.000 OA
ATOM     16  H   UNL     1       0.246  13.520  20.291  0.00  0.00    +0.000 HD
BRANCH  14  17
ATOM     17  C   UNL     1       1.735  15.520  20.741  0.00  0.00    +0.000 A 
ATOM     18  C   UNL     1       2.744  16.485  20.999  0.00  0.00    +0.000 A 
ATOM     19  N   UNL     1       3.365  16.899  19.889  0.00  0.00    +0.000 NA
ATOM     20  N   UNL     1       2.757  16.208  18.913  0.00  0.00    +0.000 N 
ATOM     21  C   UNL     1       3.157  16.387  17.537  0.00  0.00    +0.000 C 
ATOM     22  C   UNL     1       1.778  15.370  19.366  0.00  0.00    +0.000 A 
ENDBRANCH  14  17
ENDBRANCH  12  13
ENDBRANCH  10  12
ENDBRANCH   4   6
BRANCH   1  24
ATOM     23  N   UNL     1       3.966   6.035  19.231  0.00  0.00    +0.000 N 
ATOM     24  C   UNL     1       2.816   6.303  18.530  0.00  0.00    +0.000 C 
ATOM     25  O   UNL     1       2.216   5.442  17.889  0.00  0.00    +0.000 OA
ATOM     26  H   UNL     1       4.208   6.707  19.950  0.00  0.00    +0.000 HD
BRANCH  23  27
ATOM     27  C   UNL     1       4.699   4.771  19.213  0.00  0.00    +0.000 C 
BRANCH  27  28
ATOM     28  C   UNL     1       5.779   4.565  18.097  0.00  0.00    +0.000 C 
ATOM     29  C   UNL     1       5.556   5.238  16.736  0.00  0.00    +0.000 C 
ATOM     30  C   UNL     1       5.966   6.707  16.642  0.00  0.00    +0.000 C 
ATOM     31  C   UNL     1       7.319   7.038  17.247  0.00  0.00    +0.000 C 
ATOM     32  C   UNL     1       7.650   6.299  18.539  0.00  0.00    +0.000 C 
ATOM     33  C   UNL     1       7.225   4.835  18.558  0.00  0.00    +0.000 C 
ENDBRANCH  27  28
BRANCH  27  36
ATOM     34  C   UNL     1       1.977   2.525  20.777  0.00  0.00    +0.000 C 
ATOM     35  N   UNL     1       2.840   3.617  20.417  0.00  0.00    +0.000 N 
ATOM     36  C   UNL     1       3.826   3.496  19.462  0.00  0.00    +0.000 C 
ATOM     37  O   UNL     1       3.998   2.461  18.821  0.00  0.00    +0.000 OA
ATOM     38  H   UNL     1       2.458   4.553  20.531  0.00  0.00    +0.000 HD
ENDBRANCH  27  36
ENDBRANCH  23  27
ENDBRANCH   1  24
TORSDOF 8
ENDMDL
MODEL 7
REMARK VINA RESULT:      -8.6      3.836      5.343
REMARK  Name = 
REMARK  10 active torsions:
REMARK  status: ('A' for Active; 'I' for Inactive)
REMARK    1  A    between atoms: C_1  and  N_2
REMARK    2  A    between atoms: C_3  and  C_5
REMARK    3  A    between atoms: C_5  and  N_6
REMARK    4  A    between atoms: C_5  and  C_30
REMARK    5  A    between atoms: C_7  and  C_9
REMARK    6  A    between atoms: C_12  and  C_13
REMARK    7  A    between atoms: C_17  and  C_18
REMARK    8  A    between atoms: C_18  and  N_19
REMARK    9  A    between atoms: C_20  and  C_22
REMARK   10  A    between atoms: N_25  and  C_26
REMARK                            x       y       z     vdW  Elec       q    Type
REMARK                         _______ _______ _______ _____ _____    ______ ____
ROOT
ATOM      1  C   UNL     1       3.267   5.593  19.700  0.00  0.00    +0.000 A 
ATOM      2  C   UNL     1       2.387   4.721  20.305  0.00  0.00    +0.000 A 
ATOM      3  C   UNL     1       1.322   5.509  20.799  0.00  0.00    +0.000 A 
ATOM      4  C   UNL     1       1.632   6.821  20.494  0.00  0.00    +0.000 A 
ATOM      5  O   UNL     1       2.768   6.854  19.742  0.00  0.00    +0.000 OA
ENDROOT
BRANCH   4   6
ATOM      6  C   UNL     1       1.098   8.132  20.845  0.00  0.00    +0.000 A 
ATOM      7  C   UNL     1       0.746   8.442  22.164  0.00  0.00    +0.000 A 
ATOM      8  C   UNL     1       0.330   9.734  22.495  0.00  0.00    +0.000 A 
ATOM      9  C   UNL     1       0.276  10.732  21.517  0.00  0.00    +0.000 A 
ATOM     10  C   UNL     1       0.642  10.447  20.200  0.00  0.00    +0.000 A 
ATOM     11  C   UNL     1       1.031   9.143  19.875  0.00  0.00    +0.000 A 
BRANCH  10  12
ATOM     12  C   UNL     1       0.612  11.504  19.130  0.00  0.00    +0.000 C 
BRANCH  12  13
ATOM     13  N   UNL     1      -0.414  11.219  18.161  0.00  0.00    +0.000 N 
ATOM     14  C   UNL     1      -1.706  11.655  18.357  0.00  0.00    +0.000 C 
ATOM     15  O   UNL     1      -2.049  12.284  19.359  0.00  0.00    +0.000 OA
ATOM     16  H   UNL     1      -0.154  10.800  17.285  0.00  0.00    +0.000 HD
BRANCH  14  17
ATOM     17  C   UNL     1      -2.632  11.328  17.294  0.00  0.00    +0.000 A 
ATOM     18  C   UNL     1      -4.034  11.551  17.291  0.00  0.00    +0.000 A 
ATOM     19  N   UNL     1      -4.626  11.135  16.166  0.00  0.00    +0.000 NA
ATOM     20  N   UNL     1      -3.610  10.640  15.442  0.00  0.00    +0.000 N 
ATOM     21  C   UNL     1      -3.855  10.080  14.134  0.00  0.00    +0.000 C 
ATOM     22  C   UNL     1      -2.399  10.730  16.067  0.00  0.00    +0.000 A 
ENDBRANCH  14  17
ENDBRANCH  12  13
ENDBRANCH  10  12
ENDBRANCH   4   6
BRANCH   1  24
ATOM     23  N   UNL     1       4.875   6.191  18.072  0.00  0.00    +0.000 N 
ATOM     24  C   UNL     1       4.582   5.407  19.160  0.00  0.00    +0.000 C 
ATOM     25  O   UNL     1       5.397   4.631  19.656  0.00  0.00    +0.000 OA
ATOM     26  H   UNL     1       4.269   6.990  17.931  0.00  0.00    +0.000 HD
BRANCH  23  27
ATOM     27  C   UNL     1       6.104   6.127  17.283  0.00  0.00    +0.000 C 
BRANCH  27  28
ATOM     28  C   UNL     1       6.545   4.733  16.724  0.00  0.00    +0.000 C 
ATOM     29  C   UNL     1       5.455   3.755  16.264  0.00  0.00    +0.000 C 
ATOM     30  C   UNL     1       4.914   3.975  14.852  0.00  0.00    +0.000 C 
ATOM     31  C   UNL     1       5.970   4.221  13.788  0.00  0.00    +0.000 C 
ATOM     32  C   UNL     1       7.146   5.084  14.230  0.00  0.00    +0.000 C 
ATOM     33  C   UNL     1       7.643   4.803  15.643  0.00  0.00    +0.000 C 
ENDBRANCH  27  28
BRANCH  27  36
ATOM     34  C   UNL     1       8.432   9.157  17.833  0.00  0.00    +0.000 C 
ATOM     35  N   UNL     1       7.376   8.272  17.422  0.00  0.00    +0.000 N 
ATOM     36  C   UNL     1       7.298   6.965  17.851  0.00  0.00    +0.000 C 
ATOM     37  O   UNL     1       8.099   6.486  18.651  0.00  0.00    +0.000 OA
ATOM     38  H   UNL     1       6.486   8.707  17.189  0.00  0.00    +0.000 HD
ENDBRANCH  27  36
ENDBRANCH  23  27
ENDBRANCH   1  24
TORSDOF 8
ENDMDL
MODEL 8
REMARK VINA RESULT:      -8.5      3.559     11.672
REMARK  Name = 
REMARK  10 active torsions:
REMARK  status: ('A' for Active; 'I' for Inactive)
REMARK    1  A    between atoms: C_1  and  N_2
REMARK    2  A    between atoms: C_3  and  C_5
REMARK    3  A    between atoms: C_5  and  N_6
REMARK    4  A    between atoms: C_5  and  C_30
REMARK    5  A    between atoms: C_7  and  C_9
REMARK    6  A    between atoms: C_12  and  C_13
REMARK    7  A    between atoms: C_17  and  C_18
REMARK    8  A    between atoms: C_18  and  N_19
REMARK    9  A    between atoms: C_20  and  C_22
REMARK   10  A    between atoms: N_25  and  C_26
REMARK                            x       y       z     vdW  Elec       q    Type
REMARK                         _______ _______ _______ _____ _____    ______ ____
ROOT
ATOM      1  C   UNL     1       1.259   9.338  18.792  0.00  0.00    +0.000 A 
ATOM      2  C   UNL     1       2.284   9.374  17.871  0.00  0.00    +0.000 A 
ATOM      3  C   UNL     1       2.907   8.105  17.920  0.00  0.00    +0.000 A 
ATOM      4  C   UNL     1       2.243   7.380  18.892  0.00  0.00    +0.000 A 
ATOM      5  O   UNL     1       1.182   8.103  19.350  0.00  0.00    +0.000 OA
ENDROOT
BRANCH   4   6
ATOM      6  C   UNL     1       2.453   6.110  19.577  0.00  0.00    +0.000 A 
ATOM      7  C   UNL     1       1.552   5.650  20.544  0.00  0.00    +0.000 A 
ATOM      8  C   UNL     1       1.720   4.387  21.117  0.00  0.00    +0.000 A 
ATOM      9  C   UNL     1       2.778   3.565  20.720  0.00  0.00    +0.000 A 
ATOM     10  C   UNL     1       3.676   3.998  19.743  0.00  0.00    +0.000 A 
ATOM     11  C   UNL     1       3.515   5.276  19.196  0.00  0.00    +0.000 A 
BRANCH  10  12
ATOM     12  C   UNL     1       4.814   3.129  19.281  0.00  0.00    +0.000 C 
BRANCH  12  13
ATOM     13  N   UNL     1       5.164   3.431  17.917  0.00  0.00    +0.000 N 
ATOM     14  C   UNL     1       6.302   4.149  17.625  0.00  0.00    +0.000 C 
ATOM     15  O   UNL     1       7.058   4.578  18.499  0.00  0.00    +0.000 OA
ATOM     16  H   UNL     1       4.631   3.013  17.174  0.00  0.00    +0.000 HD
BRANCH  14  17
ATOM     17  C   UNL     1       6.553   4.357  16.215  0.00  0.00    +0.000 A 
ATOM     18  C   UNL     1       7.332   5.392  15.635  0.00  0.00    +0.000 A 
ATOM     19  N   UNL     1       7.375   5.327  14.300  0.00  0.00    +0.000 NA
ATOM     20  N   UNL     1       6.623   4.254  14.014  0.00  0.00    +0.000 N 
ATOM     21  C   UNL     1       6.422   3.851  12.643  0.00  0.00    +0.000 C 
ATOM     22  C   UNL     1       6.109   3.637  15.120  0.00  0.00    +0.000 A 
ENDBRANCH  14  17
ENDBRANCH  12  13
ENDBRANCH  10  12
ENDBRANCH   4   6
BRANCH   1  24
ATOM     23  N   UNL     1       0.103  11.365  18.404  0.00  0.00    +0.000 N 
ATOM     24  C   UNL     1       0.384  10.357  19.293  0.00  0.00    +0.000 C 
ATOM     25  O   UNL     1      -0.106  10.313  20.420  0.00  0.00    +0.000 OA
ATOM     26  H   UNL     1       0.302  11.160  17.432  0.00  0.00    +0.000 HD
BRANCH  23  27
ATOM     27  C   UNL     1      -0.682  12.563  18.695  0.00  0.00    +0.000 C 
BRANCH  27  28
ATOM     28  C   UNL     1      -0.113  13.574  19.748  0.00  0.00    +0.000 C 
ATOM     29  C   UNL     1       1.409  13.724  19.864  0.00  0.00    +0.000 C 
ATOM     30  C   UNL     1       2.067  14.656  18.847  0.00  0.00    +0.000 C 
ATOM     31  C   UNL     1       1.359  15.984  18.637  0.00  0.00    +0.000 C 
ATOM     32  C   UNL     1      -0.163  15.913  18.641  0.00  0.00    +0.000 C 
ATOM     33  C   UNL     1      -0.752  14.976  19.689  0.00  0.00    +0.000 C 
ENDBRANCH  27  28
BRANCH  27  36
ATOM     34  C   UNL     1      -4.311  11.746  17.664  0.00  0.00    +0.000 C 
ATOM     35  N   UNL     1      -2.891  11.970  17.693  0.00  0.00    +0.000 N 
ATOM     36  C   UNL     1      -2.221  12.326  18.843  0.00  0.00    +0.000 C 
ATOM     37  O   UNL     1      -2.788  12.428  19.930  0.00  0.00    +0.000 OA
ATOM     38  H   UNL     1      -2.338  11.457  17.010  0.00  0.00    +0.000 HD
ENDBRANCH  27  36
ENDBRANCH  23  27
ENDBRANCH   1  24
TORSDOF 8
ENDMDL
MODEL 9
REMARK VINA RESULT:      -8.5      2.931      4.288
REMARK  Name = 
REMARK  10 active torsions:
REMARK  status: ('A' for Active; 'I' for Inactive)
REMARK    1  A    between atoms: C_1  and  N_2
REMARK    2  A    between atoms: C_3  and  C_5
REMARK    3  A    between atoms: C_5  and  N_6
REMARK    4  A    between atoms: C_5  and  C_30
REMARK    5  A    between atoms: C_7  and  C_9
REMARK    6  A    between atoms: C_12  and  C_13
REMARK    7  A    between atoms: C_17  and  C_18
REMARK    8  A    between atoms: C_18  and  N_19
REMARK    9  A    between atoms: C_20  and  C_22
REMARK   10  A    between atoms: N_25  and  C_26
REMARK                            x       y       z     vdW  Elec       q    Type
REMARK                         _______ _______ _______ _____ _____    ______ ____
ROOT
ATOM      1  C   UNL     1       2.627   7.617  18.519  0.00  0.00    +0.000 A 
ATOM      2  C   UNL     1       2.079   8.373  17.505  0.00  0.00    +0.000 A 
ATOM      3  C   UNL     1       1.202   9.294  18.123  0.00  0.00    +0.000 A 
ATOM      4  C   UNL     1       1.243   9.024  19.478  0.00  0.00    +0.000 A 
ATOM      5  O   UNL     1       2.183   8.067  19.721  0.00  0.00    +0.000 OA
ENDROOT
BRANCH   4   6
ATOM      6  C   UNL     1       0.487   9.443  20.652  0.00  0.00    +0.000 A 
ATOM      7  C   UNL     1       0.084   8.518  21.623  0.00  0.00    +0.000 A 
ATOM      8  C   UNL     1      -0.554   8.954  22.787  0.00  0.00    +0.000 A 
ATOM      9  C   UNL     1      -0.781  10.316  23.001  0.00  0.00    +0.000 A 
ATOM     10  C   UNL     1      -0.369  11.256  22.054  0.00  0.00    +0.000 A 
ATOM     11  C   UNL     1       0.244  10.806  20.880  0.00  0.00    +0.000 A 
BRANCH  10  12
ATOM     12  C   UNL     1      -0.582  12.730  22.265  0.00  0.00    +0.000 C 
BRANCH  12  13
ATOM     13  N   UNL     1       0.294  13.497  21.417  0.00  0.00    +0.000 N 
ATOM     14  C   UNL     1      -0.212  14.237  20.371  0.00  0.00    +0.000 C 
ATOM     15  O   UNL     1      -1.414  14.268  20.100  0.00  0.00    +0.000 OA
ATOM     16  H   UNL     1       1.264  13.580  21.666  0.00  0.00    +0.000 HD
BRANCH  14  17
ATOM     17  C   UNL     1       0.770  14.985  19.616  0.00  0.00    +0.000 A 
ATOM     18  C   UNL     1       0.894  16.398  19.549  0.00  0.00    +0.000 A 
ATOM     19  N   UNL     1       1.898  16.797  18.761  0.00  0.00    +0.000 NA
ATOM     20  N   UNL     1       2.423  15.645  18.315  0.00  0.00    +0.000 N 
ATOM     21  C   UNL     1       3.551  15.660  17.415  0.00  0.00    +0.000 C 
ATOM     22  C   UNL     1       1.789  14.534  18.795  0.00  0.00    +0.000 A 
ENDBRANCH  14  17
ENDBRANCH  12  13
ENDBRANCH  10  12
ENDBRANCH   4   6
BRANCH   1  24
ATOM     23  N   UNL     1       3.007   5.433  17.694  0.00  0.00    +0.000 N 
ATOM     24  C   UNL     1       3.455   6.447  18.503  0.00  0.00    +0.000 C 
ATOM     25  O   UNL     1       4.506   6.372  19.138  0.00  0.00    +0.000 OA
ATOM     26  H   UNL     1       2.317   5.698  17.000  0.00  0.00    +0.000 HD
BRANCH  23  27
ATOM     27  C   UNL     1       3.613   4.109  17.573  0.00  0.00    +0.000 C 
BRANCH  27  28
ATOM     28  C   UNL     1       3.396   3.093  18.745  0.00  0.00    +0.000 C 
ATOM     29  C   UNL     1       3.211   3.647  20.163  0.00  0.00    +0.000 C 
ATOM     30  C   UNL     1       1.800   4.117  20.518  0.00  0.00    +0.000 C 
ATOM     31  C   UNL     1       0.685   3.172  20.106  0.00  0.00    +0.000 C 
ATOM     32  C   UNL     1       0.878   2.491  18.756  0.00  0.00    +0.000 C 
ATOM     33  C   UNL     1       2.306   2.037  18.474  0.00  0.00    +0.000 C 
ENDBRANCH  27  28
BRANCH  27  36
ATOM     34  C   UNL     1       7.461   4.413  17.568  0.00  0.00    +0.000 C 
ATOM     35  N   UNL     1       6.071   4.359  17.933  0.00  0.00    +0.000 N 
ATOM     36  C   UNL     1       5.076   4.099  17.017  0.00  0.00    +0.000 C 
ATOM     37  O   UNL     1       5.316   3.847  15.838  0.00  0.00    +0.000 OA
ATOM     38  H   UNL     1       5.865   4.082  18.890  0.00  0.00    +0.000 HD
ENDBRANCH  27  36
ENDBRANCH  23  27
ENDBRANCH   1  24
TORSDOF 8
ENDMDL
