MODEL 1
REMARK VINA RESULT:      -7.4      0.000      0.000
REMARK  Name = 
REMARK  9 active torsions:
REMARK  status: ('A' for Active; 'I' for Inactive)
REMARK    1  A    between atoms: C_1  and  C_2
REMARK    2  A    between atoms: C_2  and  C_3
REMARK    3  A    between atoms: C_3  and  C_4
REMARK    4  A    between atoms: C_3  and  N_6
REMARK    5  A    between atoms: C_4  and  O_5
REMARK    6  A    between atoms: N_6  and  C_7
REMARK    7  A    between atoms: C_7  and  C_8
REMARK    8  A    between atoms: C_14  and  C_16
REMARK    9  A    between atoms: C_19  and  C_20
REMARK                            x       y       z     vdW  Elec       q    Type
REMARK                         _______ _______ _______ _____ _____    ______ ____
ROOT
ATOM      1  N   UNL     1       3.856   4.953  17.251  0.00  0.00    +0.000 N 
ATOM      2  C   UNL     1       4.120   6.185  17.887  0.00  0.00    +0.000 C 
ATOM      3  O   UNL     1       5.213   6.750  17.833  0.00  0.00    +0.000 OA
ENDROOT
BRANCH   2   4
ATOM      4  C   UNL     1       3.084   6.966  18.608  0.00  0.00    +0.000 A 
ATOM      5  C   UNL     1       2.683   6.667  19.908  0.00  0.00    +0.000 A 
ATOM      6  C   UNL     1       1.716   7.452  20.540  0.00  0.00    +0.000 A 
ATOM      7  C   UNL     1       1.185   8.591  19.915  0.00  0.00    +0.000 A 
ATOM      8  C   UNL     1       0.166   9.419  20.637  0.00  0.00    +0.000 C 
ATOM      9  C   UNL     1       1.662   8.936  18.641  0.00  0.00    +0.000 A 
ATOM     10 CL   UNL     1       1.140  10.381  17.849  0.00  0.00    +0.000 Cl
ATOM     11  C   UNL     1       2.593   8.126  17.989  0.00  0.00    +0.000 A 
ENDBRANCH   2   4
BRANCH   1  12
ATOM     12  C   UNL     1       4.953   4.243  16.495  0.00  0.00    +0.000 C 
BRANCH  12  14
ATOM     13  C   UNL     1       6.118   3.956  14.185  0.00  0.00    +0.000 C 
ATOM     14  C   UNL     1       5.147   4.752  15.044  0.00  0.00    +0.000 C 
ENDBRANCH  12  14
BRANCH  12  15
ATOM     15  C   UNL     1       6.294   4.241  17.261  0.00  0.00    +0.000 C 
BRANCH  15  16
ATOM     16  O   UNL     1       6.127   3.784  18.604  0.00  0.00    +0.000 OA
ATOM     17  H   UNL     1       6.690   2.997  18.695  0.00  0.00    +0.000 HD
ENDBRANCH  15  16
ENDBRANCH  12  15
ENDBRANCH   1  12
BRANCH   1  18
ATOM     18  C   UNL     1       2.610   4.169  17.449  0.00  0.00    +0.000 C 
BRANCH  18  19
ATOM     19  C   UNL     1       2.420   3.558  18.817  0.00  0.00    +0.000 A 
ATOM     20  C   UNL     1       1.184   3.604  19.457  0.00  0.00    +0.000 A 
ATOM     21  C   UNL     1       1.102   3.194  20.782  0.00  0.00    +0.000 A 
ATOM     22  C   UNL     1       2.240   2.722  21.425  0.00  0.00    +0.000 A 
ATOM     23  C   UNL     1       3.414   2.641  20.696  0.00  0.00    +0.000 A 
ATOM     24  N   UNL     1       3.526   3.035  19.411  0.00  0.00    +0.000 NA
ENDBRANCH  18  19
ENDBRANCH   1  18
TORSDOF 7
ENDMDL
MODEL 2
REMARK VINA RESULT:      -7.3      1.429      1.794
REMARK  Name = 
REMARK  9 active torsions:
REMARK  status: ('A' for Active; 'I' for Inactive)
REMARK    1  A    between atoms: C_1  and  C_2
REMARK    2  A    between atoms: C_2  and  C_3
REMARK    3  A    between atoms: C_3  and  C_4
REMARK    4  A    between atoms: C_3  and  N_6
REMARK    5  A    between atoms: C_4  and  O_5
REMARK    6  A    between atoms: N_6  and  C_7
REMARK    7  A    between atoms: C_7  and  C_8
REMARK    8  A    between atoms: C_14  and  C_16
REMARK    9  A    between atoms: C_19  and  C_20
REMARK                            x       y       z     vdW  Elec       q    Type
REMARK                         _______ _______ _______ _____ _____    ______ ____
ROOT
ATOM      1  N   UNL     1       3.300   5.461  17.629  0.00  0.00    +0.000 N 
ATOM      2  C   UNL     1       3.641   6.789  17.962  0.00  0.00    +0.000 C 
ATOM      3  O   UNL     1       4.783   7.238  17.856  0.00  0.00    +0.000 OA
ENDROOT
BRANCH   2   4
ATOM      4  C   UNL     1       2.643   7.802  18.388  0.00  0.00    +0.000 A 
ATOM      5  C   UNL     1       2.011   8.661  17.494  0.00  0.00    +0.000 A 
ATOM      6  C   UNL     1       1.065   9.581  17.954  0.00  0.00    +0.000 A 
ATOM      7  C   UNL     1       0.680   9.608  19.303  0.00  0.00    +0.000 A 
ATOM      8  C   UNL     1      -0.355  10.595  19.752  0.00  0.00    +0.000 C 
ATOM      9  C   UNL     1       1.256   8.677  20.181  0.00  0.00    +0.000 A 
ATOM     10 CL   UNL     1       0.757   8.574  21.833  0.00  0.00    +0.000 Cl
ATOM     11  C   UNL     1       2.236   7.790  19.732  0.00  0.00    +0.000 A 
ENDBRANCH   2   4
BRANCH   1  12
ATOM     12  C   UNL     1       4.367   4.503  17.157  0.00  0.00    +0.000 C 
BRANCH  12  14
ATOM     13  C   UNL     1       6.531   4.681  15.720  0.00  0.00    +0.000 C 
ATOM     14  C   UNL     1       5.030   4.911  15.816  0.00  0.00    +0.000 C 
ENDBRANCH  12  14
BRANCH  12  15
ATOM     15  C   UNL     1       5.436   4.229  18.237  0.00  0.00    +0.000 C 
BRANCH  15  16
ATOM     16  O   UNL     1       5.121   3.063  18.999  0.00  0.00    +0.000 OA
ATOM     17  H   UNL     1       5.162   2.314  18.380  0.00  0.00    +0.000 HD
ENDBRANCH  15  16
ENDBRANCH  12  15
ENDBRANCH   1  12
BRANCH   1  18
ATOM     18  C   UNL     1       1.978   4.849  17.916  0.00  0.00    +0.000 C 
BRANCH  18  19
ATOM     19  C   UNL     1       1.886   4.028  19.180  0.00  0.00    +0.000 A 
ATOM     20  C   UNL     1       1.911   4.637  20.432  0.00  0.00    +0.000 A 
ATOM     21  C   UNL     1       2.008   3.835  21.563  0.00  0.00    +0.000 A 
ATOM     22  C   UNL     1       2.047   2.453  21.422  0.00  0.00    +0.000 A 
ATOM     23  C   UNL     1       1.945   1.925  20.146  0.00  0.00    +0.000 A 
ATOM     24  N   UNL     1       1.854   2.676  19.030  0.00  0.00    +0.000 NA
ENDBRANCH  18  19
ENDBRANCH   1  18
TORSDOF 7
ENDMDL
MODEL 3
REMARK VINA RESULT:      -7.1      2.067      3.988
REMARK  Name = 
REMARK  9 active torsions:
REMARK  status: ('A' for Active; 'I' for Inactive)
REMARK    1  A    between atoms: C_1  and  C_2
REMARK    2  A    between atoms: C_2  and  C_3
REMARK    3  A    between atoms: C_3  and  C_4
REMARK    4  A    between atoms: C_3  and  N_6
REMARK    5  A    between atoms: C_4  and  O_5
REMARK    6  A    between atoms: N_6  and  C_7
REMARK    7  A    between atoms: C_7  and  C_8
REMARK    8  A    between atoms: C_14  and  C_16
REMARK    9  A    between atoms: C_19  and  C_20
REMARK                            x       y       z     vdW  Elec       q    Type
REMARK                         _______ _______ _______ _____ _____    ______ ____
ROOT
ATOM      1  N   UNL     1       3.434   4.424  19.553  0.00  0.00    +0.000 N 
ATOM      2  C   UNL     1       2.192   5.046  19.306  0.00  0.00    +0.000 C 
ATOM      3  O   UNL     1       1.143   4.418  19.158  0.00  0.00    +0.000 OA
ENDROOT
BRANCH   2   4
ATOM      4  C   UNL     1       2.009   6.519  19.290  0.00  0.00    +0.000 A 
ATOM      5  C   UNL     1       2.099   7.278  18.126  0.00  0.00    +0.000 A 
ATOM      6  C   UNL     1       1.898   8.659  18.172  0.00  0.00    +0.000 A 
ATOM      7  C   UNL     1       1.532   9.298  19.367  0.00  0.00    +0.000 A 
ATOM      8  C   UNL     1       1.305  10.779  19.371  0.00  0.00    +0.000 C 
ATOM      9  C   UNL     1       1.356   8.512  20.518  0.00  0.00    +0.000 A 
ATOM     10 CL   UNL     1       0.802   9.205  22.001  0.00  0.00    +0.000 Cl
ATOM     11  C   UNL     1       1.603   7.139  20.483  0.00  0.00    +0.000 A 
ENDBRANCH   2   4
BRANCH   1  12
ATOM     12  C   UNL     1       3.529   2.918  19.601  0.00  0.00    +0.000 C 
BRANCH  12  14
ATOM     13  C   UNL     1       2.635   2.143  17.282  0.00  0.00    +0.000 C 
ATOM     14  C   UNL     1       3.821   2.262  18.227  0.00  0.00    +0.000 C 
ENDBRANCH  12  14
BRANCH  12  15
ATOM     15  C   UNL     1       4.527   2.423  20.670  0.00  0.00    +0.000 C 
BRANCH  15  16
ATOM     16  O   UNL     1       5.335   1.354  20.174  0.00  0.00    +0.000 OA
ATOM     17  H   UNL     1       5.455   0.737  20.916  0.00  0.00    +0.000 HD
ENDBRANCH  15  16
ENDBRANCH  12  15
ENDBRANCH   1  12
BRANCH   1  18
ATOM     18  C   UNL     1       4.734   5.143  19.557  0.00  0.00    +0.000 C 
BRANCH  18  19
ATOM     19  C   UNL     1       5.511   5.118  18.262  0.00  0.00    +0.000 A 
ATOM     20  C   UNL     1       4.909   5.479  17.059  0.00  0.00    +0.000 A 
ATOM     21  C   UNL     1       5.604   5.267  15.874  0.00  0.00    +0.000 A 
ATOM     22  C   UNL     1       6.887   4.732  15.919  0.00  0.00    +0.000 A 
ATOM     23  C   UNL     1       7.440   4.468  17.160  0.00  0.00    +0.000 A 
ATOM     24  N   UNL     1       6.789   4.658  18.325  0.00  0.00    +0.000 NA
ENDBRANCH  18  19
ENDBRANCH   1  18
TORSDOF 7
ENDMDL
MODEL 4
REMARK VINA RESULT:      -7.0      2.114      4.450
REMARK  Name = 
REMARK  9 active torsions:
REMARK  status: ('A' for Active; 'I' for Inactive)
REMARK    1  A    between atoms: C_1  and  C_2
REMARK    2  A    between atoms: C_2  and  C_3
REMARK    3  A    between atoms: C_3  and  C_4
REMARK    4  A    between atoms: C_3  and  N_6
REMARK    5  A    between atoms: C_4  and  O_5
REMARK    6  A    between atoms: N_6  and  C_7
REMARK    7  A    between atoms: C_7  and  C_8
REMARK    8  A    between atoms: C_14  and  C_16
REMARK    9  A    between atoms: C_19  and  C_20
REMARK                            x       y       z     vdW  Elec       q    Type
REMARK                         _______ _______ _______ _____ _____    ______ ____
ROOT
ATOM      1  N   UNL     1       3.605   4.500  19.370  0.00  0.00    +0.000 N 
ATOM      2  C   UNL     1       2.351   5.069  19.066  0.00  0.00    +0.000 C 
ATOM      3  O   UNL     1       1.334   4.399  18.882  0.00  0.00    +0.000 OA
ENDROOT
BRANCH   2   4
ATOM      4  C   UNL     1       2.111   6.534  19.026  0.00  0.00    +0.000 A 
ATOM      5  C   UNL     1       2.114   7.267  17.842  0.00  0.00    +0.000 A 
ATOM      6  C   UNL     1       1.863   8.641  17.868  0.00  0.00    +0.000 A 
ATOM      7  C   UNL     1       1.532   9.294  19.065  0.00  0.00    +0.000 A 
ATOM      8  C   UNL     1       1.248  10.765  19.047  0.00  0.00    +0.000 C 
ATOM      9  C   UNL     1       1.444   8.531  20.240  0.00  0.00    +0.000 A 
ATOM     10 CL   UNL     1       0.938   9.238  21.734  0.00  0.00    +0.000 Cl
ATOM     11  C   UNL     1       1.741   7.167  20.224  0.00  0.00    +0.000 A 
ENDBRANCH   2   4
BRANCH   1  12
ATOM     12  C   UNL     1       3.757   3.000  19.439  0.00  0.00    +0.000 C 
BRANCH  12  14
ATOM     13  C   UNL     1       2.383   3.244  21.637  0.00  0.00    +0.000 C 
ATOM     14  C   UNL     1       3.308   2.383  20.789  0.00  0.00    +0.000 C 
ENDBRANCH  12  14
BRANCH  12  15
ATOM     15  C   UNL     1       3.077   2.281  18.253  0.00  0.00    +0.000 C 
BRANCH  15  16
ATOM     16  O   UNL     1       1.942   1.527  18.682  0.00  0.00    +0.000 OA
ATOM     17  H   UNL     1       1.160   2.053  18.444  0.00  0.00    +0.000 HD
ENDBRANCH  15  16
ENDBRANCH  12  15
ENDBRANCH   1  12
BRANCH   1  18
ATOM     18  C   UNL     1       4.875   5.270  19.419  0.00  0.00    +0.000 C 
BRANCH  18  19
ATOM     19  C   UNL     1       5.723   5.233  18.170  0.00  0.00    +0.000 A 
ATOM     20  C   UNL     1       5.223   5.682  16.951  0.00  0.00    +0.000 A 
ATOM     21  C   UNL     1       5.969   5.461  15.800  0.00  0.00    +0.000 A 
ATOM     22  C   UNL     1       7.203   4.828  15.895  0.00  0.00    +0.000 A 
ATOM     23  C   UNL     1       7.660   4.477  17.153  0.00  0.00    +0.000 A 
ATOM     24  N   UNL     1       6.958   4.674  18.287  0.00  0.00    +0.000 NA
ENDBRANCH  18  19
ENDBRANCH   1  18
TORSDOF 7
ENDMDL
MODEL 5
REMARK VINA RESULT:      -7.0      2.124      4.215
REMARK  Name = 
REMARK  9 active torsions:
REMARK  status: ('A' for Active; 'I' for Inactive)
REMARK    1  A    between atoms: C_1  and  C_2
REMARK    2  A    between atoms: C_2  and  C_3
REMARK    3  A    between atoms: C_3  and  C_4
REMARK    4  A    between atoms: C_3  and  N_6
REMARK    5  A    between atoms: C_4  and  O_5
REMARK    6  A    between atoms: N_6  and  C_7
REMARK    7  A    between atoms: C_7  and  C_8
REMARK    8  A    between atoms: C_14  and  C_16
REMARK    9  A    between atoms: C_19  and  C_20
REMARK                            x       y       z     vdW  Elec       q    Type
REMARK                         _______ _______ _______ _____ _____    ______ ____
ROOT
ATOM      1  N   UNL     1       3.170   4.512  19.440  0.00  0.00    +0.000 N 
ATOM      2  C   UNL     1       2.243   5.441  19.958  0.00  0.00    +0.000 C 
ATOM      3  O   UNL     1       1.488   5.186  20.896  0.00  0.00    +0.000 OA
ENDROOT
BRANCH   2   4
ATOM      4  C   UNL     1       2.147   6.844  19.484  0.00  0.00    +0.000 A 
ATOM      5  C   UNL     1       2.369   7.210  18.159  0.00  0.00    +0.000 A 
ATOM      6  C   UNL     1       2.244   8.546  17.770  0.00  0.00    +0.000 A 
ATOM      7  C   UNL     1       1.824   9.528  18.679  0.00  0.00    +0.000 A 
ATOM      8  C   UNL     1       1.682  10.947  18.217  0.00  0.00    +0.000 C 
ATOM      9  C   UNL     1       1.515   9.135  19.991  0.00  0.00    +0.000 A 
ATOM     10 CL   UNL     1       0.888  10.263  21.141  0.00  0.00    +0.000 Cl
ATOM     11  C   UNL     1       1.685   7.809  20.393  0.00  0.00    +0.000 A 
ENDBRANCH   2   4
BRANCH   1  12
ATOM     12  C   UNL     1       3.240   3.116  20.009  0.00  0.00    +0.000 C 
BRANCH  12  14
ATOM     13  C   UNL     1       1.107   2.261  18.785  0.00  0.00    +0.000 C 
ATOM     14  C   UNL     1       1.866   2.403  20.096  0.00  0.00    +0.000 C 
ENDBRANCH  12  14
BRANCH  12  15
ATOM     15  C   UNL     1       4.273   2.230  19.278  0.00  0.00    +0.000 C 
BRANCH  15  16
ATOM     16  O   UNL     1       5.246   1.709  20.183  0.00  0.00    +0.000 OA
ATOM     17  H   UNL     1       5.783   2.466  20.472  0.00  0.00    +0.000 HD
ENDBRANCH  15  16
ENDBRANCH  12  15
ENDBRANCH   1  12
BRANCH   1  18
ATOM     18  C   UNL     1       3.960   4.734  18.201  0.00  0.00    +0.000 C 
BRANCH  18  19
ATOM     19  C   UNL     1       5.280   5.448  18.374  0.00  0.00    +0.000 A 
ATOM     20  C   UNL     1       5.734   6.354  17.419  0.00  0.00    +0.000 A 
ATOM     21  C   UNL     1       7.029   6.847  17.528  0.00  0.00    +0.000 A 
ATOM     22  C   UNL     1       7.825   6.451  18.597  0.00  0.00    +0.000 A 
ATOM     23  C   UNL     1       7.273   5.603  19.541  0.00  0.00    +0.000 A 
ATOM     24  N   UNL     1       6.022   5.105  19.461  0.00  0.00    +0.000 NA
ENDBRANCH  18  19
ENDBRANCH   1  18
TORSDOF 7
ENDMDL
MODEL 6
REMARK VINA RESULT:      -6.9      1.759      2.307
REMARK  Name = 
REMARK  9 active torsions:
REMARK  status: ('A' for Active; 'I' for Inactive)
REMARK    1  A    between atoms: C_1  and  C_2
REMARK    2  A    between atoms: C_2  and  C_3
REMARK    3  A    between atoms: C_3  and  C_4
REMARK    4  A    between atoms: C_3  and  N_6
REMARK    5  A    between atoms: C_4  and  O_5
REMARK    6  A    between atoms: N_6  and  C_7
REMARK    7  A    between atoms: C_7  and  C_8
REMARK    8  A    between atoms: C_14  and  C_16
REMARK    9  A    between atoms: C_19  and  C_20
REMARK                            x       y       z     vdW  Elec       q    Type
REMARK                         _______ _______ _______ _____ _____    ______ ____
ROOT
ATOM      1  N   UNL     1       3.137   5.681  17.778  0.00  0.00    +0.000 N 
ATOM      2  C   UNL     1       3.430   7.028  18.079  0.00  0.00    +0.000 C 
ATOM      3  O   UNL     1       4.555   7.514  17.961  0.00  0.00    +0.000 OA
ENDROOT
BRANCH   2   4
ATOM      4  C   UNL     1       2.396   8.014  18.482  0.00  0.00    +0.000 A 
ATOM      5  C   UNL     1       1.709   8.804  17.565  0.00  0.00    +0.000 A 
ATOM      6  C   UNL     1       0.733   9.701  18.005  0.00  0.00    +0.000 A 
ATOM      7  C   UNL     1       0.373   9.772  19.360  0.00  0.00    +0.000 A 
ATOM      8  C   UNL     1      -0.695  10.732  19.789  0.00  0.00    +0.000 C 
ATOM      9  C   UNL     1       1.008   8.908  20.266  0.00  0.00    +0.000 A 
ATOM     10 CL   UNL     1       0.548   8.858  21.931  0.00  0.00    +0.000 Cl
ATOM     11  C   UNL     1       2.017   8.045  19.834  0.00  0.00    +0.000 A 
ENDBRANCH   2   4
BRANCH   1  12
ATOM     12  C   UNL     1       4.237   4.751  17.327  0.00  0.00    +0.000 C 
BRANCH  12  14
ATOM     13  C   UNL     1       6.760   4.755  17.972  0.00  0.00    +0.000 C 
ATOM     14  C   UNL     1       5.324   4.495  18.403  0.00  0.00    +0.000 C 
ENDBRANCH  12  14
BRANCH  12  15
ATOM     15  C   UNL     1       3.692   3.418  16.769  0.00  0.00    +0.000 C 
BRANCH  15  16
ATOM     16  O   UNL     1       4.041   2.318  17.612  0.00  0.00    +0.000 OA
ATOM     17  H   UNL     1       3.299   2.202  18.229  0.00  0.00    +0.000 HD
ENDBRANCH  15  16
ENDBRANCH  12  15
ENDBRANCH   1  12
BRANCH   1  18
ATOM     18  C   UNL     1       1.837   5.028  18.081  0.00  0.00    +0.000 C 
BRANCH  18  19
ATOM     19  C   UNL     1       1.776   4.234  19.365  0.00  0.00    +0.000 A 
ATOM     20  C   UNL     1       2.228   4.776  20.564  0.00  0.00    +0.000 A 
ATOM     21  C   UNL     1       2.322   3.950  21.678  0.00  0.00    +0.000 A 
ATOM     22  C   UNL     1       1.936   2.618  21.577  0.00  0.00    +0.000 A 
ATOM     23  C   UNL     1       1.431   2.176  20.367  0.00  0.00    +0.000 A 
ATOM     24  N   UNL     1       1.332   2.952  19.268  0.00  0.00    +0.000 NA
ENDBRANCH  18  19
ENDBRANCH   1  18
TORSDOF 7
ENDMDL
MODEL 7
REMARK VINA RESULT:      -6.9      1.429      1.799
REMARK  Name = 
REMARK  9 active torsions:
REMARK  status: ('A' for Active; 'I' for Inactive)
REMARK    1  A    between atoms: C_1  and  C_2
REMARK    2  A    between atoms: C_2  and  C_3
REMARK    3  A    between atoms: C_3  and  C_4
REMARK    4  A    between atoms: C_3  and  N_6
REMARK    5  A    between atoms: C_4  and  O_5
REMARK    6  A    between atoms: N_6  and  C_7
REMARK    7  A    between atoms: C_7  and  C_8
REMARK    8  A    between atoms: C_14  and  C_16
REMARK    9  A    between atoms: C_19  and  C_20
REMARK                            x       y       z     vdW  Elec       q    Type
REMARK                         _______ _______ _______ _____ _____    ______ ____
ROOT
ATOM      1  N   UNL     1       3.278   5.590  17.581  0.00  0.00    +0.000 N 
ATOM      2  C   UNL     1       3.594   6.918  17.939  0.00  0.00    +0.000 C 
ATOM      3  O   UNL     1       4.724   7.394  17.828  0.00  0.00    +0.000 OA
ENDROOT
BRANCH   2   4
ATOM      4  C   UNL     1       2.580   7.898  18.401  0.00  0.00    +0.000 A 
ATOM      5  C   UNL     1       1.906   8.753  17.533  0.00  0.00    +0.000 A 
ATOM      6  C   UNL     1       0.948   9.641  18.027  0.00  0.00    +0.000 A 
ATOM      7  C   UNL     1       0.591   9.640  19.384  0.00  0.00    +0.000 A 
ATOM      8  C   UNL     1      -0.458  10.594  19.870  0.00  0.00    +0.000 C 
ATOM      9  C   UNL     1       1.210   8.712  20.237  0.00  0.00    +0.000 A 
ATOM     10 CL   UNL     1       0.750   8.573  21.897  0.00  0.00    +0.000 Cl
ATOM     11  C   UNL     1       2.202   7.857  19.754  0.00  0.00    +0.000 A 
ENDBRANCH   2   4
BRANCH   1  12
ATOM     12  C   UNL     1       4.359   4.667  17.074  0.00  0.00    +0.000 C 
BRANCH  12  14
ATOM     13  C   UNL     1       5.660   4.166  14.875  0.00  0.00    +0.000 C 
ATOM     14  C   UNL     1       5.124   5.212  15.840  0.00  0.00    +0.000 C 
ENDBRANCH  12  14
BRANCH  12  15
ATOM     15  C   UNL     1       5.342   4.240  18.185  0.00  0.00    +0.000 C 
BRANCH  15  16
ATOM     16  O   UNL     1       6.523   5.044  18.174  0.00  0.00    +0.000 OA
ATOM     17  H   UNL     1       6.242   5.944  18.413  0.00  0.00    +0.000 HD
ENDBRANCH  15  16
ENDBRANCH  12  15
ENDBRANCH   1  12
BRANCH   1  18
ATOM     18  C   UNL     1       1.974   4.942  17.873  0.00  0.00    +0.000 C 
BRANCH  18  19
ATOM     19  C   UNL     1       1.917   4.094  19.122  0.00  0.00    +0.000 A 
ATOM     20  C   UNL     1       1.307   2.844  19.112  0.00  0.00    +0.000 A 
ATOM     21  C   UNL     1       1.118   2.182  20.319  0.00  0.00    +0.000 A 
ATOM     22  C   UNL     1       1.568   2.766  21.498  0.00  0.00    +0.000 A 
ATOM     23  C   UNL     1       2.229   3.979  21.413  0.00  0.00    +0.000 A 
ATOM     24  N   UNL     1       2.423   4.647  20.258  0.00  0.00    +0.000 NA
ENDBRANCH  18  19
ENDBRANCH   1  18
TORSDOF 7
ENDMDL
MODEL 8
REMARK VINA RESULT:      -6.9      1.877      4.114
REMARK  Name = 
REMARK  9 active torsions:
REMARK  status: ('A' for Active; 'I' for Inactive)
REMARK    1  A    between atoms: C_1  and  C_2
REMARK    2  A    between atoms: C_2  and  C_3
REMARK    3  A    between atoms: C_3  and  C_4
REMARK    4  A    between atoms: C_3  and  N_6
REMARK    5  A    between atoms: C_4  and  O_5
REMARK    6  A    between atoms: N_6  and  C_7
REMARK    7  A    between atoms: C_7  and  C_8
REMARK    8  A    between atoms: C_14  and  C_16
REMARK    9  A    between atoms: C_19  and  C_20
REMARK                            x       y       z     vdW  Elec       q    Type
REMARK                         _______ _______ _______ _____ _____    ______ ____
ROOT
ATOM      1  N   UNL     1       2.941   4.769  19.043  0.00  0.00    +0.000 N 
ATOM      2  C   UNL     1       2.348   5.689  19.932  0.00  0.00    +0.000 C 
ATOM      3  O   UNL     1       2.070   5.413  21.100  0.00  0.00    +0.000 OA
ENDROOT
BRANCH   2   4
ATOM      4  C   UNL     1       2.082   7.106  19.578  0.00  0.00    +0.000 A 
ATOM      5  C   UNL     1       2.302   7.619  18.303  0.00  0.00    +0.000 A 
ATOM      6  C   UNL     1       2.015   8.958  18.026  0.00  0.00    +0.000 A 
ATOM      7  C   UNL     1       1.433   9.788  18.996  0.00  0.00    +0.000 A 
ATOM      8  C   UNL     1       1.119  11.213  18.653  0.00  0.00    +0.000 C 
ATOM      9  C   UNL     1       1.131   9.239  20.252  0.00  0.00    +0.000 A 
ATOM     10 CL   UNL     1       0.317  10.163  21.464  0.00  0.00    +0.000 Cl
ATOM     11  C   UNL     1       1.462   7.914  20.545  0.00  0.00    +0.000 A 
ENDBRANCH   2   4
BRANCH   1  12
ATOM     12  C   UNL     1       3.224   3.356  19.494  0.00  0.00    +0.000 C 
BRANCH  12  14
ATOM     13  C   UNL     1       1.005   2.235  18.720  0.00  0.00    +0.000 C 
ATOM     14  C   UNL     1       2.524   2.270  18.637  0.00  0.00    +0.000 C 
ENDBRANCH  12  14
BRANCH  12  15
ATOM     15  C   UNL     1       4.736   3.067  19.618  0.00  0.00    +0.000 C 
BRANCH  15  16
ATOM     16  O   UNL     1       4.982   1.687  19.894  0.00  0.00    +0.000 OA
ATOM     17  H   UNL     1       5.422   1.657  20.760  0.00  0.00    +0.000 HD
ENDBRANCH  15  16
ENDBRANCH  12  15
ENDBRANCH   1  12
BRANCH   1  18
ATOM     18  C   UNL     1       3.120   5.019  17.589  0.00  0.00    +0.000 C 
BRANCH  18  19
ATOM     19  C   UNL     1       4.543   5.008  17.083  0.00  0.00    +0.000 A 
ATOM     20  C   UNL     1       5.436   6.015  17.436  0.00  0.00    +0.000 A 
ATOM     21  C   UNL     1       6.674   6.062  16.805  0.00  0.00    +0.000 A 
ATOM     22  C   UNL     1       7.000   5.092  15.864  0.00  0.00    +0.000 A 
ATOM     23  C   UNL     1       6.083   4.083  15.623  0.00  0.00    +0.000 A 
ATOM     24  N   UNL     1       4.874   4.013  16.216  0.00  0.00    +0.000 NA
ENDBRANCH  18  19
ENDBRANCH   1  18
TORSDOF 7
ENDMDL
MODEL 9
REMARK VINA RESULT:      -6.9      1.869      4.057
REMARK  Name = 
REMARK  9 active torsions:
REMARK  status: ('A' for Active; 'I' for Inactive)
REMARK    1  A    between atoms: C_1  and  C_2
REMARK    2  A    between atoms: C_2  and  C_3
REMARK    3  A    between atoms: C_3  and  C_4
REMARK    4  A    between atoms: C_3  and  N_6
REMARK    5  A    between atoms: C_4  and  O_5
REMARK    6  A    between atoms: N_6  and  C_7
REMARK    7  A    between atoms: C_7  and  C_8
REMARK    8  A    between atoms: C_14  and  C_16
REMARK    9  A    between atoms: C_19  and  C_20
REMARK                            x       y       z     vdW  Elec       q    Type
REMARK                         _______ _______ _______ _____ _____    ______ ____
ROOT
ATOM      1  N   UNL     1       2.919   4.765  19.070  0.00  0.00    +0.000 N 
ATOM      2  C   UNL     1       2.334   5.690  19.960  0.00  0.00    +0.000 C 
ATOM      3  O   UNL     1       2.058   5.418  21.128  0.00  0.00    +0.000 OA
ENDROOT
BRANCH   2   4
ATOM      4  C   UNL     1       2.076   7.108  19.603  0.00  0.00    +0.000 A 
ATOM      5  C   UNL     1       2.298   7.618  18.327  0.00  0.00    +0.000 A 
ATOM      6  C   UNL     1       2.018   8.958  18.049  0.00  0.00    +0.000 A 
ATOM      7  C   UNL     1       1.442   9.793  19.018  0.00  0.00    +0.000 A 
ATOM      8  C   UNL     1       1.136  11.219  18.673  0.00  0.00    +0.000 C 
ATOM      9  C   UNL     1       1.138   9.247  20.275  0.00  0.00    +0.000 A 
ATOM     10 CL   UNL     1       0.330  10.179  21.486  0.00  0.00    +0.000 Cl
ATOM     11  C   UNL     1       1.461   7.922  20.569  0.00  0.00    +0.000 A 
ENDBRANCH   2   4
BRANCH   1  12
ATOM     12  C   UNL     1       3.194   3.351  19.523  0.00  0.00    +0.000 C 
BRANCH  12  14
ATOM     13  C   UNL     1       0.975   2.252  18.719  0.00  0.00    +0.000 C 
ATOM     14  C   UNL     1       2.495   2.268  18.662  0.00  0.00    +0.000 C 
ENDBRANCH  12  14
BRANCH  12  15
ATOM     15  C   UNL     1       4.704   3.057  19.657  0.00  0.00    +0.000 C 
BRANCH  15  16
ATOM     16  O   UNL     1       4.954   1.655  19.775  0.00  0.00    +0.000 OA
ATOM     17  H   UNL     1       5.908   1.561  19.933  0.00  0.00    +0.000 HD
ENDBRANCH  15  16
ENDBRANCH  12  15
ENDBRANCH   1  12
BRANCH   1  18
ATOM     18  C   UNL     1       3.095   5.011  17.615  0.00  0.00    +0.000 C 
BRANCH  18  19
ATOM     19  C   UNL     1       4.519   5.043  17.115  0.00  0.00    +0.000 A 
ATOM     20  C   UNL     1       4.953   4.157  16.133  0.00  0.00    +0.000 A 
ATOM     21  C   UNL     1       6.309   4.101  15.835  0.00  0.00    +0.000 A 
ATOM     22  C   UNL     1       7.192   4.945  16.499  0.00  0.00    +0.000 A 
ATOM     23  C   UNL     1       6.670   5.847  17.411  0.00  0.00    +0.000 A 
ATOM     24  N   UNL     1       5.361   5.922  17.723  0.00  0.00    +0.000 NA
ENDBRANCH  18  19
ENDBRANCH   1  18
TORSDOF 7
ENDMDL
