MODEL 1
REMARK VINA RESULT:      -6.3      0.000      0.000
REMARK  Name = 
REMARK  4 active torsions:
REMARK  status: ('A' for Active; 'I' for Inactive)
REMARK    1  A    between atoms: N_6  and  C_7
REMARK    2  A    between atoms: C_7  and  C_8
REMARK    3  A    between atoms: C_8  and  O_9
REMARK    4  A    between atoms: N_15  and  C_16
REMARK                            x       y       z     vdW  Elec       q    Type
REMARK                         _______ _______ _______ _____ _____    ______ ____
ROOT
ATOM      1  O   UNL     1       1.709  12.062  18.211  0.00  0.00    +0.000 OA
ATOM      2  C   UNL     1       1.103  11.421  19.071  0.00  0.00    +0.000 C 
ATOM      3  N   UNL     1       0.286  12.070  19.994  0.00  0.00    +0.000 N 
ATOM      4  C   UNL     1       0.482  13.520  20.179  0.00  0.00    +0.000 C 
ATOM      5  C   UNL     1      -0.835  14.269  20.477  0.00  0.00    +0.000 C 
ATOM      6  N   UNL     1      -1.671  13.687  21.557  0.00  0.00    +0.000 NA
ATOM      7  C   UNL     1      -1.940  12.289  21.181  0.00  0.00    +0.000 C 
ATOM      8  C   UNL     1      -0.679  11.463  20.909  0.00  0.00    +0.000 C 
ATOM      9  N   UNL     1       1.220  10.046  19.123  0.00  0.00    +0.000 N 
ATOM     10  C   UNL     1       1.687   9.322  17.919  0.00  0.00    +0.000 C 
ATOM     11  C   UNL     1       2.722   8.224  18.242  0.00  0.00    +0.000 C 
ATOM     12  N   UNL     1       2.240   7.345  19.326  0.00  0.00    +0.000 N 
ATOM     13  C   UNL     1       1.878   8.063  20.542  0.00  0.00    +0.000 C 
ATOM     14  C   UNL     1       0.863   9.158  20.230  0.00  0.00    +0.000 C 
ENDROOT
BRANCH  12  15
ATOM     15  C   UNL     1       2.013   5.991  19.218  0.00  0.00    +0.000 A 
ATOM     16  C   UNL     1       1.649   5.220  20.340  0.00  0.00    +0.000 A 
ATOM     17  C   UNL     1       1.404   3.847  20.261  0.00  0.00    +0.000 A 
ATOM     18  C   UNL     1       1.538   3.201  19.042  0.00  0.00    +0.000 A 
ATOM     19 CL   UNL     1       1.274   1.507  18.939  0.00  0.00    +0.000 Cl
ATOM     20  C   UNL     1       1.893   3.925  17.910  0.00  0.00    +0.000 A 
ATOM     21  C   UNL     1       2.124   5.306  18.002  0.00  0.00    +0.000 A 
ENDBRANCH  12  15
BRANCH   6  22
ATOM     22  C   UNL     1      -1.035  13.750  22.895  0.00  0.00    +0.000 C 
BRANCH  22  23
ATOM     23  C   UNL     1      -1.177  15.134  23.535  0.00  0.00    +0.000 C 
BRANCH  23  24
ATOM     24  O   UNL     1      -0.689  15.094  24.875  0.00  0.00    +0.000 OA
ATOM     25  H   UNL     1       0.268  15.281  24.797  0.00  0.00    +0.000 HD
ENDBRANCH  23  24
ENDBRANCH  22  23
ENDBRANCH   6  22
TORSDOF 4
ENDMDL
MODEL 2
REMARK VINA RESULT:      -6.3      0.519      1.106
REMARK  Name = 
REMARK  4 active torsions:
REMARK  status: ('A' for Active; 'I' for Inactive)
REMARK    1  A    between atoms: N_6  and  C_7
REMARK    2  A    between atoms: C_7  and  C_8
REMARK    3  A    between atoms: C_8  and  O_9
REMARK    4  A    between atoms: N_15  and  C_16
REMARK                            x       y       z     vdW  Elec       q    Type
REMARK                         _______ _______ _______ _____ _____    ______ ____
ROOT
ATOM      1  O   UNL     1       1.070  12.252  18.449  0.00  0.00    +0.000 OA
ATOM      2  C   UNL     1       0.615  11.562  19.363  0.00  0.00    +0.000 C 
ATOM      3  N   UNL     1      -0.145  12.140  20.378  0.00  0.00    +0.000 N 
ATOM      4  C   UNL     1      -0.047  13.600  20.556  0.00  0.00    +0.000 C 
ATOM      5  C   UNL     1      -1.379  14.240  21.005  0.00  0.00    +0.000 C 
ATOM      6  N   UNL     1      -2.041  13.590  22.163  0.00  0.00    +0.000 NA
ATOM      7  C   UNL     1      -2.237  12.175  21.803  0.00  0.00    +0.000 C 
ATOM      8  C   UNL     1      -0.952  11.454  21.385  0.00  0.00    +0.000 C 
ATOM      9  N   UNL     1       0.847  10.200  19.387  0.00  0.00    +0.000 N 
ATOM     10  C   UNL     1       1.235   9.520  18.130  0.00  0.00    +0.000 C 
ATOM     11  C   UNL     1       2.384   8.508  18.325  0.00  0.00    +0.000 C 
ATOM     12  N   UNL     1       2.096   7.591  19.446  0.00  0.00    +0.000 N 
ATOM     13  C   UNL     1       1.814   8.274  20.702  0.00  0.00    +0.000 C 
ATOM     14  C   UNL     1       0.686   9.283  20.516  0.00  0.00    +0.000 C 
ENDROOT
BRANCH  12  15
ATOM     15  C   UNL     1       1.968   6.222  19.348  0.00  0.00    +0.000 A 
ATOM     16  C   UNL     1       2.166   5.558  18.121  0.00  0.00    +0.000 A 
ATOM     17  C   UNL     1       2.051   4.171  17.989  0.00  0.00    +0.000 A 
ATOM     18  C   UNL     1       1.711   3.410  19.097  0.00  0.00    +0.000 A 
ATOM     19 CL   UNL     1       1.531   1.709  18.941  0.00  0.00    +0.000 Cl
ATOM     20  C   UNL     1       1.508   4.027  20.325  0.00  0.00    +0.000 A 
ATOM     21  C   UNL     1       1.639   5.418  20.445  0.00  0.00    +0.000 A 
ENDBRANCH  12  15
BRANCH   6  22
ATOM     22  C   UNL     1      -1.269  13.700  23.424  0.00  0.00    +0.000 C 
BRANCH  22  23
ATOM     23  C   UNL     1      -1.681  14.925  24.246  0.00  0.00    +0.000 C 
BRANCH  23  24
ATOM     24  O   UNL     1      -0.517  15.577  24.750  0.00  0.00    +0.000 OA
ATOM     25  H   UNL     1      -0.860  16.293  25.321  0.00  0.00    +0.000 HD
ENDBRANCH  23  24
ENDBRANCH  22  23
ENDBRANCH   6  22
TORSDOF 4
ENDMDL
MODEL 3
REMARK VINA RESULT:      -6.2      2.690      3.905
REMARK  Name = 
REMARK  4 active torsions:
REMARK  status: ('A' for Active; 'I' for Inactive)
REMARK    1  A    between atoms: N_6  and  C_7
REMARK    2  A    between atoms: C_7  and  C_8
REMARK    3  A    between atoms: C_8  and  O_9
REMARK    4  A    between atoms: N_15  and  C_16
REMARK                            x       y       z     vdW  Elec       q    Type
REMARK                         _______ _______ _______ _____ _____    ______ ____
ROOT
ATOM      1  O   UNL     1       0.143   8.515  22.122  0.00  0.00    +0.000 OA
ATOM      2  C   UNL     1       0.628   9.104  21.155  0.00  0.00    +0.000 C 
ATOM      3  N   UNL     1       0.370  10.458  20.948  0.00  0.00    +0.000 N 
ATOM      4  C   UNL     1      -0.786  11.048  21.648  0.00  0.00    +0.000 C 
ATOM      5  C   UNL     1      -0.547  12.515  22.068  0.00  0.00    +0.000 C 
ATOM      6  N   UNL     1      -0.038  13.410  21.000  0.00  0.00    +0.000 NA
ATOM      7  C   UNL     1       1.205  12.805  20.492  0.00  0.00    +0.000 C 
ATOM      8  C   UNL     1       1.043  11.358  20.014  0.00  0.00    +0.000 C 
ATOM      9  N   UNL     1       1.442   8.429  20.267  0.00  0.00    +0.000 N 
ATOM     10  C   UNL     1       2.082   7.167  20.701  0.00  0.00    +0.000 C 
ATOM     11  C   UNL     1       2.017   6.060  19.629  0.00  0.00    +0.000 C 
ATOM     12  N   UNL     1       2.492   6.560  18.323  0.00  0.00    +0.000 N 
ATOM     13  C   UNL     1       1.784   7.747  17.860  0.00  0.00    +0.000 C 
ATOM     14  C   UNL     1       1.834   8.843  18.919  0.00  0.00    +0.000 C 
ENDROOT
BRANCH  12  15
ATOM     15  C   UNL     1       3.577   6.073  17.625  0.00  0.00    +0.000 A 
ATOM     16  C   UNL     1       3.748   4.690  17.417  0.00  0.00    +0.000 A 
ATOM     17  C   UNL     1       4.832   4.166  16.708  0.00  0.00    +0.000 A 
ATOM     18  C   UNL     1       5.792   5.027  16.200  0.00  0.00    +0.000 A 
ATOM     19 CL   UNL     1       7.148   4.392  15.357  0.00  0.00    +0.000 Cl
ATOM     20  C   UNL     1       5.660   6.398  16.383  0.00  0.00    +0.000 A 
ATOM     21  C   UNL     1       4.559   6.911  17.086  0.00  0.00    +0.000 A 
ENDBRANCH  12  15
BRANCH   6  22
ATOM     22  C   UNL     1      -1.003  13.617  19.892  0.00  0.00    +0.000 C 
BRANCH  22  23
ATOM     23  C   UNL     1      -0.299  13.912  18.564  0.00  0.00    +0.000 C 
BRANCH  23  24
ATOM     24  O   UNL     1      -0.856  13.096  17.536  0.00  0.00    +0.000 OA
ATOM     25  H   UNL     1      -1.352  13.718  16.966  0.00  0.00    +0.000 HD
ENDBRANCH  23  24
ENDBRANCH  22  23
ENDBRANCH   6  22
TORSDOF 4
ENDMDL
MODEL 4
REMARK VINA RESULT:      -6.1      0.706      1.206
REMARK  Name = 
REMARK  4 active torsions:
REMARK  status: ('A' for Active; 'I' for Inactive)
REMARK    1  A    between atoms: N_6  and  C_7
REMARK    2  A    between atoms: C_7  and  C_8
REMARK    3  A    between atoms: C_8  and  O_9
REMARK    4  A    between atoms: N_15  and  C_16
REMARK                            x       y       z     vdW  Elec       q    Type
REMARK                         _______ _______ _______ _____ _____    ______ ____
ROOT
ATOM      1  O   UNL     1       2.228  12.009  18.013  0.00  0.00    +0.000 OA
ATOM      2  C   UNL     1       1.486  11.456  18.826  0.00  0.00    +0.000 C 
ATOM      3  N   UNL     1       0.636  12.207  19.636  0.00  0.00    +0.000 N 
ATOM      4  C   UNL     1       0.933  13.643  19.790  0.00  0.00    +0.000 C 
ATOM      5  C   UNL     1      -0.341  14.507  19.922  0.00  0.00    +0.000 C 
ATOM      6  N   UNL     1      -1.327  14.040  20.928  0.00  0.00    +0.000 NA
ATOM      7  C   UNL     1      -1.673  12.653  20.574  0.00  0.00    +0.000 C 
ATOM      8  C   UNL     1      -0.464  11.718  20.464  0.00  0.00    +0.000 C 
ATOM      9  N   UNL     1       1.481  10.080  18.938  0.00  0.00    +0.000 N 
ATOM     10  C   UNL     1       2.007   9.270  17.815  0.00  0.00    +0.000 C 
ATOM     11  C   UNL     1       2.908   8.108  18.282  0.00  0.00    +0.000 C 
ATOM     12  N   UNL     1       2.247   7.317  19.340  0.00  0.00    +0.000 N 
ATOM     13  C   UNL     1       1.824   8.113  20.485  0.00  0.00    +0.000 C 
ATOM     14  C   UNL     1       0.941   9.271  20.031  0.00  0.00    +0.000 C 
ENDROOT
BRANCH  12  15
ATOM     15  C   UNL     1       1.919   5.982  19.255  0.00  0.00    +0.000 A 
ATOM     16  C   UNL     1       2.013   5.284  18.034  0.00  0.00    +0.000 A 
ATOM     17  C   UNL     1       1.696   3.929  17.916  0.00  0.00    +0.000 A 
ATOM     18  C   UNL     1       1.254   3.235  19.032  0.00  0.00    +0.000 A 
ATOM     19 CL   UNL     1       0.827   1.577  18.893  0.00  0.00    +0.000 Cl
ATOM     20  C   UNL     1       1.149   3.885  20.256  0.00  0.00    +0.000 A 
ATOM     21  C   UNL     1       1.483   5.244  20.361  0.00  0.00    +0.000 A 
ENDBRANCH  12  15
BRANCH   6  22
ATOM     22  C   UNL     1      -0.828  14.109  22.322  0.00  0.00    +0.000 C 
BRANCH  22  23
ATOM     23  C   UNL     1      -0.394  15.526  22.708  0.00  0.00    +0.000 C 
BRANCH  23  24
ATOM     24  O   UNL     1       0.966  15.510  23.136  0.00  0.00    +0.000 OA
ATOM     25  H   UNL     1       1.361  16.316  22.745  0.00  0.00    +0.000 HD
ENDBRANCH  23  24
ENDBRANCH  22  23
ENDBRANCH   6  22
TORSDOF 4
ENDMDL
MODEL 5
REMARK VINA RESULT:      -5.8      2.715      3.884
REMARK  Name = 
REMARK  4 active torsions:
REMARK  status: ('A' for Active; 'I' for Inactive)
REMARK    1  A    between atoms: N_6  and  C_7
REMARK    2  A    between atoms: C_7  and  C_8
REMARK    3  A    between atoms: C_8  and  O_9
REMARK    4  A    between atoms: N_15  and  C_16
REMARK                            x       y       z     vdW  Elec       q    Type
REMARK                         _______ _______ _______ _____ _____    ______ ____
ROOT
ATOM      1  O   UNL     1      -0.503   8.769  22.236  0.00  0.00    +0.000 OA
ATOM      2  C   UNL     1       0.172   9.337  21.375  0.00  0.00    +0.000 C 
ATOM      3  N   UNL     1      -0.016  10.691  21.106  0.00  0.00    +0.000 N 
ATOM      4  C   UNL     1      -1.275  11.309  21.559  0.00  0.00    +0.000 C 
ATOM      5  C   UNL     1      -1.097  12.779  22.001  0.00  0.00    +0.000 C 
ATOM      6  N   UNL     1      -0.374  13.650  21.042  0.00  0.00    +0.000 NA
ATOM      7  C   UNL     1       0.933  13.018  20.794  0.00  0.00    +0.000 C 
ATOM      8  C   UNL     1       0.842  11.567  20.310  0.00  0.00    +0.000 C 
ATOM      9  N   UNL     1       1.131   8.637  20.670  0.00  0.00    +0.000 N 
ATOM     10  C   UNL     1       1.651   7.371  21.237  0.00  0.00    +0.000 C 
ATOM     11  C   UNL     1       1.778   6.249  20.185  0.00  0.00    +0.000 C 
ATOM     12  N   UNL     1       2.507   6.722  18.991  0.00  0.00    +0.000 N 
ATOM     13  C   UNL     1       1.925   7.913  18.385  0.00  0.00    +0.000 C 
ATOM     14  C   UNL     1       1.787   9.023  19.420  0.00  0.00    +0.000 C 
ENDROOT
BRANCH  12  15
ATOM     15  C   UNL     1       3.698   6.209  18.525  0.00  0.00    +0.000 A 
ATOM     16  C   UNL     1       4.193   6.556  17.252  0.00  0.00    +0.000 A 
ATOM     17  C   UNL     1       5.400   6.059  16.754  0.00  0.00    +0.000 A 
ATOM     18  C   UNL     1       6.140   5.175  17.523  0.00  0.00    +0.000 A 
ATOM     19 CL   UNL     1       7.608   4.529  16.908  0.00  0.00    +0.000 Cl
ATOM     20  C   UNL     1       5.688   4.808  18.785  0.00  0.00    +0.000 A 
ATOM     21  C   UNL     1       4.480   5.325  19.277  0.00  0.00    +0.000 A 
ENDBRANCH  12  15
BRANCH   6  22
ATOM     22  C   UNL     1      -1.099  13.855  19.765  0.00  0.00    +0.000 C 
BRANCH  22  23
ATOM     23  C   UNL     1      -0.150  13.900  18.564  0.00  0.00    +0.000 C 
BRANCH  23  24
ATOM     24  O   UNL     1      -0.744  13.225  17.458  0.00  0.00    +0.000 OA
ATOM     25  H   UNL     1      -0.132  12.489  17.256  0.00  0.00    +0.000 HD
ENDBRANCH  23  24
ENDBRANCH  22  23
ENDBRANCH   6  22
TORSDOF 4
ENDMDL
MODEL 6
REMARK VINA RESULT:      -5.8      1.617      1.862
REMARK  Name = 
REMARK  4 active torsions:
REMARK  status: ('A' for Active; 'I' for Inactive)
REMARK    1  A    between atoms: N_6  and  C_7
REMARK    2  A    between atoms: C_7  and  C_8
REMARK    3  A    between atoms: C_8  and  O_9
REMARK    4  A    between atoms: N_15  and  C_16
REMARK                            x       y       z     vdW  Elec       q    Type
REMARK                         _______ _______ _______ _____ _____    ______ ____
ROOT
ATOM      1  O   UNL     1      -0.921  12.662  18.536  0.00  0.00    +0.000 OA
ATOM      2  C   UNL     1      -0.830  12.031  19.590  0.00  0.00    +0.000 C 
ATOM      3  N   UNL     1      -1.352  12.548  20.774  0.00  0.00    +0.000 N 
ATOM      4  C   UNL     1      -1.635  13.995  20.821  0.00  0.00    +0.000 C 
ATOM      5  C   UNL     1      -2.874  14.336  21.678  0.00  0.00    +0.000 C 
ATOM      6  N   UNL     1      -2.901  13.728  23.031  0.00  0.00    +0.000 NA
ATOM      7  C   UNL     1      -2.779  12.271  22.847  0.00  0.00    +0.000 C 
ATOM      8  C   UNL     1      -1.548  11.846  22.041  0.00  0.00    +0.000 C 
ATOM      9  N   UNL     1      -0.214  10.795  19.609  0.00  0.00    +0.000 N 
ATOM     10  C   UNL     1      -0.074  10.048  18.338  0.00  0.00    +0.000 C 
ATOM     11  C   UNL     1       1.319   9.406  18.168  0.00  0.00    +0.000 C 
ATOM     12  N   UNL     1       1.696   8.633  19.369  0.00  0.00    +0.000 N 
ATOM     13  C   UNL     1       1.650   9.410  20.601  0.00  0.00    +0.000 C 
ATOM     14  C   UNL     1       0.279  10.056  20.772  0.00  0.00    +0.000 C 
ENDROOT
BRANCH  12  15
ATOM     15  C   UNL     1       1.950   7.279  19.402  0.00  0.00    +0.000 A 
ATOM     16  C   UNL     1       1.711   6.521  20.566  0.00  0.00    +0.000 A 
ATOM     17  C   UNL     1       1.951   5.146  20.629  0.00  0.00    +0.000 A 
ATOM     18  C   UNL     1       2.460   4.493  19.517  0.00  0.00    +0.000 A 
ATOM     19 CL   UNL     1       2.792   2.810  19.593  0.00  0.00    +0.000 Cl
ATOM     20  C   UNL     1       2.708   5.204  18.350  0.00  0.00    +0.000 A 
ATOM     21  C   UNL     1       2.451   6.582  18.297  0.00  0.00    +0.000 A 
ENDBRANCH  12  15
BRANCH   6  22
ATOM     22  C   UNL     1      -1.829  14.227  23.926  0.00  0.00    +0.000 C 
BRANCH  22  23
ATOM     23  C   UNL     1      -2.387  15.062  25.082  0.00  0.00    +0.000 C 
BRANCH  23  24
ATOM     24  O   UNL     1      -3.744  14.698  25.325  0.00  0.00    +0.000 OA
ATOM     25  H   UNL     1      -4.247  15.532  25.237  0.00  0.00    +0.000 HD
ENDBRANCH  23  24
ENDBRANCH  22  23
ENDBRANCH   6  22
TORSDOF 4
ENDMDL
MODEL 7
REMARK VINA RESULT:      -5.8      3.973      8.574
REMARK  Name = 
REMARK  4 active torsions:
REMARK  status: ('A' for Active; 'I' for Inactive)
REMARK    1  A    between atoms: N_6  and  C_7
REMARK    2  A    between atoms: C_7  and  C_8
REMARK    3  A    between atoms: C_8  and  O_9
REMARK    4  A    between atoms: N_15  and  C_16
REMARK                            x       y       z     vdW  Elec       q    Type
REMARK                         _______ _______ _______ _____ _____    ______ ____
ROOT
ATOM      1  O   UNL     1       2.531   8.756  17.085  0.00  0.00    +0.000 OA
ATOM      2  C   UNL     1       2.156   8.382  18.198  0.00  0.00    +0.000 C 
ATOM      3  N   UNL     1       2.356   7.066  18.609  0.00  0.00    +0.000 N 
ATOM      4  C   UNL     1       2.637   6.061  17.568  0.00  0.00    +0.000 C 
ATOM      5  C   UNL     1       3.612   4.961  18.044  0.00  0.00    +0.000 C 
ATOM      6  N   UNL     1       3.273   4.326  19.341  0.00  0.00    +0.000 NA
ATOM      7  C   UNL     1       3.182   5.408  20.335  0.00  0.00    +0.000 C 
ATOM      8  C   UNL     1       2.201   6.522  19.957  0.00  0.00    +0.000 C 
ATOM      9  N   UNL     1       1.539   9.270  19.057  0.00  0.00    +0.000 N 
ATOM     10  C   UNL     1       1.727  10.723  18.840  0.00  0.00    +0.000 C 
ATOM     11  C   UNL     1       0.419  11.527  18.986  0.00  0.00    +0.000 C 
ATOM     12  N   UNL     1      -0.272  11.189  20.247  0.00  0.00    +0.000 N 
ATOM     13  C   UNL     1      -0.540   9.765  20.402  0.00  0.00    +0.000 C 
ATOM     14  C   UNL     1       0.746   8.962  20.248  0.00  0.00    +0.000 C 
ENDROOT
BRANCH  12  15
ATOM     15  C   UNL     1      -0.546  12.070  21.271  0.00  0.00    +0.000 A 
ATOM     16  C   UNL     1       0.085  13.329  21.338  0.00  0.00    +0.000 A 
ATOM     17  C   UNL     1      -0.177  14.247  22.358  0.00  0.00    +0.000 A 
ATOM     18  C   UNL     1      -1.076  13.913  23.359  0.00  0.00    +0.000 A 
ATOM     19 CL   UNL     1      -1.380  15.019  24.637  0.00  0.00    +0.000 Cl
ATOM     20  C   UNL     1      -1.720  12.682  23.329  0.00  0.00    +0.000 A 
ATOM     21  C   UNL     1      -1.456  11.775  22.292  0.00  0.00    +0.000 A 
ENDBRANCH  12  15
BRANCH   6  22
ATOM     22  C   UNL     1       2.011   3.548  19.307  0.00  0.00    +0.000 C 
BRANCH  22  23
ATOM     23  C   UNL     1       1.912   2.560  20.473  0.00  0.00    +0.000 C 
BRANCH  23  24
ATOM     24  O   UNL     1       0.780   2.882  21.279  0.00  0.00    +0.000 OA
ATOM     25  H   UNL     1       0.466   3.743  20.936  0.00  0.00    +0.000 HD
ENDBRANCH  23  24
ENDBRANCH  22  23
ENDBRANCH   6  22
TORSDOF 4
ENDMDL
MODEL 8
REMARK VINA RESULT:      -5.8      2.641      3.862
REMARK  Name = 
REMARK  4 active torsions:
REMARK  status: ('A' for Active; 'I' for Inactive)
REMARK    1  A    between atoms: N_6  and  C_7
REMARK    2  A    between atoms: C_7  and  C_8
REMARK    3  A    between atoms: C_8  and  O_9
REMARK    4  A    between atoms: N_15  and  C_16
REMARK                            x       y       z     vdW  Elec       q    Type
REMARK                         _______ _______ _______ _____ _____    ______ ____
ROOT
ATOM      1  O   UNL     1      -0.331  12.425  22.285  0.00  0.00    +0.000 OA
ATOM      2  C   UNL     1       0.225  12.503  21.188  0.00  0.00    +0.000 C 
ATOM      3  N   UNL     1       0.278  13.716  20.505  0.00  0.00    +0.000 N 
ATOM      4  C   UNL     1      -0.669  14.770  20.910  0.00  0.00    +0.000 C 
ATOM      5  C   UNL     1      -0.074  16.190  20.788  0.00  0.00    +0.000 C 
ATOM      6  N   UNL     1       0.571  16.503  19.489  0.00  0.00    +0.000 NA
ATOM      7  C   UNL     1       1.610  15.482  19.272  0.00  0.00    +0.000 C 
ATOM      8  C   UNL     1       1.091  14.041  19.335  0.00  0.00    +0.000 C 
ATOM      9  N   UNL     1       0.811  11.385  20.626  0.00  0.00    +0.000 N 
ATOM     10  C   UNL     1       1.162  10.245  21.503  0.00  0.00    +0.000 C 
ATOM     11  C   UNL     1       0.785   8.879  20.892  0.00  0.00    +0.000 C 
ATOM     12  N   UNL     1       1.293   8.759  19.511  0.00  0.00    +0.000 N 
ATOM     13  C   UNL     1       0.856   9.836  18.632  0.00  0.00    +0.000 C 
ATOM     14  C   UNL     1       1.216  11.191  19.233  0.00  0.00    +0.000 C 
ENDROOT
BRANCH  12  15
ATOM     15  C   UNL     1       2.195   7.816  19.069  0.00  0.00    +0.000 A 
ATOM     16  C   UNL     1       2.438   6.638  19.804  0.00  0.00    +0.000 A 
ATOM     17  C   UNL     1       3.340   5.659  19.379  0.00  0.00    +0.000 A 
ATOM     18  C   UNL     1       4.044   5.850  18.201  0.00  0.00    +0.000 A 
ATOM     19 CL   UNL     1       5.182   4.671  17.686  0.00  0.00    +0.000 Cl
ATOM     20  C   UNL     1       3.834   6.997  17.446  0.00  0.00    +0.000 A 
ATOM     21  C   UNL     1       2.915   7.965  17.878  0.00  0.00    +0.000 A 
ENDBRANCH  12  15
BRANCH   6  22
ATOM     22  C   UNL     1      -0.377  16.527  18.349  0.00  0.00    +0.000 C 
BRANCH  22  23
ATOM     23  C   UNL     1      -0.586  17.943  17.804  0.00  0.00    +0.000 C 
BRANCH  23  24
ATOM     24  O   UNL     1       0.589  18.369  17.117  0.00  0.00    +0.000 OA
ATOM     25  H   UNL     1       0.696  17.731  16.384  0.00  0.00    +0.000 HD
ENDBRANCH  23  24
ENDBRANCH  22  23
ENDBRANCH   6  22
TORSDOF 4
ENDMDL
MODEL 9
REMARK VINA RESULT:      -5.8      2.853      3.736
REMARK  Name = 
REMARK  4 active torsions:
REMARK  status: ('A' for Active; 'I' for Inactive)
REMARK    1  A    between atoms: N_6  and  C_7
REMARK    2  A    between atoms: C_7  and  C_8
REMARK    3  A    between atoms: C_8  and  O_9
REMARK    4  A    between atoms: N_15  and  C_16
REMARK                            x       y       z     vdW  Elec       q    Type
REMARK                         _______ _______ _______ _____ _____    ______ ____
ROOT
ATOM      1  O   UNL     1       0.162   8.494  22.241  0.00  0.00    +0.000 OA
ATOM      2  C   UNL     1       0.646   9.095  21.280  0.00  0.00    +0.000 C 
ATOM      3  N   UNL     1       0.403  10.455  21.099  0.00  0.00    +0.000 N 
ATOM      4  C   UNL     1      -0.740  11.046  21.819  0.00  0.00    +0.000 C 
ATOM      5  C   UNL     1      -0.481  12.502  22.263  0.00  0.00    +0.000 C 
ATOM      6  N   UNL     1       0.030  13.410  21.206  0.00  0.00    +0.000 NA
ATOM      7  C   UNL     1       1.262  12.799  20.678  0.00  0.00    +0.000 C 
ATOM      8  C   UNL     1       1.079  11.363  20.175  0.00  0.00    +0.000 C 
ATOM      9  N   UNL     1       1.445   8.426  20.373  0.00  0.00    +0.000 N 
ATOM     10  C   UNL     1       2.073   7.149  20.781  0.00  0.00    +0.000 C 
ATOM     11  C   UNL     1       1.987   6.062  19.689  0.00  0.00    +0.000 C 
ATOM     12  N   UNL     1       2.458   6.580  18.388  0.00  0.00    +0.000 N 
ATOM     13  C   UNL     1       1.761   7.783  17.952  0.00  0.00    +0.000 C 
ATOM     14  C   UNL     1       1.832   8.859  19.030  0.00  0.00    +0.000 C 
ENDROOT
BRANCH  12  15
ATOM     15  C   UNL     1       3.531   6.093  17.674  0.00  0.00    +0.000 A 
ATOM     16  C   UNL     1       4.537   6.953  17.192  0.00  0.00    +0.000 A 
ATOM     17  C   UNL     1       5.641   6.490  16.472  0.00  0.00    +0.000 A 
ATOM     18  C   UNL     1       5.754   5.136  16.198  0.00  0.00    +0.000 A 
ATOM     19 CL   UNL     1       7.088   4.559  15.283  0.00  0.00    +0.000 Cl
ATOM     20  C   UNL     1       4.784   4.253  16.656  0.00  0.00    +0.000 A 
ATOM     21  C   UNL     1       3.687   4.732  17.389  0.00  0.00    +0.000 A 
ENDBRANCH  12  15
BRANCH   6  22
ATOM     22  C   UNL     1      -0.940  13.648  20.111  0.00  0.00    +0.000 C 
BRANCH  22  23
ATOM     23  C   UNL     1      -2.348  13.934  20.642  0.00  0.00    +0.000 C 
BRANCH  23  24
ATOM     24  O   UNL     1      -3.317  13.397  19.744  0.00  0.00    +0.000 OA
ATOM     25  H   UNL     1      -4.180  13.643  20.132  0.00  0.00    +0.000 HD
ENDBRANCH  23  24
ENDBRANCH  22  23
ENDBRANCH   6  22
TORSDOF 4
ENDMDL
