MODEL 1
REMARK VINA RESULT:      -8.6      0.000      0.000
REMARK  Name = 
REMARK  8 active torsions:
REMARK  status: ('A' for Active; 'I' for Inactive)
REMARK    1  A    between atoms: C_1  and  C_2
REMARK    2  A    between atoms: C_2  and  C_4
REMARK    3  A    between atoms: C_6  and  C_7
REMARK    4  A    between atoms: C_10  and  O_11
REMARK    5  A    between atoms: O_11  and  C_12
REMARK    6  A    between atoms: C_12  and  C_14
REMARK    7  A    between atoms: C_14  and  C_15
REMARK    8  A    between atoms: C_15  and  N_16
REMARK                            x       y       z     vdW  Elec       q    Type
REMARK                         _______ _______ _______ _____ _____    ______ ____
ROOT
ATOM      1  N   UNL     1       2.943   7.457  18.545  0.00  0.00    +0.000 N 
ATOM      2  C   UNL     1       4.298   7.205  18.198  0.00  0.00    +0.000 C 
ATOM      3  O   UNL     1       4.879   7.771  17.290  0.00  0.00    +0.000 OA
ATOM      4  C   UNL     1       4.869   5.937  19.131  0.00  0.00    +0.000 C 
ATOM      5  C   UNL     1       5.483   4.406  18.869  0.00  0.00    +0.000 C 
ATOM      6  C   UNL     1       5.905   4.520  17.422  0.00  0.00    +0.000 A 
ATOM      7  C   UNL     1       7.129   4.233  16.839  0.00  0.00    +0.000 A 
ATOM      8  C   UNL     1       7.277   4.477  15.473  0.00  0.00    +0.000 A 
ATOM      9  C   UNL     1       6.217   5.018  14.727  0.00  0.00    +0.000 A 
ATOM     10  C   UNL     1       4.959   5.221  15.307  0.00  0.00    +0.000 A 
ATOM     11  C   UNL     1       4.791   4.929  16.650  0.00  0.00    +0.000 A 
ATOM     12  C   UNL     1       3.458   4.816  17.457  0.00  0.00    +0.000 C 
ATOM     13  C   UNL     1       3.467   3.308  17.728  0.00  0.00    +0.000 A 
ATOM     14  C   UNL     1       2.288   2.642  17.431  0.00  0.00    +0.000 A 
ATOM     15  C   UNL     1       1.529   2.351  18.530  0.00  0.00    +0.000 A 
ATOM     16  C   UNL     1       2.130   2.439  19.800  0.00  0.00    +0.000 A 
ATOM     17  C   UNL     1       3.539   2.696  19.978  0.00  0.00    +0.000 A 
ATOM     18  C   UNL     1       4.289   3.155  18.879  0.00  0.00    +0.000 A 
ATOM     19  C   UNL     1       3.478   5.439  19.079  0.00  0.00    +0.000 C 
ATOM     20  C   UNL     1       2.688   6.579  19.512  0.00  0.00    +0.000 C 
ATOM     21  O   UNL     1       1.917   6.669  20.447  0.00  0.00    +0.000 OA
ENDROOT
BRANCH   1  22
ATOM     22  C   UNL     1       1.659   7.568  17.827  0.00  0.00    +0.000 C 
BRANCH  22  23
ATOM     23  C   UNL     1       0.764   8.766  17.929  0.00  0.00    +0.000 C 
BRANCH  23  24
ATOM     24  C   UNL     1       1.580   9.960  18.246  0.00  0.00    +0.000 C 
ATOM     25  O   UNL     1       2.379  10.477  17.479  0.00  0.00    +0.000 OA
BRANCH  24  26
ATOM     26  O   UNL     1       1.396  10.278  19.578  0.00  0.00    +0.000 OA
BRANCH  26  33
ATOM     27  C   UNL     1      -0.389  10.973  21.049  0.00  0.00    +0.000 A 
ATOM     28  C   UNL     1      -1.429  11.877  21.324  0.00  0.00    +0.000 A 
ATOM     29  C   UNL     1      -1.745  12.928  20.452  0.00  0.00    +0.000 A 
ATOM     30  C   UNL     1      -2.868  13.871  20.753  0.00  0.00    +0.000 C 
ATOM     31  C   UNL     1      -1.015  13.081  19.278  0.00  0.00    +0.000 A 
ATOM     32  C   UNL     1       0.025  12.208  18.988  0.00  0.00    +0.000 A 
ATOM     33  C   UNL     1       0.339  11.153  19.862  0.00  0.00    +0.000 A 
BRANCH  27  35
ATOM     34  C   UNL     1      -0.571   8.460  21.813  0.00  0.00    +0.000 C 
ATOM     35  C   UNL     1      -0.184   9.891  22.074  0.00  0.00    +0.000 C 
ATOM     36  O   UNL     1       0.323  10.180  23.160  0.00  0.00    +0.000 OA
ENDBRANCH  27  35
ENDBRANCH  26  33
ENDBRANCH  24  26
ENDBRANCH  23  24
ENDBRANCH  22  23
ENDBRANCH   1  22
TORSDOF 6
ENDMDL
MODEL 2
REMARK VINA RESULT:      -8.6      1.717      2.127
REMARK  Name = 
REMARK  8 active torsions:
REMARK  status: ('A' for Active; 'I' for Inactive)
REMARK    1  A    between atoms: C_1  and  C_2
REMARK    2  A    between atoms: C_2  and  C_4
REMARK    3  A    between atoms: C_6  and  C_7
REMARK    4  A    between atoms: C_10  and  O_11
REMARK    5  A    between atoms: O_11  and  C_12
REMARK    6  A    between atoms: C_12  and  C_14
REMARK    7  A    between atoms: C_14  and  C_15
REMARK    8  A    between atoms: C_15  and  N_16
REMARK                            x       y       z     vdW  Elec       q    Type
REMARK                         _______ _______ _______ _____ _____    ______ ____
ROOT
ATOM      1  N   UNL     1       3.004   7.406  18.789  0.00  0.00    +0.000 N 
ATOM      2  C   UNL     1       4.347   7.134  18.410  0.00  0.00    +0.000 C 
ATOM      3  O   UNL     1       4.936   7.737  17.532  0.00  0.00    +0.000 OA
ATOM      4  C   UNL     1       4.885   5.793  19.255  0.00  0.00    +0.000 C 
ATOM      5  C   UNL     1       5.447   4.262  18.892  0.00  0.00    +0.000 C 
ATOM      6  C   UNL     1       5.858   4.454  17.450  0.00  0.00    +0.000 A 
ATOM      7  C   UNL     1       7.067   4.165  16.836  0.00  0.00    +0.000 A 
ATOM      8  C   UNL     1       7.209   4.489  15.486  0.00  0.00    +0.000 A 
ATOM      9  C   UNL     1       6.160   5.109  14.787  0.00  0.00    +0.000 A 
ATOM     10  C   UNL     1       4.915   5.316  15.394  0.00  0.00    +0.000 A 
ATOM     11  C   UNL     1       4.750   4.945  16.718  0.00  0.00    +0.000 A 
ATOM     12  C   UNL     1       3.423   4.824  17.532  0.00  0.00    +0.000 C 
ATOM     13  C   UNL     1       3.385   3.302  17.709  0.00  0.00    +0.000 A 
ATOM     14  C   UNL     1       2.183   2.694  17.384  0.00  0.00    +0.000 A 
ATOM     15  C   UNL     1       1.426   2.359  18.472  0.00  0.00    +0.000 A 
ATOM     16  C   UNL     1       2.041   2.348  19.738  0.00  0.00    +0.000 A 
ATOM     17  C   UNL     1       3.460   2.549  19.915  0.00  0.00    +0.000 A 
ATOM     18  C   UNL     1       4.214   3.052  18.838  0.00  0.00    +0.000 A 
ATOM     19  C   UNL     1       3.479   5.343  19.189  0.00  0.00    +0.000 C 
ATOM     20  C   UNL     1       2.730   6.479  19.701  0.00  0.00    +0.000 C 
ATOM     21  O   UNL     1       1.972   6.534  20.649  0.00  0.00    +0.000 OA
ENDROOT
BRANCH   1  22
ATOM     22  C   UNL     1       1.717   7.603  18.094  0.00  0.00    +0.000 C 
BRANCH  22  23
ATOM     23  C   UNL     1       1.260   8.932  17.575  0.00  0.00    +0.000 C 
BRANCH  23  24
ATOM     24  C   UNL     1       0.680   9.718  18.688  0.00  0.00    +0.000 C 
ATOM     25  O   UNL     1       0.598   9.327  19.843  0.00  0.00    +0.000 OA
BRANCH  24  26
ATOM     26  O   UNL     1       0.123  10.872  18.170  0.00  0.00    +0.000 OA
BRANCH  26  33
ATOM     27  C   UNL     1      -1.970  11.767  18.977  0.00  0.00    +0.000 A 
ATOM     28  C   UNL     1      -3.371  11.803  18.882  0.00  0.00    +0.000 A 
ATOM     29  C   UNL     1      -4.071  11.011  17.962  0.00  0.00    +0.000 A 
ATOM     30  C   UNL     1      -5.566  11.051  17.887  0.00  0.00    +0.000 C 
ATOM     31  C   UNL     1      -3.363  10.160  17.120  0.00  0.00    +0.000 A 
ATOM     32  C   UNL     1      -1.976  10.114  17.185  0.00  0.00    +0.000 A 
ATOM     33  C   UNL     1      -1.277  10.907  18.110  0.00  0.00    +0.000 A 
BRANCH  27  35
ATOM     34  C   UNL     1      -1.318  12.273  21.477  0.00  0.00    +0.000 C 
ATOM     35  C   UNL     1      -1.368  12.664  20.024  0.00  0.00    +0.000 C 
ATOM     36  O   UNL     1      -0.894  13.751  19.685  0.00  0.00    +0.000 OA
ENDBRANCH  27  35
ENDBRANCH  26  33
ENDBRANCH  24  26
ENDBRANCH  23  24
ENDBRANCH  22  23
ENDBRANCH   1  22
TORSDOF 6
ENDMDL
MODEL 3
REMARK VINA RESULT:      -8.4      1.080      1.934
REMARK  Name = 
REMARK  8 active torsions:
REMARK  status: ('A' for Active; 'I' for Inactive)
REMARK    1  A    between atoms: C_1  and  C_2
REMARK    2  A    between atoms: C_2  and  C_4
REMARK    3  A    between atoms: C_6  and  C_7
REMARK    4  A    between atoms: C_10  and  O_11
REMARK    5  A    between atoms: O_11  and  C_12
REMARK    6  A    between atoms: C_12  and  C_14
REMARK    7  A    between atoms: C_14  and  C_15
REMARK    8  A    between atoms: C_15  and  N_16
REMARK                            x       y       z     vdW  Elec       q    Type
REMARK                         _______ _______ _______ _____ _____    ______ ____
ROOT
ATOM      1  N   UNL     1       2.888   7.498  18.617  0.00  0.00    +0.000 N 
ATOM      2  C   UNL     1       4.244   7.231  18.283  0.00  0.00    +0.000 C 
ATOM      3  O   UNL     1       4.840   7.792  17.381  0.00  0.00    +0.000 OA
ATOM      4  C   UNL     1       4.791   5.957  19.221  0.00  0.00    +0.000 C 
ATOM      5  C   UNL     1       5.392   4.419  18.964  0.00  0.00    +0.000 C 
ATOM      6  C   UNL     1       5.829   4.530  17.521  0.00  0.00    +0.000 A 
ATOM      7  C   UNL     1       7.057   4.230  16.951  0.00  0.00    +0.000 A 
ATOM      8  C   UNL     1       7.221   4.474  15.587  0.00  0.00    +0.000 A 
ATOM      9  C   UNL     1       6.175   5.027  14.830  0.00  0.00    +0.000 A 
ATOM     10  C   UNL     1       4.913   5.243  15.397  0.00  0.00    +0.000 A 
ATOM     11  C   UNL     1       4.728   4.952  16.739  0.00  0.00    +0.000 A 
ATOM     12  C   UNL     1       3.386   4.852  17.531  0.00  0.00    +0.000 C 
ATOM     13  C   UNL     1       3.376   3.344  17.802  0.00  0.00    +0.000 A 
ATOM     14  C   UNL     1       2.193   2.691  17.491  0.00  0.00    +0.000 A 
ATOM     15  C   UNL     1       1.420   2.407  18.583  0.00  0.00    +0.000 A 
ATOM     16  C   UNL     1       2.008   2.488  19.859  0.00  0.00    +0.000 A 
ATOM     17  C   UNL     1       3.419   2.729  20.051  0.00  0.00    +0.000 A 
ATOM     18  C   UNL     1       4.185   3.181  18.960  0.00  0.00    +0.000 A 
ATOM     19  C   UNL     1       3.396   5.473  19.154  0.00  0.00    +0.000 C 
ATOM     20  C   UNL     1       2.614   6.622  19.580  0.00  0.00    +0.000 C 
ATOM     21  O   UNL     1       1.834   6.719  20.507  0.00  0.00    +0.000 OA
ENDROOT
BRANCH   1  22
ATOM     22  C   UNL     1       1.612   7.623  17.886  0.00  0.00    +0.000 C 
BRANCH  22  23
ATOM     23  C   UNL     1       1.039   8.940  17.459  0.00  0.00    +0.000 C 
BRANCH  23  24
ATOM     24  C   UNL     1       0.965   9.843  18.629  0.00  0.00    +0.000 C 
ATOM     25  O   UNL     1       1.839  10.635  18.950  0.00  0.00    +0.000 OA
BRANCH  24  26
ATOM     26  O   UNL     1      -0.166   9.528  19.359  0.00  0.00    +0.000 OA
BRANCH  26  33
ATOM     27  C   UNL     1      -1.184  11.638  19.944  0.00  0.00    +0.000 A 
ATOM     28  C   UNL     1      -1.574  12.540  20.949  0.00  0.00    +0.000 A 
ATOM     29  C   UNL     1      -1.337  12.284  22.306  0.00  0.00    +0.000 A 
ATOM     30  C   UNL     1      -1.745  13.264  23.361  0.00  0.00    +0.000 C 
ATOM     31  C   UNL     1      -0.692  11.107  22.673  0.00  0.00    +0.000 A 
ATOM     32  C   UNL     1      -0.306  10.193  21.701  0.00  0.00    +0.000 A 
ATOM     33  C   UNL     1      -0.543  10.454  20.341  0.00  0.00    +0.000 A 
BRANCH  27  35
ATOM     34  C   UNL     1      -2.592  11.420  17.730  0.00  0.00    +0.000 C 
ATOM     35  C   UNL     1      -1.495  12.064  18.535  0.00  0.00    +0.000 C 
ATOM     36  O   UNL     1      -0.838  12.973  18.023  0.00  0.00    +0.000 OA
ENDBRANCH  27  35
ENDBRANCH  26  33
ENDBRANCH  24  26
ENDBRANCH  23  24
ENDBRANCH  22  23
ENDBRANCH   1  22
TORSDOF 6
ENDMDL
MODEL 4
REMARK VINA RESULT:      -8.4      5.351      7.618
REMARK  Name = 
REMARK  8 active torsions:
REMARK  status: ('A' for Active; 'I' for Inactive)
REMARK    1  A    between atoms: C_1  and  C_2
REMARK    2  A    between atoms: C_2  and  C_4
REMARK    3  A    between atoms: C_6  and  C_7
REMARK    4  A    between atoms: C_10  and  O_11
REMARK    5  A    between atoms: O_11  and  C_12
REMARK    6  A    between atoms: C_12  and  C_14
REMARK    7  A    between atoms: C_14  and  C_15
REMARK    8  A    between atoms: C_15  and  N_16
REMARK                            x       y       z     vdW  Elec       q    Type
REMARK                         _______ _______ _______ _____ _____    ______ ____
ROOT
ATOM      1  N   UNL     1       1.052  13.883  20.127  0.00  0.00    +0.000 N 
ATOM      2  C   UNL     1       0.446  13.325  18.968  0.00  0.00    +0.000 C 
ATOM      3  O   UNL     1      -0.426  13.883  18.327  0.00  0.00    +0.000 OA
ATOM      4  C   UNL     1       1.024  11.769  18.752  0.00  0.00    +0.000 C 
ATOM      5  C   UNL     1       0.389  10.225  18.698  0.00  0.00    +0.000 C 
ATOM      6  C   UNL     1      -1.062  10.532  18.406  0.00  0.00    +0.000 A 
ATOM      7  C   UNL     1      -1.881  10.033  17.405  0.00  0.00    +0.000 A 
ATOM      8  C   UNL     1      -3.185  10.525  17.320  0.00  0.00    +0.000 A 
ATOM      9  C   UNL     1      -3.635  11.510  18.214  0.00  0.00    +0.000 A 
ATOM     10  C   UNL     1      -2.828  11.942  19.275  0.00  0.00    +0.000 A 
ATOM     11  C   UNL     1      -1.552  11.417  19.396  0.00  0.00    +0.000 A 
ATOM     12  C   UNL     1      -0.572  11.526  20.607  0.00  0.00    +0.000 C 
ATOM     13  C   UNL     1      -0.587  10.063  21.063  0.00  0.00    +0.000 A 
ATOM     14  C   UNL     1      -0.803   9.863  22.418  0.00  0.00    +0.000 A 
ATOM     15  C   UNL     1       0.334   9.570  23.118  0.00  0.00    +0.000 A 
ATOM     16  C   UNL     1       1.482   9.187  22.400  0.00  0.00    +0.000 A 
ATOM     17  C   UNL     1       1.469   8.966  20.973  0.00  0.00    +0.000 A 
ATOM     18  C   UNL     1       0.365   9.417  20.226  0.00  0.00    +0.000 A 
ATOM     19  C   UNL     1       1.111  11.731  20.227  0.00  0.00    +0.000 C 
ATOM     20  C   UNL     1       1.870  12.926  20.557  0.00  0.00    +0.000 C 
ATOM     21  O   UNL     1       2.919  13.027  21.161  0.00  0.00    +0.000 OA
ENDROOT
BRANCH   1  22
ATOM     22  C   UNL     1       0.587  14.530  21.368  0.00  0.00    +0.000 C 
BRANCH  22  23
ATOM     23  C   UNL     1      -0.829  14.968  21.584  0.00  0.00    +0.000 C 
BRANCH  23  24
ATOM     24  C   UNL     1      -1.309  14.448  22.884  0.00  0.00    +0.000 C 
ATOM     25  O   UNL     1      -0.736  13.593  23.543  0.00  0.00    +0.000 OA
BRANCH  24  26
ATOM     26  O   UNL     1      -2.563  14.974  23.134  0.00  0.00    +0.000 OA
BRANCH  26  33
ATOM     27  C   UNL     1      -4.254  13.319  22.651  0.00  0.00    +0.000 A 
ATOM     28  C   UNL     1      -5.306  12.890  21.824  0.00  0.00    +0.000 A 
ATOM     29  C   UNL     1      -5.699  13.615  20.691  0.00  0.00    +0.000 A 
ATOM     30  C   UNL     1      -6.811  13.133  19.812  0.00  0.00    +0.000 C 
ATOM     31  C   UNL     1      -5.029  14.790  20.369  0.00  0.00    +0.000 A 
ATOM     32  C   UNL     1      -3.993  15.243  21.177  0.00  0.00    +0.000 A 
ATOM     33  C   UNL     1      -3.599  14.513  22.310  0.00  0.00    +0.000 A 
BRANCH  27  35
ATOM     34  C   UNL     1      -4.612  12.593  25.156  0.00  0.00    +0.000 C 
ATOM     35  C   UNL     1      -3.942  12.424  23.819  0.00  0.00    +0.000 C 
ATOM     36  O   UNL     1      -3.118  11.517  23.678  0.00  0.00    +0.000 OA
ENDBRANCH  27  35
ENDBRANCH  26  33
ENDBRANCH  24  26
ENDBRANCH  23  24
ENDBRANCH  22  23
ENDBRANCH   1  22
TORSDOF 6
ENDMDL
MODEL 5
REMARK VINA RESULT:      -8.2      1.157      1.624
REMARK  Name = 
REMARK  8 active torsions:
REMARK  status: ('A' for Active; 'I' for Inactive)
REMARK    1  A    between atoms: C_1  and  C_2
REMARK    2  A    between atoms: C_2  and  C_4
REMARK    3  A    between atoms: C_6  and  C_7
REMARK    4  A    between atoms: C_10  and  O_11
REMARK    5  A    between atoms: O_11  and  C_12
REMARK    6  A    between atoms: C_12  and  C_14
REMARK    7  A    between atoms: C_14  and  C_15
REMARK    8  A    between atoms: C_15  and  N_16
REMARK                            x       y       z     vdW  Elec       q    Type
REMARK                         _______ _______ _______ _____ _____    ______ ____
ROOT
ATOM      1  N   UNL     1       2.954   7.365  18.790  0.00  0.00    +0.000 N 
ATOM      2  C   UNL     1       4.305   7.121  18.421  0.00  0.00    +0.000 C 
ATOM      3  O   UNL     1       4.886   7.736  17.545  0.00  0.00    +0.000 OA
ATOM      4  C   UNL     1       4.868   5.795  19.272  0.00  0.00    +0.000 C 
ATOM      5  C   UNL     1       5.466   4.276  18.916  0.00  0.00    +0.000 C 
ATOM      6  C   UNL     1       5.882   4.474  17.476  0.00  0.00    +0.000 A 
ATOM      7  C   UNL     1       7.100   4.210  16.870  0.00  0.00    +0.000 A 
ATOM      8  C   UNL     1       7.244   4.535  15.520  0.00  0.00    +0.000 A 
ATOM      9  C   UNL     1       6.185   5.129  14.814  0.00  0.00    +0.000 A 
ATOM     10  C   UNL     1       4.932   5.310  15.412  0.00  0.00    +0.000 A 
ATOM     11  C   UNL     1       4.768   4.939  16.736  0.00  0.00    +0.000 A 
ATOM     12  C   UNL     1       3.438   4.790  17.542  0.00  0.00    +0.000 C 
ATOM     13  C   UNL     1       3.433   3.268  17.722  0.00  0.00    +0.000 A 
ATOM     14  C   UNL     1       2.246   2.632  17.392  0.00  0.00    +0.000 A 
ATOM     15  C   UNL     1       1.491   2.283  18.476  0.00  0.00    +0.000 A 
ATOM     16  C   UNL     1       2.098   2.289  19.746  0.00  0.00    +0.000 A 
ATOM     17  C   UNL     1       3.511   2.521  19.930  0.00  0.00    +0.000 A 
ATOM     18  C   UNL     1       4.260   3.038  18.857  0.00  0.00    +0.000 A 
ATOM     19  C   UNL     1       3.472   5.314  19.199  0.00  0.00    +0.000 C 
ATOM     20  C   UNL     1       2.696   6.433  19.703  0.00  0.00    +0.000 C 
ATOM     21  O   UNL     1       1.930   6.474  20.647  0.00  0.00    +0.000 OA
ENDROOT
BRANCH   1  22
ATOM     22  C   UNL     1       1.667   7.531  18.087  0.00  0.00    +0.000 C 
BRANCH  22  23
ATOM     23  C   UNL     1       1.121   8.867  17.683  0.00  0.00    +0.000 C 
BRANCH  23  24
ATOM     24  C   UNL     1       0.901   9.691  18.893  0.00  0.00    +0.000 C 
ATOM     25  O   UNL     1       0.911   9.260  20.036  0.00  0.00    +0.000 OA
BRANCH  24  26
ATOM     26  O   UNL     1       0.536  10.965  18.498  0.00  0.00    +0.000 OA
BRANCH  26  33
ATOM     27  C   UNL     1      -0.993  12.170  19.926  0.00  0.00    +0.000 A 
ATOM     28  C   UNL     1      -2.312  12.567  20.201  0.00  0.00    +0.000 A 
ATOM     29  C   UNL     1      -3.388  12.168  19.396  0.00  0.00    +0.000 A 
ATOM     30  C   UNL     1      -4.789  12.587  19.714  0.00  0.00    +0.000 C 
ATOM     31  C   UNL     1      -3.147  11.351  18.296  0.00  0.00    +0.000 A 
ATOM     32  C   UNL     1      -1.851  10.954  17.995  0.00  0.00    +0.000 A 
ATOM     33  C   UNL     1      -0.775  11.354  18.805  0.00  0.00    +0.000 A 
BRANCH  27  35
ATOM     34  C   UNL     1       0.876  13.893  20.612  0.00  0.00    +0.000 C 
ATOM     35  C   UNL     1       0.048  12.668  20.892  0.00  0.00    +0.000 C 
ATOM     36  O   UNL     1       0.226  12.061  21.951  0.00  0.00    +0.000 OA
ENDBRANCH  27  35
ENDBRANCH  26  33
ENDBRANCH  24  26
ENDBRANCH  23  24
ENDBRANCH  22  23
ENDBRANCH   1  22
TORSDOF 6
ENDMDL
MODEL 6
REMARK VINA RESULT:      -8.2      1.433      2.064
REMARK  Name = 
REMARK  8 active torsions:
REMARK  status: ('A' for Active; 'I' for Inactive)
REMARK    1  A    between atoms: C_1  and  C_2
REMARK    2  A    between atoms: C_2  and  C_4
REMARK    3  A    between atoms: C_6  and  C_7
REMARK    4  A    between atoms: C_10  and  O_11
REMARK    5  A    between atoms: O_11  and  C_12
REMARK    6  A    between atoms: C_12  and  C_14
REMARK    7  A    between atoms: C_14  and  C_15
REMARK    8  A    between atoms: C_15  and  N_16
REMARK                            x       y       z     vdW  Elec       q    Type
REMARK                         _______ _______ _______ _____ _____    ______ ____
ROOT
ATOM      1  N   UNL     1       2.992   7.398  18.801  0.00  0.00    +0.000 N 
ATOM      2  C   UNL     1       4.332   7.127  18.412  0.00  0.00    +0.000 C 
ATOM      3  O   UNL     1       4.915   7.734  17.531  0.00  0.00    +0.000 OA
ATOM      4  C   UNL     1       4.878   5.785  19.249  0.00  0.00    +0.000 C 
ATOM      5  C   UNL     1       5.438   4.255  18.877  0.00  0.00    +0.000 C 
ATOM      6  C   UNL     1       5.838   4.451  17.433  0.00  0.00    +0.000 A 
ATOM      7  C   UNL     1       7.042   4.164  16.809  0.00  0.00    +0.000 A 
ATOM      8  C   UNL     1       7.174   4.493  15.459  0.00  0.00    +0.000 A 
ATOM      9  C   UNL     1       6.120   5.113  14.770  0.00  0.00    +0.000 A 
ATOM     10  C   UNL     1       4.879   5.318  15.386  0.00  0.00    +0.000 A 
ATOM     11  C   UNL     1       4.724   4.944  16.711  0.00  0.00    +0.000 A 
ATOM     12  C   UNL     1       3.403   4.820  17.534  0.00  0.00    +0.000 C 
ATOM     13  C   UNL     1       3.368   3.298  17.707  0.00  0.00    +0.000 A 
ATOM     14  C   UNL     1       2.163   2.689  17.390  0.00  0.00    +0.000 A 
ATOM     15  C   UNL     1       1.414   2.351  18.482  0.00  0.00    +0.000 A 
ATOM     16  C   UNL     1       2.039   2.337  19.744  0.00  0.00    +0.000 A 
ATOM     17  C   UNL     1       3.459   2.538  19.910  0.00  0.00    +0.000 A 
ATOM     18  C   UNL     1       4.205   3.044  18.829  0.00  0.00    +0.000 A 
ATOM     19  C   UNL     1       3.471   5.334  19.192  0.00  0.00    +0.000 C 
ATOM     20  C   UNL     1       2.726   6.468  19.713  0.00  0.00    +0.000 C 
ATOM     21  O   UNL     1       1.974   6.520  20.667  0.00  0.00    +0.000 OA
ENDROOT
BRANCH   1  22
ATOM     22  C   UNL     1       1.700   7.596  18.116  0.00  0.00    +0.000 C 
BRANCH  22  23
ATOM     23  C   UNL     1       1.254   8.920  17.574  0.00  0.00    +0.000 C 
BRANCH  23  24
ATOM     24  C   UNL     1       0.686   9.732  18.674  0.00  0.00    +0.000 C 
ATOM     25  O   UNL     1       0.519   9.332  19.817  0.00  0.00    +0.000 OA
BRANCH  24  26
ATOM     26  O   UNL     1       0.246  10.934  18.153  0.00  0.00    +0.000 OA
BRANCH  26  33
ATOM     27  C   UNL     1      -2.091  11.386  18.559  0.00  0.00    +0.000 A 
ATOM     28  C   UNL     1      -3.066  12.045  19.327  0.00  0.00    +0.000 A 
ATOM     29  C   UNL     1      -2.723  12.894  20.388  0.00  0.00    +0.000 A 
ATOM     30  C   UNL     1      -3.775  13.601  21.183  0.00  0.00    +0.000 C 
ATOM     31  C   UNL     1      -1.380  13.097  20.689  0.00  0.00    +0.000 A 
ATOM     32  C   UNL     1      -0.397  12.448  19.954  0.00  0.00    +0.000 A 
ATOM     33  C   UNL     1      -0.743  11.600  18.889  0.00  0.00    +0.000 A 
BRANCH  27  35
ATOM     34  C   UNL     1      -2.636  10.985  16.015  0.00  0.00    +0.000 C 
ATOM     35  C   UNL     1      -2.618  10.521  17.447  0.00  0.00    +0.000 C 
ATOM     36  O   UNL     1      -3.043   9.394  17.711  0.00  0.00    +0.000 OA
ENDBRANCH  27  35
ENDBRANCH  26  33
ENDBRANCH  24  26
ENDBRANCH  23  24
ENDBRANCH  22  23
ENDBRANCH   1  22
TORSDOF 6
ENDMDL
MODEL 7
REMARK VINA RESULT:      -8.2      2.035      9.110
REMARK  Name = 
REMARK  8 active torsions:
REMARK  status: ('A' for Active; 'I' for Inactive)
REMARK    1  A    between atoms: C_1  and  C_2
REMARK    2  A    between atoms: C_2  and  C_4
REMARK    3  A    between atoms: C_6  and  C_7
REMARK    4  A    between atoms: C_10  and  O_11
REMARK    5  A    between atoms: O_11  and  C_12
REMARK    6  A    between atoms: C_12  and  C_14
REMARK    7  A    between atoms: C_14  and  C_15
REMARK    8  A    between atoms: C_15  and  N_16
REMARK                            x       y       z     vdW  Elec       q    Type
REMARK                         _______ _______ _______ _____ _____    ______ ____
ROOT
ATOM      1  N   UNL     1       1.517   9.749  19.557  0.00  0.00    +0.000 N 
ATOM      2  C   UNL     1       1.280  11.043  20.098  0.00  0.00    +0.000 C 
ATOM      3  O   UNL     1       1.433  11.322  21.273  0.00  0.00    +0.000 OA
ATOM      4  C   UNL     1       0.639  12.020  18.900  0.00  0.00    +0.000 C 
ATOM      5  C   UNL     1      -0.772  12.879  18.646  0.00  0.00    +0.000 C 
ATOM      6  C   UNL     1      -1.279  13.002  20.065  0.00  0.00    +0.000 A 
ATOM      7  C   UNL     1      -1.668  14.135  20.763  0.00  0.00    +0.000 A 
ATOM      8  C   UNL     1      -2.053  13.982  22.096  0.00  0.00    +0.000 A 
ATOM      9  C   UNL     1      -2.023  12.717  22.706  0.00  0.00    +0.000 A 
ATOM     10  C   UNL     1      -1.713  11.569  21.966  0.00  0.00    +0.000 A 
ATOM     11  C   UNL     1      -1.383  11.708  20.629  0.00  0.00    +0.000 A 
ATOM     12  C   UNL     1      -1.259  10.594  19.541  0.00  0.00    +0.000 C 
ATOM     13  C   UNL     1      -2.472  10.961  18.679  0.00  0.00    +0.000 A 
ATOM     14  C   UNL     1      -3.321   9.911  18.365  0.00  0.00    +0.000 A 
ATOM     15  C   UNL     1      -3.162   9.438  17.092  0.00  0.00    +0.000 A 
ATOM     16  C   UNL     1      -2.447  10.225  16.170  0.00  0.00    +0.000 A 
ATOM     17  C   UNL     1      -1.990  11.560  16.477  0.00  0.00    +0.000 A 
ATOM     18  C   UNL     1      -2.001  11.990  17.817  0.00  0.00    +0.000 A 
ATOM     19  C   UNL     1       0.027  10.776  18.387  0.00  0.00    +0.000 C 
ATOM     20  C   UNL     1       1.150   9.858  18.284  0.00  0.00    +0.000 C 
ATOM     21  O   UNL     1       1.570   9.266  17.310  0.00  0.00    +0.000 OA
ENDROOT
BRANCH   1  22
ATOM     22  C   UNL     1       1.156   8.362  19.908  0.00  0.00    +0.000 C 
BRANCH  22  23
ATOM     23  C   UNL     1       2.160   7.340  20.346  0.00  0.00    +0.000 C 
BRANCH  23  24
ATOM     24  C   UNL     1       2.420   6.402  19.231  0.00  0.00    +0.000 C 
ATOM     25  O   UNL     1       1.560   5.952  18.488  0.00  0.00    +0.000 OA
BRANCH  24  26
ATOM     26  O   UNL     1       3.747   6.016  19.280  0.00  0.00    +0.000 OA
BRANCH  26  33
ATOM     27  C   UNL     1       4.522   4.273  17.800  0.00  0.00    +0.000 A 
ATOM     28  C   UNL     1       5.079   3.916  16.560  0.00  0.00    +0.000 A 
ATOM     29  C   UNL     1       5.434   4.877  15.604  0.00  0.00    +0.000 A 
ATOM     30  C   UNL     1       6.043   4.479  14.296  0.00  0.00    +0.000 C 
ATOM     31  C   UNL     1       5.236   6.225  15.889  0.00  0.00    +0.000 A 
ATOM     32  C   UNL     1       4.676   6.604  17.102  0.00  0.00    +0.000 A 
ATOM     33  C   UNL     1       4.323   5.638  18.060  0.00  0.00    +0.000 A 
BRANCH  27  35
ATOM     34  C   UNL     1       3.108   2.143  18.431  0.00  0.00    +0.000 C 
ATOM     35  C   UNL     1       4.209   3.127  18.723  0.00  0.00    +0.000 C 
ATOM     36  O   UNL     1       4.879   2.981  19.749  0.00  0.00    +0.000 OA
ENDBRANCH  27  35
ENDBRANCH  26  33
ENDBRANCH  24  26
ENDBRANCH  23  24
ENDBRANCH  22  23
ENDBRANCH   1  22
TORSDOF 6
ENDMDL
MODEL 8
REMARK VINA RESULT:      -8.2      1.313      1.856
REMARK  Name = 
REMARK  8 active torsions:
REMARK  status: ('A' for Active; 'I' for Inactive)
REMARK    1  A    between atoms: C_1  and  C_2
REMARK    2  A    between atoms: C_2  and  C_4
REMARK    3  A    between atoms: C_6  and  C_7
REMARK    4  A    between atoms: C_10  and  O_11
REMARK    5  A    between atoms: O_11  and  C_12
REMARK    6  A    between atoms: C_12  and  C_14
REMARK    7  A    between atoms: C_14  and  C_15
REMARK    8  A    between atoms: C_15  and  N_16
REMARK                            x       y       z     vdW  Elec       q    Type
REMARK                         _______ _______ _______ _____ _____    ______ ____
ROOT
ATOM      1  N   UNL     1       2.934   7.468  18.735  0.00  0.00    +0.000 N 
ATOM      2  C   UNL     1       4.283   7.186  18.386  0.00  0.00    +0.000 C 
ATOM      3  O   UNL     1       4.887   7.767  17.503  0.00  0.00    +0.000 OA
ATOM      4  C   UNL     1       4.806   5.867  19.273  0.00  0.00    +0.000 C 
ATOM      5  C   UNL     1       5.373   4.327  18.958  0.00  0.00    +0.000 C 
ATOM      6  C   UNL     1       5.808   4.482  17.518  0.00  0.00    +0.000 A 
ATOM      7  C   UNL     1       7.027   4.178  16.932  0.00  0.00    +0.000 A 
ATOM      8  C   UNL     1       7.191   4.468  15.577  0.00  0.00    +0.000 A 
ATOM      9  C   UNL     1       6.154   5.070  14.846  0.00  0.00    +0.000 A 
ATOM     10  C   UNL     1       4.899   5.292  15.426  0.00  0.00    +0.000 A 
ATOM     11  C   UNL     1       4.713   4.955  16.757  0.00  0.00    +0.000 A 
ATOM     12  C   UNL     1       3.372   4.855  17.551  0.00  0.00    +0.000 C 
ATOM     13  C   UNL     1       3.331   3.338  17.766  0.00  0.00    +0.000 A 
ATOM     14  C   UNL     1       2.133   2.722  17.437  0.00  0.00    +0.000 A 
ATOM     15  C   UNL     1       1.358   2.414  18.521  0.00  0.00    +0.000 A 
ATOM     16  C   UNL     1       1.953   2.436  19.797  0.00  0.00    +0.000 A 
ATOM     17  C   UNL     1       3.369   2.641  19.991  0.00  0.00    +0.000 A 
ATOM     18  C   UNL     1       4.140   3.116  18.914  0.00  0.00    +0.000 A 
ATOM     19  C   UNL     1       3.401   5.416  19.196  0.00  0.00    +0.000 C 
ATOM     20  C   UNL     1       2.645   6.564  19.667  0.00  0.00    +0.000 C 
ATOM     21  O   UNL     1       1.871   6.643  20.600  0.00  0.00    +0.000 OA
ENDROOT
BRANCH   1  22
ATOM     22  C   UNL     1       1.659   7.648  18.015  0.00  0.00    +0.000 C 
BRANCH  22  23
ATOM     23  C   UNL     1       1.245   8.946  17.392  0.00  0.00    +0.000 C 
BRANCH  23  24
ATOM     24  C   UNL     1       0.452   9.725  18.370  0.00  0.00    +0.000 C 
ATOM     25  O   UNL     1      -0.753   9.913  18.293  0.00  0.00    +0.000 OA
BRANCH  24  26
ATOM     26  O   UNL     1       1.319  10.315  19.271  0.00  0.00    +0.000 OA
BRANCH  26  33
ATOM     27  C   UNL     1       0.729  12.525  20.046  0.00  0.00    +0.000 A 
ATOM     28  C   UNL     1       0.906  13.915  19.942  0.00  0.00    +0.000 A 
ATOM     29  C   UNL     1       1.775  14.483  19.001  0.00  0.00    +0.000 A 
ATOM     30  C   UNL     1       1.936  15.967  18.894  0.00  0.00    +0.000 C 
ATOM     31  C   UNL     1       2.481  13.650  18.139  0.00  0.00    +0.000 A 
ATOM     32  C   UNL     1       2.334  12.272  18.228  0.00  0.00    +0.000 A 
ATOM     33  C   UNL     1       1.460  11.705  19.171  0.00  0.00    +0.000 A 
BRANCH  27  35
ATOM     34  C   UNL     1      -1.738  12.175  20.896  0.00  0.00    +0.000 C 
ATOM     35  C   UNL     1      -0.250  12.072  21.094  0.00  0.00    +0.000 C 
ATOM     36  O   UNL     1       0.176  11.594  22.149  0.00  0.00    +0.000 OA
ENDBRANCH  27  35
ENDBRANCH  26  33
ENDBRANCH  24  26
ENDBRANCH  23  24
ENDBRANCH  22  23
ENDBRANCH   1  22
TORSDOF 6
ENDMDL
MODEL 9
REMARK VINA RESULT:      -8.2      1.145      2.076
REMARK  Name = 
REMARK  8 active torsions:
REMARK  status: ('A' for Active; 'I' for Inactive)
REMARK    1  A    between atoms: C_1  and  C_2
REMARK    2  A    between atoms: C_2  and  C_4
REMARK    3  A    between atoms: C_6  and  C_7
REMARK    4  A    between atoms: C_10  and  O_11
REMARK    5  A    between atoms: O_11  and  C_12
REMARK    6  A    between atoms: C_12  and  C_14
REMARK    7  A    between atoms: C_14  and  C_15
REMARK    8  A    between atoms: C_15  and  N_16
REMARK                            x       y       z     vdW  Elec       q    Type
REMARK                         _______ _______ _______ _____ _____    ______ ____
ROOT
ATOM      1  N   UNL     1       2.953   7.494  18.729  0.00  0.00    +0.000 N 
ATOM      2  C   UNL     1       4.301   7.194  18.391  0.00  0.00    +0.000 C 
ATOM      3  O   UNL     1       4.920   7.766  17.511  0.00  0.00    +0.000 OA
ATOM      4  C   UNL     1       4.801   5.871  19.285  0.00  0.00    +0.000 C 
ATOM      5  C   UNL     1       5.351   4.323  18.976  0.00  0.00    +0.000 C 
ATOM      6  C   UNL     1       5.799   4.470  17.540  0.00  0.00    +0.000 A 
ATOM      7  C   UNL     1       7.019   4.149  16.964  0.00  0.00    +0.000 A 
ATOM      8  C   UNL     1       7.198   4.435  15.610  0.00  0.00    +0.000 A 
ATOM      9  C   UNL     1       6.174   5.048  14.869  0.00  0.00    +0.000 A 
ATOM     10  C   UNL     1       4.917   5.287  15.439  0.00  0.00    +0.000 A 
ATOM     11  C   UNL     1       4.716   4.955  16.769  0.00  0.00    +0.000 A 
ATOM     12  C   UNL     1       3.368   4.873  17.552  0.00  0.00    +0.000 C 
ATOM     13  C   UNL     1       3.306   3.358  17.769  0.00  0.00    +0.000 A 
ATOM     14  C   UNL     1       2.103   2.756  17.432  0.00  0.00    +0.000 A 
ATOM     15  C   UNL     1       1.316   2.460  18.510  0.00  0.00    +0.000 A 
ATOM     16  C   UNL     1       1.901   2.476  19.791  0.00  0.00    +0.000 A 
ATOM     17  C   UNL     1       3.318   2.664  19.996  0.00  0.00    +0.000 A 
ATOM     18  C   UNL     1       4.104   3.127  18.925  0.00  0.00    +0.000 A 
ATOM     19  C   UNL     1       3.391   5.436  19.196  0.00  0.00    +0.000 C 
ATOM     20  C   UNL     1       2.646   6.595  19.659  0.00  0.00    +0.000 C 
ATOM     21  O   UNL     1       1.865   6.686  20.587  0.00  0.00    +0.000 OA
ENDROOT
BRANCH   1  22
ATOM     22  C   UNL     1       1.686   7.688  17.998  0.00  0.00    +0.000 C 
BRANCH  22  23
ATOM     23  C   UNL     1       1.243   9.016  17.464  0.00  0.00    +0.000 C 
BRANCH  23  24
ATOM     24  C   UNL     1       0.371   9.677  18.461  0.00  0.00    +0.000 C 
ATOM     25  O   UNL     1      -0.818   9.907  18.299  0.00  0.00    +0.000 OA
BRANCH  24  26
ATOM     26  O   UNL     1       1.157  10.115  19.511  0.00  0.00    +0.000 OA
BRANCH  26  33
ATOM     27  C   UNL     1       0.428  12.274  20.309  0.00  0.00    +0.000 A 
ATOM     28  C   UNL     1      -0.249  13.022  21.288  0.00  0.00    +0.000 A 
ATOM     29  C   UNL     1      -0.827  12.417  22.412  0.00  0.00    +0.000 A 
ATOM     30  C   UNL     1      -1.529  13.233  23.453  0.00  0.00    +0.000 C 
ATOM     31  C   UNL     1      -0.727  11.039  22.570  0.00  0.00    +0.000 A 
ATOM     32  C   UNL     1      -0.074  10.275  21.611  0.00  0.00    +0.000 A 
ATOM     33  C   UNL     1       0.508  10.884  20.487  0.00  0.00    +0.000 A 
BRANCH  27  35
ATOM     34  C   UNL     1       2.491  13.213  18.970  0.00  0.00    +0.000 C 
ATOM     35  C   UNL     1       1.006  13.070  19.171  0.00  0.00    +0.000 C 
ATOM     36  O   UNL     1       0.244  13.618  18.371  0.00  0.00    +0.000 OA
ENDBRANCH  27  35
ENDBRANCH  26  33
ENDBRANCH  24  26
ENDBRANCH  23  24
ENDBRANCH  22  23
ENDBRANCH   1  22
TORSDOF 6
ENDMDL
