MODEL 1
REMARK VINA RESULT:      -7.2      0.000      0.000
REMARK  Name = 
REMARK  8 active torsions:
REMARK  status: ('A' for Active; 'I' for Inactive)
REMARK    1  A    between atoms: C_1  and  C_2
REMARK    2  A    between atoms: C_2  and  O_4
REMARK    3  A    between atoms: O_4  and  C_5
REMARK    4  A    between atoms: C_5  and  C_6
REMARK    5  A    between atoms: C_6  and  O_7
REMARK    6  A    between atoms: O_7  and  C_8
REMARK    7  A    between atoms: C_10  and  C_11
REMARK    8  A    between atoms: C_15  and  N_16
REMARK                            x       y       z     vdW  Elec       q    Type
REMARK                         _______ _______ _______ _____ _____    ______ ____
ROOT
ATOM      1  C   UNL     1       4.657   4.595  19.001  0.00  0.00    +0.000 A 
ATOM      2  N   UNL     1       3.750   5.280  19.641  0.00  0.00    +0.000 NA
ATOM      3  C   UNL     1       3.252   6.424  19.021  0.00  0.00    +0.000 A 
ATOM      4  C   UNL     1       2.242   7.222  19.795  0.00  0.00    +0.000 C 
ATOM      5  C   UNL     1       3.637   6.821  17.789  0.00  0.00    +0.000 A 
ATOM      6  N   UNL     1       4.585   6.076  17.116  0.00  0.00    +0.000 N 
ATOM      7  C   UNL     1       5.133   6.205  15.871  0.00  0.00    +0.000 A 
ATOM      8  C   UNL     1       6.013   5.143  15.765  0.00  0.00    +0.000 A 
ATOM      9  N   UNL     1       6.019   4.372  16.913  0.00  0.00    +0.000 NA
ATOM     10  C   UNL     1       5.143   4.965  17.698  0.00  0.00    +0.000 A 
ENDROOT
BRANCH   8  11
ATOM     11  N   UNL     1       6.835   4.801  14.625  0.00  0.00    +0.000 N 
ATOM     12  O   UNL     1       6.465   3.827  13.952  0.00  0.00    +0.000 OA
ATOM     13  O   UNL     1       7.837   5.493  14.404  0.00  0.00    +0.000 OA
ENDBRANCH   8  11
BRANCH   1  14
ATOM     14  O   UNL     1       5.229   3.457  19.461  0.00  0.00    +0.000 OA
BRANCH  14  15
ATOM     15  C   UNL     1       4.357   2.396  19.888  0.00  0.00    +0.000 C 
BRANCH  15  16
ATOM     16  C   UNL     1       3.572   1.869  18.688  0.00  0.00    +0.000 C 
BRANCH  16  17
ATOM     17  O   UNL     1       2.164   1.762  18.972  0.00  0.00    +0.000 OA
BRANCH  17  19
ATOM     18  C   UNL     1       0.754   3.330  19.996  0.00  0.00    +0.000 C 
ATOM     19  C   UNL     1       1.430   2.883  18.737  0.00  0.00    +0.000 C 
ATOM     20  O   UNL     1       1.334   3.454  17.659  0.00  0.00    +0.000 OA
ENDBRANCH  17  19
ENDBRANCH  16  17
ENDBRANCH  15  16
ENDBRANCH  14  15
ENDBRANCH   1  14
TORSDOF 6
ENDMDL
MODEL 2
REMARK VINA RESULT:      -6.9      0.601      1.042
REMARK  Name = 
REMARK  8 active torsions:
REMARK  status: ('A' for Active; 'I' for Inactive)
REMARK    1  A    between atoms: C_1  and  C_2
REMARK    2  A    between atoms: C_2  and  O_4
REMARK    3  A    between atoms: O_4  and  C_5
REMARK    4  A    between atoms: C_5  and  C_6
REMARK    5  A    between atoms: C_6  and  O_7
REMARK    6  A    between atoms: O_7  and  C_8
REMARK    7  A    between atoms: C_10  and  C_11
REMARK    8  A    between atoms: C_15  and  N_16
REMARK                            x       y       z     vdW  Elec       q    Type
REMARK                         _______ _______ _______ _____ _____    ______ ____
ROOT
ATOM      1  C   UNL     1       4.656   4.643  19.034  0.00  0.00    +0.000 A 
ATOM      2  N   UNL     1       3.750   5.337  19.666  0.00  0.00    +0.000 NA
ATOM      3  C   UNL     1       3.258   6.478  19.036  0.00  0.00    +0.000 A 
ATOM      4  C   UNL     1       2.250   7.287  19.802  0.00  0.00    +0.000 C 
ATOM      5  C   UNL     1       3.648   6.864  17.802  0.00  0.00    +0.000 A 
ATOM      6  N   UNL     1       4.594   6.109  17.137  0.00  0.00    +0.000 N 
ATOM      7  C   UNL     1       5.145   6.227  15.892  0.00  0.00    +0.000 A 
ATOM      8  C   UNL     1       6.021   5.161  15.796  0.00  0.00    +0.000 A 
ATOM      9  N   UNL     1       6.021   4.399  16.950  0.00  0.00    +0.000 NA
ATOM     10  C   UNL     1       5.145   5.001  17.728  0.00  0.00    +0.000 A 
ENDROOT
BRANCH   8  11
ATOM     11  N   UNL     1       6.843   4.806  14.660  0.00  0.00    +0.000 N 
ATOM     12  O   UNL     1       7.860   5.493  14.480  0.00  0.00    +0.000 OA
ATOM     13  O   UNL     1       6.479   3.854  13.957  0.00  0.00    +0.000 OA
ENDBRANCH   8  11
BRANCH   1  14
ATOM     14  O   UNL     1       5.222   3.506  19.503  0.00  0.00    +0.000 OA
BRANCH  14  15
ATOM     15  C   UNL     1       4.344   2.452  19.936  0.00  0.00    +0.000 C 
BRANCH  15  16
ATOM     16  C   UNL     1       3.524   1.953  18.747  0.00  0.00    +0.000 C 
BRANCH  16  17
ATOM     17  O   UNL     1       2.145   1.736  19.099  0.00  0.00    +0.000 OA
BRANCH  17  19
ATOM     18  C   UNL     1       1.334   3.562  17.872  0.00  0.00    +0.000 C 
ATOM     19  C   UNL     1       1.379   2.856  19.191  0.00  0.00    +0.000 C 
ATOM     20  O   UNL     1       0.801   3.238  20.201  0.00  0.00    +0.000 OA
ENDBRANCH  17  19
ENDBRANCH  16  17
ENDBRANCH  15  16
ENDBRANCH  14  15
ENDBRANCH   1  14
TORSDOF 6
ENDMDL
MODEL 3
REMARK VINA RESULT:      -6.8      1.684      2.139
REMARK  Name = 
REMARK  8 active torsions:
REMARK  status: ('A' for Active; 'I' for Inactive)
REMARK    1  A    between atoms: C_1  and  C_2
REMARK    2  A    between atoms: C_2  and  O_4
REMARK    3  A    between atoms: O_4  and  C_5
REMARK    4  A    between atoms: C_5  and  C_6
REMARK    5  A    between atoms: C_6  and  O_7
REMARK    6  A    between atoms: O_7  and  C_8
REMARK    7  A    between atoms: C_10  and  C_11
REMARK    8  A    between atoms: C_15  and  N_16
REMARK                            x       y       z     vdW  Elec       q    Type
REMARK                         _______ _______ _______ _____ _____    ______ ____
ROOT
ATOM      1  C   UNL     1       3.371   5.696  19.301  0.00  0.00    +0.000 A 
ATOM      2  N   UNL     1       2.453   6.617  19.204  0.00  0.00    +0.000 NA
ATOM      3  C   UNL     1       2.647   7.621  18.257  0.00  0.00    +0.000 A 
ATOM      4  C   UNL     1       1.601   8.697  18.195  0.00  0.00    +0.000 C 
ATOM      5  C   UNL     1       3.710   7.654  17.426  0.00  0.00    +0.000 A 
ATOM      6  N   UNL     1       4.665   6.661  17.528  0.00  0.00    +0.000 N 
ATOM      7  C   UNL     1       5.805   6.415  16.816  0.00  0.00    +0.000 A 
ATOM      8  C   UNL     1       6.328   5.266  17.382  0.00  0.00    +0.000 A 
ATOM      9  N   UNL     1       5.540   4.808  18.422  0.00  0.00    +0.000 NA
ATOM     10  C   UNL     1       4.547   5.673  18.472  0.00  0.00    +0.000 A 
ENDROOT
BRANCH   8  11
ATOM     11  N   UNL     1       7.524   4.560  16.978  0.00  0.00    +0.000 N 
ATOM     12  O   UNL     1       7.703   4.433  15.757  0.00  0.00    +0.000 OA
ATOM     13  O   UNL     1       8.274   4.135  17.867  0.00  0.00    +0.000 OA
ENDBRANCH   8  11
BRANCH   1  14
ATOM     14  O   UNL     1       3.324   4.649  20.159  0.00  0.00    +0.000 OA
BRANCH  14  15
ATOM     15  C   UNL     1       2.220   4.589  21.079  0.00  0.00    +0.000 C 
BRANCH  15  16
ATOM     16  C   UNL     1       1.420   3.311  20.832  0.00  0.00    +0.000 C 
BRANCH  16  17
ATOM     17  O   UNL     1       2.077   2.438  19.894  0.00  0.00    +0.000 OA
BRANCH  17  19
ATOM     18  C   UNL     1       2.489   2.405  17.586  0.00  0.00    +0.000 C 
ATOM     19  C   UNL     1       1.473   2.316  18.682  0.00  0.00    +0.000 C 
ATOM     20  O   UNL     1       0.273   2.151  18.501  0.00  0.00    +0.000 OA
ENDBRANCH  17  19
ENDBRANCH  16  17
ENDBRANCH  15  16
ENDBRANCH  14  15
ENDBRANCH   1  14
TORSDOF 6
ENDMDL
MODEL 4
REMARK VINA RESULT:      -6.7      2.691      5.677
REMARK  Name = 
REMARK  8 active torsions:
REMARK  status: ('A' for Active; 'I' for Inactive)
REMARK    1  A    between atoms: C_1  and  C_2
REMARK    2  A    between atoms: C_2  and  O_4
REMARK    3  A    between atoms: O_4  and  C_5
REMARK    4  A    between atoms: C_5  and  C_6
REMARK    5  A    between atoms: C_6  and  O_7
REMARK    6  A    between atoms: O_7  and  C_8
REMARK    7  A    between atoms: C_10  and  C_11
REMARK    8  A    between atoms: C_15  and  N_16
REMARK                            x       y       z     vdW  Elec       q    Type
REMARK                         _______ _______ _______ _____ _____    ______ ____
ROOT
ATOM      1  C   UNL     1       6.234   5.461  15.991  0.00  0.00    +0.000 A 
ATOM      2  N   UNL     1       7.101   6.331  16.430  0.00  0.00    +0.000 NA
ATOM      3  C   UNL     1       7.230   6.471  17.810  0.00  0.00    +0.000 A 
ATOM      4  C   UNL     1       8.201   7.511  18.292  0.00  0.00    +0.000 C 
ATOM      5  C   UNL     1       6.533   5.726  18.693  0.00  0.00    +0.000 A 
ATOM      6  N   UNL     1       5.631   4.796  18.215  0.00  0.00    +0.000 N 
ATOM      7  C   UNL     1       4.827   3.892  18.851  0.00  0.00    +0.000 A 
ATOM      8  C   UNL     1       4.168   3.233  17.829  0.00  0.00    +0.000 A 
ATOM      9  N   UNL     1       4.546   3.712  16.588  0.00  0.00    +0.000 NA
ATOM     10  C   UNL     1       5.431   4.648  16.866  0.00  0.00    +0.000 A 
ENDROOT
BRANCH   8  11
ATOM     11  N   UNL     1       3.215   2.153  17.959  0.00  0.00    +0.000 N 
ATOM     12  O   UNL     1       2.096   2.341  17.458  0.00  0.00    +0.000 OA
ATOM     13  O   UNL     1       3.576   1.130  18.555  0.00  0.00    +0.000 OA
ENDBRANCH   8  11
BRANCH   1  14
ATOM     14  O   UNL     1       6.001   5.198  14.683  0.00  0.00    +0.000 OA
BRANCH  14  15
ATOM     15  C   UNL     1       7.138   4.949  13.838  0.00  0.00    +0.000 C 
BRANCH  15  16
ATOM     16  C   UNL     1       6.808   3.822  12.861  0.00  0.00    +0.000 C 
BRANCH  16  17
ATOM     17  O   UNL     1       5.388   3.649  12.700  0.00  0.00    +0.000 OA
BRANCH  17  19
ATOM     18  C   UNL     1       3.813   3.373  10.985  0.00  0.00    +0.000 C 
ATOM     19  C   UNL     1       5.007   2.815  11.695  0.00  0.00    +0.000 C 
ATOM     20  O   UNL     1       5.557   1.761  11.402  0.00  0.00    +0.000 OA
ENDBRANCH  17  19
ENDBRANCH  16  17
ENDBRANCH  15  16
ENDBRANCH  14  15
ENDBRANCH   1  14
TORSDOF 6
ENDMDL
MODEL 5
REMARK VINA RESULT:      -6.6      1.197      1.694
REMARK  Name = 
REMARK  8 active torsions:
REMARK  status: ('A' for Active; 'I' for Inactive)
REMARK    1  A    between atoms: C_1  and  C_2
REMARK    2  A    between atoms: C_2  and  O_4
REMARK    3  A    between atoms: O_4  and  C_5
REMARK    4  A    between atoms: C_5  and  C_6
REMARK    5  A    between atoms: C_6  and  O_7
REMARK    6  A    between atoms: O_7  and  C_8
REMARK    7  A    between atoms: C_10  and  C_11
REMARK    8  A    between atoms: C_15  and  N_16
REMARK                            x       y       z     vdW  Elec       q    Type
REMARK                         _______ _______ _______ _____ _____    ______ ____
ROOT
ATOM      1  C   UNL     1       3.934   4.492  18.140  0.00  0.00    +0.000 A 
ATOM      2  N   UNL     1       3.171   5.300  18.823  0.00  0.00    +0.000 NA
ATOM      3  C   UNL     1       3.148   6.639  18.441  0.00  0.00    +0.000 A 
ATOM      4  C   UNL     1       2.298   7.560  19.270  0.00  0.00    +0.000 C 
ATOM      5  C   UNL     1       3.842   7.116  17.386  0.00  0.00    +0.000 A 
ATOM      6  N   UNL     1       4.632   6.246  16.661  0.00  0.00    +0.000 N 
ATOM      7  C   UNL     1       5.403   6.425  15.547  0.00  0.00    +0.000 A 
ATOM      8  C   UNL     1       5.937   5.175  15.288  0.00  0.00    +0.000 A 
ATOM      9  N   UNL     1       5.515   4.240  16.216  0.00  0.00    +0.000 NA
ATOM     10  C   UNL     1       4.727   4.925  17.020  0.00  0.00    +0.000 A 
ENDROOT
BRANCH   8  11
ATOM     11  N   UNL     1       6.808   4.807  14.193  0.00  0.00    +0.000 N 
ATOM     12  O   UNL     1       7.844   5.476  14.065  0.00  0.00    +0.000 OA
ATOM     13  O   UNL     1       6.462   3.864  13.469  0.00  0.00    +0.000 OA
ENDBRANCH   8  11
BRANCH   1  14
ATOM     14  O   UNL     1       4.056   3.164  18.376  0.00  0.00    +0.000 OA
BRANCH  14  15
ATOM     15  C   UNL     1       3.037   2.296  17.852  0.00  0.00    +0.000 C 
BRANCH  15  16
ATOM     16  C   UNL     1       2.051   1.940  18.964  0.00  0.00    +0.000 C 
BRANCH  16  17
ATOM     17  O   UNL     1       2.598   2.199  20.270  0.00  0.00    +0.000 OA
BRANCH  17  19
ATOM     18  C   UNL     1       0.733   3.617  20.367  0.00  0.00    +0.000 C 
ATOM     19  C   UNL     1       1.779   2.863  21.129  0.00  0.00    +0.000 C 
ATOM     20  O   UNL     1       1.871   2.850  22.350  0.00  0.00    +0.000 OA
ENDBRANCH  17  19
ENDBRANCH  16  17
ENDBRANCH  15  16
ENDBRANCH  14  15
ENDBRANCH   1  14
TORSDOF 6
ENDMDL
MODEL 6
REMARK VINA RESULT:      -6.6      2.475      5.724
REMARK  Name = 
REMARK  8 active torsions:
REMARK  status: ('A' for Active; 'I' for Inactive)
REMARK    1  A    between atoms: C_1  and  C_2
REMARK    2  A    between atoms: C_2  and  O_4
REMARK    3  A    between atoms: O_4  and  C_5
REMARK    4  A    between atoms: C_5  and  C_6
REMARK    5  A    between atoms: C_6  and  O_7
REMARK    6  A    between atoms: O_7  and  C_8
REMARK    7  A    between atoms: C_10  and  C_11
REMARK    8  A    between atoms: C_15  and  N_16
REMARK                            x       y       z     vdW  Elec       q    Type
REMARK                         _______ _______ _______ _____ _____    ______ ____
ROOT
ATOM      1  C   UNL     1       3.810   6.088  17.957  0.00  0.00    +0.000 A 
ATOM      2  N   UNL     1       3.495   7.307  17.616  0.00  0.00    +0.000 NA
ATOM      3  C   UNL     1       2.495   7.941  18.350  0.00  0.00    +0.000 A 
ATOM      4  C   UNL     1       2.116   9.327  17.912  0.00  0.00    +0.000 C 
ATOM      5  C   UNL     1       1.879   7.366  19.405  0.00  0.00    +0.000 A 
ATOM      6  N   UNL     1       2.236   6.082  19.766  0.00  0.00    +0.000 N 
ATOM      7  C   UNL     1       1.824   5.272  20.786  0.00  0.00    +0.000 A 
ATOM      8  C   UNL     1       2.559   4.111  20.628  0.00  0.00    +0.000 A 
ATOM      9  N   UNL     1       3.405   4.190  19.537  0.00  0.00    +0.000 NA
ATOM     10  C   UNL     1       3.183   5.394  19.050  0.00  0.00    +0.000 A 
ENDROOT
BRANCH   8  11
ATOM     11  N   UNL     1       2.524   2.935  21.469  0.00  0.00    +0.000 N 
ATOM     12  O   UNL     1       3.568   2.267  21.527  0.00  0.00    +0.000 OA
ATOM     13  O   UNL     1       1.468   2.678  22.063  0.00  0.00    +0.000 OA
ENDBRANCH   8  11
BRANCH   1  14
ATOM     14  O   UNL     1       4.767   5.343  17.354  0.00  0.00    +0.000 OA
BRANCH  14  15
ATOM     15  C   UNL     1       6.094   5.384  17.907  0.00  0.00    +0.000 C 
BRANCH  15  16
ATOM     16  C   UNL     1       7.079   5.845  16.834  0.00  0.00    +0.000 C 
BRANCH  16  17
ATOM     17  O   UNL     1       7.510   4.756  15.997  0.00  0.00    +0.000 OA
BRANCH  17  19
ATOM     18  C   UNL     1       5.996   4.055  14.350  0.00  0.00    +0.000 C 
ATOM     19  C   UNL     1       7.206   4.873  14.676  0.00  0.00    +0.000 C 
ATOM     20  O   UNL     1       7.824   5.551  13.864  0.00  0.00    +0.000 OA
ENDBRANCH  17  19
ENDBRANCH  16  17
ENDBRANCH  15  16
ENDBRANCH  14  15
ENDBRANCH   1  14
TORSDOF 6
ENDMDL
MODEL 7
REMARK VINA RESULT:      -6.5      2.496      5.697
REMARK  Name = 
REMARK  8 active torsions:
REMARK  status: ('A' for Active; 'I' for Inactive)
REMARK    1  A    between atoms: C_1  and  C_2
REMARK    2  A    between atoms: C_2  and  O_4
REMARK    3  A    between atoms: O_4  and  C_5
REMARK    4  A    between atoms: C_5  and  C_6
REMARK    5  A    between atoms: C_6  and  O_7
REMARK    6  A    between atoms: O_7  and  C_8
REMARK    7  A    between atoms: C_10  and  C_11
REMARK    8  A    between atoms: C_15  and  N_16
REMARK                            x       y       z     vdW  Elec       q    Type
REMARK                         _______ _______ _______ _____ _____    ______ ____
ROOT
ATOM      1  C   UNL     1       4.016   5.567  17.969  0.00  0.00    +0.000 A 
ATOM      2  N   UNL     1       3.755   6.778  17.559  0.00  0.00    +0.000 NA
ATOM      3  C   UNL     1       2.773   7.491  18.244  0.00  0.00    +0.000 A 
ATOM      4  C   UNL     1       2.456   8.865  17.725  0.00  0.00    +0.000 C 
ATOM      5  C   UNL     1       2.121   7.000  19.319  0.00  0.00    +0.000 A 
ATOM      6  N   UNL     1       2.421   5.724  19.754  0.00  0.00    +0.000 N 
ATOM      7  C   UNL     1       1.964   4.988  20.810  0.00  0.00    +0.000 A 
ATOM      8  C   UNL     1       2.653   3.791  20.726  0.00  0.00    +0.000 A 
ATOM      9  N   UNL     1       3.515   3.777  19.644  0.00  0.00    +0.000 NA
ATOM     10  C   UNL     1       3.347   4.960  19.090  0.00  0.00    +0.000 A 
ENDROOT
BRANCH   8  11
ATOM     11  N   UNL     1       2.560   2.665  21.629  0.00  0.00    +0.000 N 
ATOM     12  O   UNL     1       3.589   1.989  21.774  0.00  0.00    +0.000 OA
ATOM     13  O   UNL     1       1.474   2.457  22.186  0.00  0.00    +0.000 OA
ENDBRANCH   8  11
BRANCH   1  14
ATOM     14  O   UNL     1       4.948   4.753  17.421  0.00  0.00    +0.000 OA
BRANCH  14  15
ATOM     15  C   UNL     1       5.461   5.102  16.124  0.00  0.00    +0.000 C 
BRANCH  15  16
ATOM     16  C   UNL     1       6.909   5.572  16.258  0.00  0.00    +0.000 C 
BRANCH  16  17
ATOM     17  O   UNL     1       7.567   4.968  17.387  0.00  0.00    +0.000 OA
BRANCH  17  19
ATOM     18  C   UNL     1       7.810   7.201  18.059  0.00  0.00    +0.000 C 
ATOM     19  C   UNL     1       7.716   5.766  18.478  0.00  0.00    +0.000 C 
ATOM     20  O   UNL     1       7.762   5.380  19.639  0.00  0.00    +0.000 OA
ENDBRANCH  17  19
ENDBRANCH  16  17
ENDBRANCH  15  16
ENDBRANCH  14  15
ENDBRANCH   1  14
TORSDOF 6
ENDMDL
MODEL 8
REMARK VINA RESULT:      -6.5      1.361      1.545
REMARK  Name = 
REMARK  8 active torsions:
REMARK  status: ('A' for Active; 'I' for Inactive)
REMARK    1  A    between atoms: C_1  and  C_2
REMARK    2  A    between atoms: C_2  and  O_4
REMARK    3  A    between atoms: O_4  and  C_5
REMARK    4  A    between atoms: C_5  and  C_6
REMARK    5  A    between atoms: C_6  and  O_7
REMARK    6  A    between atoms: O_7  and  C_8
REMARK    7  A    between atoms: C_10  and  C_11
REMARK    8  A    between atoms: C_15  and  N_16
REMARK                            x       y       z     vdW  Elec       q    Type
REMARK                         _______ _______ _______ _____ _____    ______ ____
ROOT
ATOM      1  C   UNL     1       3.773   4.331  17.766  0.00  0.00    +0.000 A 
ATOM      2  N   UNL     1       3.056   5.128  18.508  0.00  0.00    +0.000 NA
ATOM      3  C   UNL     1       3.188   6.498  18.295  0.00  0.00    +0.000 A 
ATOM      4  C   UNL     1       2.388   7.399  19.193  0.00  0.00    +0.000 C 
ATOM      5  C   UNL     1       3.987   7.021  17.341  0.00  0.00    +0.000 A 
ATOM      6  N   UNL     1       4.727   6.164  16.550  0.00  0.00    +0.000 N 
ATOM      7  C   UNL     1       5.576   6.392  15.503  0.00  0.00    +0.000 A 
ATOM      8  C   UNL     1       5.997   5.132  15.115  0.00  0.00    +0.000 A 
ATOM      9  N   UNL     1       5.430   4.144  15.899  0.00  0.00    +0.000 NA
ATOM     10  C   UNL     1       4.669   4.808  16.746  0.00  0.00    +0.000 A 
ENDROOT
BRANCH   8  11
ATOM     11  N   UNL     1       6.889   4.807  14.024  0.00  0.00    +0.000 N 
ATOM     12  O   UNL     1       6.520   3.902  13.261  0.00  0.00    +0.000 OA
ATOM     13  O   UNL     1       7.946   5.446  13.931  0.00  0.00    +0.000 OA
ENDBRANCH   8  11
BRANCH   1  14
ATOM     14  O   UNL     1       3.748   2.979  17.840  0.00  0.00    +0.000 OA
BRANCH  14  15
ATOM     15  C   UNL     1       2.478   2.324  17.681  0.00  0.00    +0.000 C 
BRANCH  15  16
ATOM     16  C   UNL     1       1.975   1.850  19.044  0.00  0.00    +0.000 C 
BRANCH  16  17
ATOM     17  O   UNL     1       0.835   2.609  19.489  0.00  0.00    +0.000 OA
BRANCH  17  19
ATOM     18  C   UNL     1       1.624   2.584  21.697  0.00  0.00    +0.000 C 
ATOM     19  C   UNL     1       1.041   3.394  20.580  0.00  0.00    +0.000 C 
ATOM     20  O   UNL     1       0.794   4.591  20.649  0.00  0.00    +0.000 OA
ENDBRANCH  17  19
ENDBRANCH  16  17
ENDBRANCH  15  16
ENDBRANCH  14  15
ENDBRANCH   1  14
TORSDOF 6
ENDMDL
MODEL 9
REMARK VINA RESULT:      -6.4      1.430      1.997
REMARK  Name = 
REMARK  8 active torsions:
REMARK  status: ('A' for Active; 'I' for Inactive)
REMARK    1  A    between atoms: C_1  and  C_2
REMARK    2  A    between atoms: C_2  and  O_4
REMARK    3  A    between atoms: O_4  and  C_5
REMARK    4  A    between atoms: C_5  and  C_6
REMARK    5  A    between atoms: C_6  and  O_7
REMARK    6  A    between atoms: O_7  and  C_8
REMARK    7  A    between atoms: C_10  and  C_11
REMARK    8  A    between atoms: C_15  and  N_16
REMARK                            x       y       z     vdW  Elec       q    Type
REMARK                         _______ _______ _______ _____ _____    ______ ____
ROOT
ATOM      1  C   UNL     1       3.169   5.929  19.461  0.00  0.00    +0.000 A 
ATOM      2  N   UNL     1       2.355   6.938  19.608  0.00  0.00    +0.000 NA
ATOM      3  C   UNL     1       2.396   7.943  18.644  0.00  0.00    +0.000 A 
ATOM      4  C   UNL     1       1.484   9.117  18.858  0.00  0.00    +0.000 C 
ATOM      5  C   UNL     1       3.203   7.894  17.563  0.00  0.00    +0.000 A 
ATOM      6  N   UNL     1       4.046   6.811  17.410  0.00  0.00    +0.000 N 
ATOM      7  C   UNL     1       4.930   6.473  16.424  0.00  0.00    +0.000 A 
ATOM      8  C   UNL     1       5.463   5.264  16.833  0.00  0.00    +0.000 A 
ATOM      9  N   UNL     1       4.932   4.858  18.043  0.00  0.00    +0.000 NA
ATOM     10  C   UNL     1       4.080   5.814  18.352  0.00  0.00    +0.000 A 
ENDROOT
BRANCH   8  11
ATOM     11  N   UNL     1       6.434   4.456  16.129  0.00  0.00    +0.000 N 
ATOM     12  O   UNL     1       6.005   3.427  15.586  0.00  0.00    +0.000 OA
ATOM     13  O   UNL     1       7.611   4.841  16.118  0.00  0.00    +0.000 OA
ENDBRANCH   8  11
BRANCH   1  14
ATOM     14  O   UNL     1       3.241   4.869  20.300  0.00  0.00    +0.000 OA
BRANCH  14  15
ATOM     15  C   UNL     1       2.012   4.372  20.857  0.00  0.00    +0.000 C 
BRANCH  15  16
ATOM     16  C   UNL     1       1.167   3.747  19.749  0.00  0.00    +0.000 C 
BRANCH  16  17
ATOM     17  O   UNL     1       1.657   2.447  19.369  0.00  0.00    +0.000 OA
BRANCH  17  19
ATOM     18  C   UNL     1       3.551   1.511  18.353  0.00  0.00    +0.000 C 
ATOM     19  C   UNL     1       2.356   2.400  18.203  0.00  0.00    +0.000 C 
ATOM     20  O   UNL     1       2.057   2.990  17.173  0.00  0.00    +0.000 OA
ENDBRANCH  17  19
ENDBRANCH  16  17
ENDBRANCH  15  16
ENDBRANCH  14  15
ENDBRANCH   1  14
TORSDOF 6
ENDMDL
