MODEL 1
REMARK VINA RESULT:      -7.0      0.000      0.000
REMARK  Name = 
REMARK  5 active torsions:
REMARK  status: ('A' for Active; 'I' for Inactive)
REMARK    1  A    between atoms: C_2  and  C_13
REMARK    2  A    between atoms: N_3  and  C_4
REMARK    3  A    between atoms: C_4  and  C_5
REMARK    4  A    between atoms: C_5  and  C_6
REMARK    5  A    between atoms: C_6  and  N_7
REMARK                            x       y       z     vdW  Elec       q    Type
REMARK                         _______ _______ _______ _____ _____    ______ ____
ROOT
ATOM      1  O   UNL     1       4.100   5.587  19.729  0.00  0.00    +0.000 OA
ATOM      2  C   UNL     1       3.370   6.037  18.856  0.00  0.00    +0.000 C 
ATOM      3  N   UNL     1       3.273   5.441  17.609  0.00  0.00    +0.000 N 
ATOM      4  H   UNL     1       2.701   5.904  16.908  0.00  0.00    +0.000 HD
ENDROOT
BRANCH   2   5
ATOM      5  C   UNL     1       2.562   7.235  19.037  0.00  0.00    +0.000 A 
ATOM      6  C   UNL     1       2.243   8.255  18.157  0.00  0.00    +0.000 A 
ATOM      7  C   UNL     1       1.363   9.135  18.839  0.00  0.00    +0.000 A 
ATOM      8  C   UNL     1       0.649  10.304  18.510  0.00  0.00    +0.000 A 
ATOM      9  C   UNL     1      -0.167  10.895  19.486  0.00  0.00    +0.000 A 
ATOM     10  C   UNL     1      -0.260  10.351  20.770  0.00  0.00    +0.000 A 
ATOM     11  C   UNL     1       0.447   9.194  21.117  0.00  0.00    +0.000 A 
ATOM     12  C   UNL     1       1.232   8.615  20.121  0.00  0.00    +0.000 A 
ATOM     13  O   UNL     1       1.958   7.471  20.249  0.00  0.00    +0.000 OA
ENDBRANCH   2   5
BRANCH   3  14
ATOM     14  C   UNL     1       4.021   4.244  17.270  0.00  0.00    +0.000 C 
BRANCH  14  15
ATOM     15  C   UNL     1       3.119   3.025  17.059  0.00  0.00    +0.000 C 
BRANCH  15  16
ATOM     16  C   UNL     1       3.175   2.070  18.253  0.00  0.00    +0.000 C 
BRANCH  16  17
ATOM     17  N   UNL     1       2.555   2.622  19.450  0.00  0.00    +0.000 N 
ATOM     18  C   UNL     1       1.190   3.087  19.482  0.00  0.00    +0.000 C 
ATOM     19  C   UNL     1       1.089   3.774  20.831  0.00  0.00    +0.000 C 
ATOM     20  C   UNL     1       2.062   2.994  21.706  0.00  0.00    +0.000 C 
ATOM     21  C   UNL     1       3.112   2.550  20.720  0.00  0.00    +0.000 C 
ATOM     22  O   UNL     1       4.229   2.147  21.007  0.00  0.00    +0.000 OA
ENDBRANCH  16  17
ENDBRANCH  15  16
ENDBRANCH  14  15
ENDBRANCH   3  14
TORSDOF 5
ENDMDL
MODEL 2
REMARK VINA RESULT:      -7.0      1.311      1.572
REMARK  Name = 
REMARK  5 active torsions:
REMARK  status: ('A' for Active; 'I' for Inactive)
REMARK    1  A    between atoms: C_2  and  C_13
REMARK    2  A    between atoms: N_3  and  C_4
REMARK    3  A    between atoms: C_4  and  C_5
REMARK    4  A    between atoms: C_5  and  C_6
REMARK    5  A    between atoms: C_6  and  N_7
REMARK                            x       y       z     vdW  Elec       q    Type
REMARK                         _______ _______ _______ _____ _____    ______ ____
ROOT
ATOM      1  O   UNL     1       5.198   6.175  18.058  0.00  0.00    +0.000 OA
ATOM      2  C   UNL     1       3.982   6.079  17.957  0.00  0.00    +0.000 C 
ATOM      3  N   UNL     1       3.387   5.001  17.322  0.00  0.00    +0.000 N 
ATOM      4  H   UNL     1       2.378   5.016  17.212  0.00  0.00    +0.000 HD
ENDROOT
BRANCH   2   5
ATOM      5  C   UNL     1       3.062   7.085  18.468  0.00  0.00    +0.000 A 
ATOM      6  C   UNL     1       2.514   8.203  17.864  0.00  0.00    +0.000 A 
ATOM      7  C   UNL     1       1.623   8.791  18.799  0.00  0.00    +0.000 A 
ATOM      8  C   UNL     1       0.737   9.884  18.799  0.00  0.00    +0.000 A 
ATOM      9  C   UNL     1      -0.019  10.142  19.953  0.00  0.00    +0.000 A 
ATOM     10  C   UNL     1       0.113   9.343  21.092  0.00  0.00    +0.000 A 
ATOM     11  C   UNL     1       0.994   8.256  21.113  0.00  0.00    +0.000 A 
ATOM     12  C   UNL     1       1.716   8.010  19.945  0.00  0.00    +0.000 A 
ATOM     13  O   UNL     1       2.587   6.981  19.754  0.00  0.00    +0.000 OA
ENDBRANCH   2   5
BRANCH   3  14
ATOM     14  C   UNL     1       4.169   3.918  16.753  0.00  0.00    +0.000 C 
BRANCH  14  15
ATOM     15  C   UNL     1       4.416   2.781  17.748  0.00  0.00    +0.000 C 
BRANCH  15  16
ATOM     16  C   UNL     1       3.140   1.980  18.016  0.00  0.00    +0.000 C 
BRANCH  16  17
ATOM     17  N   UNL     1       2.488   2.355  19.263  0.00  0.00    +0.000 N 
ATOM     18  C   UNL     1       3.217   2.803  20.425  0.00  0.00    +0.000 C 
ATOM     19  C   UNL     1       2.155   2.837  21.509  0.00  0.00    +0.000 C 
ATOM     20  C   UNL     1       0.877   3.172  20.750  0.00  0.00    +0.000 C 
ATOM     21  C   UNL     1       1.120   2.546  19.400  0.00  0.00    +0.000 C 
ATOM     22  O   UNL     1       0.261   2.308  18.564  0.00  0.00    +0.000 OA
ENDBRANCH  16  17
ENDBRANCH  15  16
ENDBRANCH  14  15
ENDBRANCH   3  14
TORSDOF 5
ENDMDL
MODEL 3
REMARK VINA RESULT:      -6.9      0.667      1.331
REMARK  Name = 
REMARK  5 active torsions:
REMARK  status: ('A' for Active; 'I' for Inactive)
REMARK    1  A    between atoms: C_2  and  C_13
REMARK    2  A    between atoms: N_3  and  C_4
REMARK    3  A    between atoms: C_4  and  C_5
REMARK    4  A    between atoms: C_5  and  C_6
REMARK    5  A    between atoms: C_6  and  N_7
REMARK                            x       y       z     vdW  Elec       q    Type
REMARK                         _______ _______ _______ _____ _____    ______ ____
ROOT
ATOM      1  O   UNL     1       3.999   5.541  19.845  0.00  0.00    +0.000 OA
ATOM      2  C   UNL     1       3.181   6.033  19.079  0.00  0.00    +0.000 C 
ATOM      3  N   UNL     1       2.996   5.542  17.797  0.00  0.00    +0.000 N 
ATOM      4  H   UNL     1       2.351   6.038  17.190  0.00  0.00    +0.000 HD
ENDROOT
BRANCH   2   5
ATOM      5  C   UNL     1       2.353   7.177  19.432  0.00  0.00    +0.000 A 
ATOM      6  C   UNL     1       1.737   7.516  20.625  0.00  0.00    +0.000 A 
ATOM      7  C   UNL     1       1.114   8.776  20.431  0.00  0.00    +0.000 A 
ATOM      8  C   UNL     1       0.388   9.678  21.233  0.00  0.00    +0.000 A 
ATOM      9  C   UNL     1      -0.061  10.879  20.664  0.00  0.00    +0.000 A 
ATOM     10  C   UNL     1       0.187  11.174  19.320  0.00  0.00    +0.000 A 
ATOM     11  C   UNL     1       0.900  10.287  18.506  0.00  0.00    +0.000 A 
ATOM     12  C   UNL     1       1.353   9.111  19.104  0.00  0.00    +0.000 A 
ATOM     13  O   UNL     1       2.096   8.148  18.494  0.00  0.00    +0.000 OA
ENDBRANCH   2   5
BRANCH   3  14
ATOM     14  C   UNL     1       3.752   4.410  17.292  0.00  0.00    +0.000 C 
BRANCH  14  15
ATOM     15  C   UNL     1       2.863   3.208  16.959  0.00  0.00    +0.000 C 
BRANCH  15  16
ATOM     16  C   UNL     1       3.031   2.082  17.982  0.00  0.00    +0.000 C 
BRANCH  16  17
ATOM     17  N   UNL     1       2.605   2.465  19.321  0.00  0.00    +0.000 N 
ATOM     18  C   UNL     1       1.226   2.718  19.662  0.00  0.00    +0.000 C 
ATOM     19  C   UNL     1       1.317   3.303  21.060  0.00  0.00    +0.000 C 
ATOM     20  C   UNL     1       2.546   2.626  21.654  0.00  0.00    +0.000 C 
ATOM     21  C   UNL     1       3.418   2.403  20.445  0.00  0.00    +0.000 C 
ATOM     22  O   UNL     1       4.614   2.155  20.469  0.00  0.00    +0.000 OA
ENDBRANCH  16  17
ENDBRANCH  15  16
ENDBRANCH  14  15
ENDBRANCH   3  14
TORSDOF 5
ENDMDL
MODEL 4
REMARK VINA RESULT:      -6.9      5.453      7.903
REMARK  Name = 
REMARK  5 active torsions:
REMARK  status: ('A' for Active; 'I' for Inactive)
REMARK    1  A    between atoms: C_2  and  C_13
REMARK    2  A    between atoms: N_3  and  C_4
REMARK    3  A    between atoms: C_4  and  C_5
REMARK    4  A    between atoms: C_5  and  C_6
REMARK    5  A    between atoms: C_6  and  N_7
REMARK                            x       y       z     vdW  Elec       q    Type
REMARK                         _______ _______ _______ _____ _____    ______ ____
ROOT
ATOM      1  O   UNL     1       7.499   5.135  18.655  0.00  0.00    +0.000 OA
ATOM      2  C   UNL     1       6.500   5.745  18.297  0.00  0.00    +0.000 C 
ATOM      3  N   UNL     1       6.583   6.987  17.690  0.00  0.00    +0.000 N 
ATOM      4  H   UNL     1       5.713   7.469  17.479  0.00  0.00    +0.000 HD
ENDROOT
BRANCH   2   5
ATOM      5  C   UNL     1       5.149   5.236  18.490  0.00  0.00    +0.000 A 
ATOM      6  C   UNL     1       4.344   4.466  17.668  0.00  0.00    +0.000 A 
ATOM      7  C   UNL     1       3.149   4.198  18.385  0.00  0.00    +0.000 A 
ATOM      8  C   UNL     1       1.977   3.453  18.151  0.00  0.00    +0.000 A 
ATOM      9  C   UNL     1       0.993   3.409  19.150  0.00  0.00    +0.000 A 
ATOM     10  C   UNL     1       1.157   4.104  20.351  0.00  0.00    +0.000 A 
ATOM     11  C   UNL     1       2.312   4.855  20.599  0.00  0.00    +0.000 A 
ATOM     12  C   UNL     1       3.283   4.863  19.597  0.00  0.00    +0.000 A 
ATOM     13  O   UNL     1       4.486   5.496  19.666  0.00  0.00    +0.000 OA
ENDBRANCH   2   5
BRANCH   3  14
ATOM     14  C   UNL     1       7.858   7.633  17.433  0.00  0.00    +0.000 C 
BRANCH  14  15
ATOM     15  C   UNL     1       8.280   8.574  18.564  0.00  0.00    +0.000 C 
BRANCH  15  16
ATOM     16  C   UNL     1       8.596   9.977  18.042  0.00  0.00    +0.000 C 
BRANCH  16  17
ATOM     17  N   UNL     1       9.439  10.743  18.950  0.00  0.00    +0.000 N 
ATOM     18  C   UNL     1       9.309  10.673  20.385  0.00  0.00    +0.000 C 
ATOM     19  C   UNL     1      10.209  11.796  20.869  0.00  0.00    +0.000 C 
ATOM     20  C   UNL     1      11.304  11.861  19.812  0.00  0.00    +0.000 C 
ATOM     21  C   UNL     1      10.584  11.425  18.561  0.00  0.00    +0.000 C 
ATOM     22  O   UNL     1      10.979  11.599  17.418  0.00  0.00    +0.000 OA
ENDBRANCH  16  17
ENDBRANCH  15  16
ENDBRANCH  14  15
ENDBRANCH   3  14
TORSDOF 5
ENDMDL
MODEL 5
REMARK VINA RESULT:      -6.9      2.348      3.767
REMARK  Name = 
REMARK  5 active torsions:
REMARK  status: ('A' for Active; 'I' for Inactive)
REMARK    1  A    between atoms: C_2  and  C_13
REMARK    2  A    between atoms: N_3  and  C_4
REMARK    3  A    between atoms: C_4  and  C_5
REMARK    4  A    between atoms: C_5  and  C_6
REMARK    5  A    between atoms: C_6  and  N_7
REMARK                            x       y       z     vdW  Elec       q    Type
REMARK                         _______ _______ _______ _____ _____    ______ ____
ROOT
ATOM      1  O   UNL     1       4.386   5.456  19.542  0.00  0.00    +0.000 OA
ATOM      2  C   UNL     1       3.601   5.868  18.699  0.00  0.00    +0.000 C 
ATOM      3  N   UNL     1       3.467   5.254  17.465  0.00  0.00    +0.000 N 
ATOM      4  H   UNL     1       2.848   5.687  16.786  0.00  0.00    +0.000 HD
ENDROOT
BRANCH   2   5
ATOM      5  C   UNL     1       2.760   7.039  18.905  0.00  0.00    +0.000 A 
ATOM      6  C   UNL     1       2.359   8.033  18.029  0.00  0.00    +0.000 A 
ATOM      7  C   UNL     1       1.482   8.892  18.742  0.00  0.00    +0.000 A 
ATOM      8  C   UNL     1       0.711  10.028  18.434  0.00  0.00    +0.000 A 
ATOM      9  C   UNL     1      -0.076  10.605  19.442  0.00  0.00    +0.000 A 
ATOM     10  C   UNL     1      -0.086  10.077  20.736  0.00  0.00    +0.000 A 
ATOM     11  C   UNL     1       0.679   8.952  21.063  0.00  0.00    +0.000 A 
ATOM     12  C   UNL     1       1.435   8.387  20.036  0.00  0.00    +0.000 A 
ATOM     13  O   UNL     1       2.208   7.271  20.143  0.00  0.00    +0.000 OA
ENDBRANCH   2   5
BRANCH   3  14
ATOM     14  C   UNL     1       4.242   4.080  17.104  0.00  0.00    +0.000 C 
BRANCH  14  15
ATOM     15  C   UNL     1       4.993   4.253  15.782  0.00  0.00    +0.000 C 
BRANCH  15  16
ATOM     16  C   UNL     1       6.509   4.240  15.989  0.00  0.00    +0.000 C 
BRANCH  16  17
ATOM     17  N   UNL     1       6.982   5.370  16.777  0.00  0.00    +0.000 N 
ATOM     18  C   UNL     1       6.540   6.724  16.549  0.00  0.00    +0.000 C 
ATOM     19  C   UNL     1       7.467   7.544  17.428  0.00  0.00    +0.000 C 
ATOM     20  C   UNL     1       7.774   6.613  18.594  0.00  0.00    +0.000 C 
ATOM     21  C   UNL     1       7.707   5.249  17.955  0.00  0.00    +0.000 C 
ATOM     22  O   UNL     1       8.164   4.221  18.430  0.00  0.00    +0.000 OA
ENDBRANCH  16  17
ENDBRANCH  15  16
ENDBRANCH  14  15
ENDBRANCH   3  14
TORSDOF 5
ENDMDL
MODEL 6
REMARK VINA RESULT:      -6.8      3.442      6.654
REMARK  Name = 
REMARK  5 active torsions:
REMARK  status: ('A' for Active; 'I' for Inactive)
REMARK    1  A    between atoms: C_2  and  C_13
REMARK    2  A    between atoms: N_3  and  C_4
REMARK    3  A    between atoms: C_4  and  C_5
REMARK    4  A    between atoms: C_5  and  C_6
REMARK    5  A    between atoms: C_6  and  N_7
REMARK                            x       y       z     vdW  Elec       q    Type
REMARK                         _______ _______ _______ _____ _____    ______ ____
ROOT
ATOM      1  O   UNL     1       6.882   6.065  18.150  0.00  0.00    +0.000 OA
ATOM      2  C   UNL     1       5.953   5.664  17.461  0.00  0.00    +0.000 C 
ATOM      3  N   UNL     1       4.647   5.673  17.921  0.00  0.00    +0.000 N 
ATOM      4  H   UNL     1       3.933   5.263  17.325  0.00  0.00    +0.000 HD
ENDROOT
BRANCH   2   5
ATOM      5  C   UNL     1       6.136   5.128  16.119  0.00  0.00    +0.000 A 
ATOM      6  C   UNL     1       5.428   4.162  15.424  0.00  0.00    +0.000 A 
ATOM      7  C   UNL     1       5.993   4.082  14.125  0.00  0.00    +0.000 A 
ATOM      8  C   UNL     1       5.719   3.360  12.948  0.00  0.00    +0.000 A 
ATOM      9  C   UNL     1       6.520   3.582  11.817  0.00  0.00    +0.000 A 
ATOM     10  C   UNL     1       7.584   4.486  11.856  0.00  0.00    +0.000 A 
ATOM     11  C   UNL     1       7.877   5.207  13.020  0.00  0.00    +0.000 A 
ATOM     12  C   UNL     1       7.051   4.984  14.121  0.00  0.00    +0.000 A 
ATOM     13  O   UNL     1       7.145   5.615  15.324  0.00  0.00    +0.000 OA
ENDBRANCH   2   5
BRANCH   3  14
ATOM     14  C   UNL     1       4.301   6.169  19.241  0.00  0.00    +0.000 C 
BRANCH  14  15
ATOM     15  C   UNL     1       2.799   6.412  19.405  0.00  0.00    +0.000 C 
BRANCH  15  16
ATOM     16  C   UNL     1       2.212   5.568  20.539  0.00  0.00    +0.000 C 
BRANCH  16  17
ATOM     17  N   UNL     1       1.740   4.266  20.089  0.00  0.00    +0.000 N 
ATOM     18  C   UNL     1       1.456   3.971  18.705  0.00  0.00    +0.000 C 
ATOM     19  C   UNL     1       0.783   2.612  18.772  0.00  0.00    +0.000 C 
ATOM     20  C   UNL     1       1.427   1.950  19.983  0.00  0.00    +0.000 C 
ATOM     21  C   UNL     1       1.734   3.124  20.878  0.00  0.00    +0.000 C 
ATOM     22  O   UNL     1       1.987   3.058  22.071  0.00  0.00    +0.000 OA
ENDBRANCH  16  17
ENDBRANCH  15  16
ENDBRANCH  14  15
ENDBRANCH   3  14
TORSDOF 5
ENDMDL
MODEL 7
REMARK VINA RESULT:      -6.8      1.414      1.994
REMARK  Name = 
REMARK  5 active torsions:
REMARK  status: ('A' for Active; 'I' for Inactive)
REMARK    1  A    between atoms: C_2  and  C_13
REMARK    2  A    between atoms: N_3  and  C_4
REMARK    3  A    between atoms: C_4  and  C_5
REMARK    4  A    between atoms: C_5  and  C_6
REMARK    5  A    between atoms: C_6  and  N_7
REMARK                            x       y       z     vdW  Elec       q    Type
REMARK                         _______ _______ _______ _____ _____    ______ ____
ROOT
ATOM      1  O   UNL     1       4.910   6.614  17.552  0.00  0.00    +0.000 OA
ATOM      2  C   UNL     1       3.774   6.270  17.851  0.00  0.00    +0.000 C 
ATOM      3  N   UNL     1       3.277   5.021  17.515  0.00  0.00    +0.000 N 
ATOM      4  H   UNL     1       2.305   4.826  17.733  0.00  0.00    +0.000 HD
ENDROOT
BRANCH   2   5
ATOM      5  C   UNL     1       2.845   7.138  18.561  0.00  0.00    +0.000 A 
ATOM      6  C   UNL     1       2.310   7.045  19.834  0.00  0.00    +0.000 A 
ATOM      7  C   UNL     1       1.515   8.203  20.040  0.00  0.00    +0.000 A 
ATOM      8  C   UNL     1       0.762   8.734  21.105  0.00  0.00    +0.000 A 
ATOM      9  C   UNL     1       0.111   9.964  20.925  0.00  0.00    +0.000 A 
ATOM     10  C   UNL     1       0.188  10.647  19.708  0.00  0.00    +0.000 A 
ATOM     11  C   UNL     1       0.926  10.131  18.636  0.00  0.00    +0.000 A 
ATOM     12  C   UNL     1       1.581   8.918  18.850  0.00  0.00    +0.000 A 
ATOM     13  O   UNL     1       2.378   8.278  17.951  0.00  0.00    +0.000 OA
ENDBRANCH   2   5
BRANCH   3  14
ATOM     14  C   UNL     1       4.078   4.044  16.800  0.00  0.00    +0.000 C 
BRANCH  14  15
ATOM     15  C   UNL     1       4.396   2.809  17.647  0.00  0.00    +0.000 C 
BRANCH  15  16
ATOM     16  C   UNL     1       3.138   1.989  17.943  0.00  0.00    +0.000 C 
BRANCH  16  17
ATOM     17  N   UNL     1       2.519   2.341  19.213  0.00  0.00    +0.000 N 
ATOM     18  C   UNL     1       3.279   2.757  20.367  0.00  0.00    +0.000 C 
ATOM     19  C   UNL     1       2.244   2.776  21.476  0.00  0.00    +0.000 C 
ATOM     20  C   UNL     1       0.951   3.138  20.756  0.00  0.00    +0.000 C 
ATOM     21  C   UNL     1       1.156   2.541  19.387  0.00  0.00    +0.000 C 
ATOM     22  O   UNL     1       0.276   2.329  18.567  0.00  0.00    +0.000 OA
ENDBRANCH  16  17
ENDBRANCH  15  16
ENDBRANCH  14  15
ENDBRANCH   3  14
TORSDOF 5
ENDMDL
MODEL 8
REMARK VINA RESULT:      -6.8      5.859      6.437
REMARK  Name = 
REMARK  5 active torsions:
REMARK  status: ('A' for Active; 'I' for Inactive)
REMARK    1  A    between atoms: C_2  and  C_13
REMARK    2  A    between atoms: N_3  and  C_4
REMARK    3  A    between atoms: C_4  and  C_5
REMARK    4  A    between atoms: C_5  and  C_6
REMARK    5  A    between atoms: C_6  and  N_7
REMARK                            x       y       z     vdW  Elec       q    Type
REMARK                         _______ _______ _______ _____ _____    ______ ____
ROOT
ATOM      1  O   UNL     1       7.226   7.983  17.021  0.00  0.00    +0.000 OA
ATOM      2  C   UNL     1       7.978   8.164  17.970  0.00  0.00    +0.000 C 
ATOM      3  N   UNL     1       8.326   7.136  18.831  0.00  0.00    +0.000 N 
ATOM      4  H   UNL     1       8.898   7.369  19.637  0.00  0.00    +0.000 HD
ENDROOT
BRANCH   2   5
ATOM      5  C   UNL     1       8.551   9.464  18.290  0.00  0.00    +0.000 A 
ATOM      6  C   UNL     1       8.527  10.661  17.594  0.00  0.00    +0.000 A 
ATOM      7  C   UNL     1       9.183  11.627  18.401  0.00  0.00    +0.000 A 
ATOM      8  C   UNL     1       9.449  13.007  18.308  0.00  0.00    +0.000 A 
ATOM      9  C   UNL     1      10.130  13.636  19.361  0.00  0.00    +0.000 A 
ATOM     10  C   UNL     1      10.557  12.910  20.477  0.00  0.00    +0.000 A 
ATOM     11  C   UNL     1      10.308  11.537  20.583  0.00  0.00    +0.000 A 
ATOM     12  C   UNL     1       9.610  10.942  19.532  0.00  0.00    +0.000 A 
ATOM     13  O   UNL     1       9.236   9.634  19.469  0.00  0.00    +0.000 OA
ENDBRANCH   2   5
BRANCH   3  14
ATOM     14  C   UNL     1       7.830   5.784  18.651  0.00  0.00    +0.000 C 
BRANCH  14  15
ATOM     15  C   UNL     1       6.537   5.521  19.427  0.00  0.00    +0.000 C 
BRANCH  15  16
ATOM     16  C   UNL     1       5.604   4.578  18.664  0.00  0.00    +0.000 C 
BRANCH  16  17
ATOM     17  N   UNL     1       4.385   4.271  19.399  0.00  0.00    +0.000 N 
ATOM     18  C   UNL     1       3.262   5.175  19.466  0.00  0.00    +0.000 C 
ATOM     19  C   UNL     1       2.366   4.537  20.512  0.00  0.00    +0.000 C 
ATOM     20  C   UNL     1       2.638   3.046  20.359  0.00  0.00    +0.000 C 
ATOM     21  C   UNL     1       4.076   3.017  19.908  0.00  0.00    +0.000 C 
ATOM     22  O   UNL     1       4.809   2.040  19.938  0.00  0.00    +0.000 OA
ENDBRANCH  16  17
ENDBRANCH  15  16
ENDBRANCH  14  15
ENDBRANCH   3  14
TORSDOF 5
ENDMDL
MODEL 9
REMARK VINA RESULT:      -6.8      3.282      6.610
REMARK  Name = 
REMARK  5 active torsions:
REMARK  status: ('A' for Active; 'I' for Inactive)
REMARK    1  A    between atoms: C_2  and  C_13
REMARK    2  A    between atoms: N_3  and  C_4
REMARK    3  A    between atoms: C_4  and  C_5
REMARK    4  A    between atoms: C_5  and  C_6
REMARK    5  A    between atoms: C_6  and  N_7
REMARK                            x       y       z     vdW  Elec       q    Type
REMARK                         _______ _______ _______ _____ _____    ______ ____
ROOT
ATOM      1  O   UNL     1       6.195   4.834  18.952  0.00  0.00    +0.000 OA
ATOM      2  C   UNL     1       5.743   4.155  18.040  0.00  0.00    +0.000 C 
ATOM      3  N   UNL     1       4.842   3.128  18.273  0.00  0.00    +0.000 N 
ATOM      4  H   UNL     1       4.559   2.560  17.481  0.00  0.00    +0.000 HD
ENDROOT
BRANCH   2   5
ATOM      5  C   UNL     1       6.119   4.347  16.647  0.00  0.00    +0.000 A 
ATOM      6  C   UNL     1       7.051   5.192  16.068  0.00  0.00    +0.000 A 
ATOM      7  C   UNL     1       7.059   4.916  14.676  0.00  0.00    +0.000 A 
ATOM      8  C   UNL     1       7.788   5.371  13.561  0.00  0.00    +0.000 A 
ATOM      9  C   UNL     1       7.511   4.819  12.301  0.00  0.00    +0.000 A 
ATOM     10  C   UNL     1       6.519   3.848  12.144  0.00  0.00    +0.000 A 
ATOM     11  C   UNL     1       5.779   3.389  13.240  0.00  0.00    +0.000 A 
ATOM     12  C   UNL     1       6.090   3.939  14.483  0.00  0.00    +0.000 A 
ATOM     13  O   UNL     1       5.515   3.594  15.669  0.00  0.00    +0.000 OA
ENDBRANCH   2   5
BRANCH   3  14
ATOM     14  C   UNL     1       4.375   2.807  19.610  0.00  0.00    +0.000 C 
BRANCH  14  15
ATOM     15  C   UNL     1       2.871   2.524  19.656  0.00  0.00    +0.000 C 
BRANCH  15  16
ATOM     16  C   UNL     1       2.089   3.479  18.751  0.00  0.00    +0.000 C 
BRANCH  16  17
ATOM     17  N   UNL     1       2.014   4.831  19.285  0.00  0.00    +0.000 N 
ATOM     18  C   UNL     1       1.579   5.119  20.630  0.00  0.00    +0.000 C 
ATOM     19  C   UNL     1       1.442   6.631  20.634  0.00  0.00    +0.000 C 
ATOM     20  C   UNL     1       2.504   7.090  19.643  0.00  0.00    +0.000 C 
ATOM     21  C   UNL     1       2.561   5.946  18.664  0.00  0.00    +0.000 C 
ATOM     22  O   UNL     1       3.054   5.992  17.547  0.00  0.00    +0.000 OA
ENDBRANCH  16  17
ENDBRANCH  15  16
ENDBRANCH  14  15
ENDBRANCH   3  14
TORSDOF 5
ENDMDL
