MODEL 1
REMARK VINA RESULT:      -7.4      0.000      0.000
REMARK  Name = 
REMARK  6 active torsions:
REMARK  status: ('A' for Active; 'I' for Inactive)
REMARK    1  A    between atoms: C_1  and  O_2
REMARK    2  A    between atoms: O_2  and  C_3
REMARK    3  A    between atoms: N_5  and  C_6
REMARK    4  A    between atoms: C_9  and  S_10
REMARK    5  A    between atoms: S_10  and  N_13
REMARK    6  A    between atoms: C_17  and  C_18
REMARK                            x       y       z     vdW  Elec       q    Type
REMARK                         _______ _______ _______ _____ _____    ______ ____
ROOT
ATOM      1  S   UNL     1       0.466   9.726  20.603  0.00  0.00    +0.000 S 
ATOM      2  O   UNL     1       1.335  10.806  21.050  0.00  0.00    +0.000 OA
ATOM      3  O   UNL     1      -0.065   8.761  21.543  0.00  0.00    +0.000 OA
ENDROOT
BRANCH   1   7
ATOM      4  C   UNL     1      -3.080  11.711  18.459  0.00  0.00    +0.000 A 
ATOM      5  C   UNL     1      -2.515  12.278  19.608  0.00  0.00    +0.000 A 
ATOM      6  C   UNL     1      -1.436  11.672  20.252  0.00  0.00    +0.000 A 
ATOM      7  C   UNL     1      -0.922  10.474  19.761  0.00  0.00    +0.000 A 
ATOM      8  C   UNL     1      -1.440   9.917  18.589  0.00  0.00    +0.000 A 
ATOM      9  C   UNL     1      -2.537  10.523  17.955  0.00  0.00    +0.000 A 
BRANCH   4  12
ATOM     10  C   UNL     1      -5.495  12.170  18.163  0.00  0.00    +0.000 C 
ATOM     11  O   UNL     1      -5.938  11.605  19.151  0.00  0.00    +0.000 OA
ATOM     12  N   UNL     1      -4.178  12.290  17.797  0.00  0.00    +0.000 N 
ATOM     13  H   UNL     1      -4.010  12.918  17.024  0.00  0.00    +0.000 HD
BRANCH  10  15
ATOM     14  C   UNL     1      -7.563  13.163  17.808  0.00  0.00    +0.000 C 
ATOM     15  O   UNL     1      -6.280  12.831  17.267  0.00  0.00    +0.000 OA
ENDBRANCH  10  15
ENDBRANCH   4  12
ENDBRANCH   1   7
BRANCH   1  16
ATOM     16  N   UNL     1       1.289   8.859  19.363  0.00  0.00    +0.000 NA
ATOM     17  C   UNL     1       2.024   9.704  18.388  0.00  0.00    +0.000 C 
ATOM     18  C   UNL     1       2.581   8.866  17.242  0.00  0.00    +0.000 C 
ATOM     19  C   UNL     1       3.438   7.711  17.757  0.00  0.00    +0.000 C 
ATOM     20  C   UNL     1       2.599   6.824  18.680  0.00  0.00    +0.000 C 
ATOM     21  C   UNL     1       2.025   7.651  19.837  0.00  0.00    +0.000 C 
BRANCH  20  22
ATOM     22  C   UNL     1       3.405   5.666  19.285  0.00  0.00    +0.000 C 
ATOM     23  O   UNL     1       4.555   5.863  19.692  0.00  0.00    +0.000 OA
ATOM     24  N   UNL     1       2.805   4.410  19.379  0.00  0.00    +0.000 N 
ATOM     25  C   UNL     1       3.420   3.416  20.265  0.00  0.00    +0.000 C 
ATOM     26  C   UNL     1       4.249   2.381  19.512  0.00  0.00    +0.000 C 
ATOM     27  C   UNL     1       3.425   1.334  18.768  0.00  0.00    +0.000 C 
ATOM     28  C   UNL     1       2.429   1.909  17.763  0.00  0.00    +0.000 C 
ATOM     29  C   UNL     1       1.260   2.617  18.447  0.00  0.00    +0.000 C 
ATOM     30  C   UNL     1       1.522   4.090  18.758  0.00  0.00    +0.000 C 
ENDBRANCH  20  22
ENDBRANCH   1  16
TORSDOF 5
ENDMDL
MODEL 2
REMARK VINA RESULT:      -7.4      3.428      9.427
REMARK  Name = 
REMARK  6 active torsions:
REMARK  status: ('A' for Active; 'I' for Inactive)
REMARK    1  A    between atoms: C_1  and  O_2
REMARK    2  A    between atoms: O_2  and  C_3
REMARK    3  A    between atoms: N_5  and  C_6
REMARK    4  A    between atoms: C_9  and  S_10
REMARK    5  A    between atoms: S_10  and  N_13
REMARK    6  A    between atoms: C_17  and  C_18
REMARK                            x       y       z     vdW  Elec       q    Type
REMARK                         _______ _______ _______ _____ _____    ______ ____
ROOT
ATOM      1  S   UNL     1       0.582   9.243  21.256  0.00  0.00    +0.000 S 
ATOM      2  O   UNL     1      -0.646   8.743  21.857  0.00  0.00    +0.000 OA
ATOM      3  O   UNL     1       1.562   9.954  22.049  0.00  0.00    +0.000 OA
ENDROOT
BRANCH   1   7
ATOM      4  C   UNL     1       2.665   5.619  19.347  0.00  0.00    +0.000 A 
ATOM      5  C   UNL     1       1.920   5.492  20.526  0.00  0.00    +0.000 A 
ATOM      6  C   UNL     1       1.287   6.595  21.099  0.00  0.00    +0.000 A 
ATOM      7  C   UNL     1       1.411   7.849  20.503  0.00  0.00    +0.000 A 
ATOM      8  C   UNL     1       2.110   7.989  19.301  0.00  0.00    +0.000 A 
ATOM      9  C   UNL     1       2.759   6.877  18.740  0.00  0.00    +0.000 A 
BRANCH   4  12
ATOM     10  C   UNL     1       2.779   3.637  17.867  0.00  0.00    +0.000 C 
ATOM     11  O   UNL     1       1.658   3.671  17.385  0.00  0.00    +0.000 OA
ATOM     12  N   UNL     1       3.327   4.527  18.756  0.00  0.00    +0.000 N 
ATOM     13  H   UNL     1       4.316   4.405  18.922  0.00  0.00    +0.000 HD
BRANCH  10  15
ATOM     14  C   UNL     1       3.586   1.514  18.344  0.00  0.00    +0.000 C 
ATOM     15  O   UNL     1       3.704   2.691  17.539  0.00  0.00    +0.000 OA
ENDBRANCH  10  15
ENDBRANCH   4  12
ENDBRANCH   1   7
BRANCH   1  16
ATOM     16  N   UNL     1       0.154  10.244  19.921  0.00  0.00    +0.000 NA
ATOM     17  C   UNL     1      -1.163   9.939  19.305  0.00  0.00    +0.000 C 
ATOM     18  C   UNL     1      -1.383  10.761  18.039  0.00  0.00    +0.000 C 
ATOM     19  C   UNL     1      -1.208  12.256  18.304  0.00  0.00    +0.000 C 
ATOM     20  C   UNL     1       0.199  12.517  18.848  0.00  0.00    +0.000 C 
ATOM     21  C   UNL     1       0.441  11.694  20.119  0.00  0.00    +0.000 C 
BRANCH  20  22
ATOM     22  C   UNL     1       0.437  13.994  19.191  0.00  0.00    +0.000 C 
ATOM     23  O   UNL     1      -0.513  14.710  19.524  0.00  0.00    +0.000 OA
ATOM     24  N   UNL     1       1.740  14.491  19.139  0.00  0.00    +0.000 N 
ATOM     25  C   UNL     1       2.017  15.770  19.803  0.00  0.00    +0.000 C 
ATOM     26  C   UNL     1       2.092  16.941  18.827  0.00  0.00    +0.000 C 
ATOM     27  C   UNL     1       3.375  16.992  18.003  0.00  0.00    +0.000 C 
ATOM     28  C   UNL     1       3.656  15.730  17.190  0.00  0.00    +0.000 C 
ATOM     29  C   UNL     1       4.049  14.548  18.074  0.00  0.00    +0.000 C 
ATOM     30  C   UNL     1       2.861  13.735  18.589  0.00  0.00    +0.000 C 
ENDBRANCH  20  22
ENDBRANCH   1  16
TORSDOF 5
ENDMDL
MODEL 3
REMARK VINA RESULT:      -7.2      2.570      3.143
REMARK  Name = 
REMARK  6 active torsions:
REMARK  status: ('A' for Active; 'I' for Inactive)
REMARK    1  A    between atoms: C_1  and  O_2
REMARK    2  A    between atoms: O_2  and  C_3
REMARK    3  A    between atoms: N_5  and  C_6
REMARK    4  A    between atoms: C_9  and  S_10
REMARK    5  A    between atoms: S_10  and  N_13
REMARK    6  A    between atoms: C_17  and  C_18
REMARK                            x       y       z     vdW  Elec       q    Type
REMARK                         _______ _______ _______ _____ _____    ______ ____
ROOT
ATOM      1  S   UNL     1       0.453   9.494  21.491  0.00  0.00    +0.000 S 
ATOM      2  O   UNL     1       1.574   9.686  22.401  0.00  0.00    +0.000 OA
ATOM      3  O   UNL     1      -0.726   8.764  21.906  0.00  0.00    +0.000 OA
ENDROOT
BRANCH   1   7
ATOM      4  C   UNL     1      -0.856  13.684  20.131  0.00  0.00    +0.000 A 
ATOM      5  C   UNL     1       0.145  13.512  21.095  0.00  0.00    +0.000 A 
ATOM      6  C   UNL     1       0.540  12.238  21.502  0.00  0.00    +0.000 A 
ATOM      7  C   UNL     1      -0.081  11.115  20.957  0.00  0.00    +0.000 A 
ATOM      8  C   UNL     1      -1.048  11.263  19.959  0.00  0.00    +0.000 A 
ATOM      9  C   UNL     1      -1.453  12.550  19.568  0.00  0.00    +0.000 A 
BRANCH   4  12
ATOM     10  C   UNL     1      -0.538  15.874  19.019  0.00  0.00    +0.000 C 
ATOM     11  O   UNL     1       0.594  15.727  18.587  0.00  0.00    +0.000 OA
ATOM     12  N   UNL     1      -1.286  14.957  19.714  0.00  0.00    +0.000 N 
ATOM     13  H   UNL     1      -2.251  15.220  19.858  0.00  0.00    +0.000 HD
BRANCH  10  15
ATOM     14  C   UNL     1      -0.828  18.088  19.652  0.00  0.00    +0.000 C 
ATOM     15  O   UNL     1      -1.269  17.007  18.825  0.00  0.00    +0.000 OA
ENDBRANCH  10  15
ENDBRANCH   4  12
ENDBRANCH   1   7
BRANCH   1  16
ATOM     16  N   UNL     1       1.053   8.758  20.054  0.00  0.00    +0.000 NA
ATOM     17  C   UNL     1       1.526   9.706  19.013  0.00  0.00    +0.000 C 
ATOM     18  C   UNL     1       1.883   8.975  17.723  0.00  0.00    +0.000 C 
ATOM     19  C   UNL     1       2.890   7.854  17.975  0.00  0.00    +0.000 C 
ATOM     20  C   UNL     1       2.307   6.860  18.983  0.00  0.00    +0.000 C 
ATOM     21  C   UNL     1       1.936   7.579  20.286  0.00  0.00    +0.000 C 
BRANCH  20  22
ATOM     22  C   UNL     1       3.283   5.728  19.332  0.00  0.00    +0.000 C 
ATOM     23  O   UNL     1       4.476   5.981  19.529  0.00  0.00    +0.000 OA
ATOM     24  N   UNL     1       2.788   4.428  19.439  0.00  0.00    +0.000 N 
ATOM     25  C   UNL     1       3.621   3.426  20.113  0.00  0.00    +0.000 C 
ATOM     26  C   UNL     1       4.349   2.506  19.138  0.00  0.00    +0.000 C 
ATOM     27  C   UNL     1       3.461   1.452  18.484  0.00  0.00    +0.000 C 
ATOM     28  C   UNL     1       2.256   2.017  17.734  0.00  0.00    +0.000 C 
ATOM     29  C   UNL     1       1.202   2.591  18.678  0.00  0.00    +0.000 C 
ATOM     30  C   UNL     1       1.431   4.056  19.049  0.00  0.00    +0.000 C 
ENDBRANCH  20  22
ENDBRANCH   1  16
TORSDOF 5
ENDMDL
MODEL 4
REMARK VINA RESULT:      -7.2      2.542      3.070
REMARK  Name = 
REMARK  6 active torsions:
REMARK  status: ('A' for Active; 'I' for Inactive)
REMARK    1  A    between atoms: C_1  and  O_2
REMARK    2  A    between atoms: O_2  and  C_3
REMARK    3  A    between atoms: N_5  and  C_6
REMARK    4  A    between atoms: C_9  and  S_10
REMARK    5  A    between atoms: S_10  and  N_13
REMARK    6  A    between atoms: C_17  and  C_18
REMARK                            x       y       z     vdW  Elec       q    Type
REMARK                         _______ _______ _______ _____ _____    ______ ____
ROOT
ATOM      1  S   UNL     1       0.538   9.591  21.411  0.00  0.00    +0.000 S 
ATOM      2  O   UNL     1       1.670   9.784  22.307  0.00  0.00    +0.000 OA
ATOM      3  O   UNL     1      -0.653   8.900  21.855  0.00  0.00    +0.000 OA
ENDROOT
BRANCH   1   7
ATOM      4  C   UNL     1      -0.816  13.729  19.940  0.00  0.00    +0.000 A 
ATOM      5  C   UNL     1      -1.658  12.614  19.850  0.00  0.00    +0.000 A 
ATOM      6  C   UNL     1      -1.242  11.361  20.301  0.00  0.00    +0.000 A 
ATOM      7  C   UNL     1       0.037  11.207  20.833  0.00  0.00    +0.000 A 
ATOM      8  C   UNL     1       0.875  12.317  20.975  0.00  0.00    +0.000 A 
ATOM      9  C   UNL     1       0.457  13.571  20.502  0.00  0.00    +0.000 A 
BRANCH   4  12
ATOM     10  C   UNL     1      -1.575  16.064  20.262  0.00  0.00    +0.000 C 
ATOM     11  O   UNL     1      -1.576  16.117  21.481  0.00  0.00    +0.000 OA
ATOM     12  N   UNL     1      -1.201  15.001  19.479  0.00  0.00    +0.000 N 
ATOM     13  H   UNL     1      -1.136  15.205  18.492  0.00  0.00    +0.000 HD
BRANCH  10  15
ATOM     14  C   UNL     1      -0.778  17.823  18.976  0.00  0.00    +0.000 C 
ATOM     15  O   UNL     1      -1.920  17.117  19.469  0.00  0.00    +0.000 OA
ENDBRANCH  10  15
ENDBRANCH   4  12
ENDBRANCH   1   7
BRANCH   1  16
ATOM     16  N   UNL     1       1.111   8.801  19.992  0.00  0.00    +0.000 NA
ATOM     17  C   UNL     1       1.591   9.707  18.918  0.00  0.00    +0.000 C 
ATOM     18  C   UNL     1       1.923   8.931  17.648  0.00  0.00    +0.000 C 
ATOM     19  C   UNL     1       2.912   7.800  17.925  0.00  0.00    +0.000 C 
ATOM     20  C   UNL     1       2.321   6.849  18.968  0.00  0.00    +0.000 C 
ATOM     21  C   UNL     1       1.976   7.613  20.252  0.00  0.00    +0.000 C 
BRANCH  20  22
ATOM     22  C   UNL     1       3.280   5.710  19.343  0.00  0.00    +0.000 C 
ATOM     23  O   UNL     1       4.469   5.956  19.571  0.00  0.00    +0.000 OA
ATOM     24  N   UNL     1       2.774   4.413  19.438  0.00  0.00    +0.000 N 
ATOM     25  C   UNL     1       3.582   3.406  20.134  0.00  0.00    +0.000 C 
ATOM     26  C   UNL     1       4.330   2.481  19.179  0.00  0.00    +0.000 C 
ATOM     27  C   UNL     1       3.451   1.433  18.503  0.00  0.00    +0.000 C 
ATOM     28  C   UNL     1       2.270   2.005  17.721  0.00  0.00    +0.000 C 
ATOM     29  C   UNL     1       1.196   2.586  18.638  0.00  0.00    +0.000 C 
ATOM     30  C   UNL     1       1.425   4.050  19.013  0.00  0.00    +0.000 C 
ENDBRANCH  20  22
ENDBRANCH   1  16
TORSDOF 5
ENDMDL
MODEL 5
REMARK VINA RESULT:      -7.1      3.576      9.452
REMARK  Name = 
REMARK  6 active torsions:
REMARK  status: ('A' for Active; 'I' for Inactive)
REMARK    1  A    between atoms: C_1  and  O_2
REMARK    2  A    between atoms: O_2  and  C_3
REMARK    3  A    between atoms: N_5  and  C_6
REMARK    4  A    between atoms: C_9  and  S_10
REMARK    5  A    between atoms: S_10  and  N_13
REMARK    6  A    between atoms: C_17  and  C_18
REMARK                            x       y       z     vdW  Elec       q    Type
REMARK                         _______ _______ _______ _____ _____    ______ ____
ROOT
ATOM      1  S   UNL     1       0.696   8.855  21.250  0.00  0.00    +0.000 S 
ATOM      2  O   UNL     1      -0.559   8.208  21.604  0.00  0.00    +0.000 OA
ATOM      3  O   UNL     1       1.580   9.373  22.272  0.00  0.00    +0.000 OA
ENDROOT
BRANCH   1   7
ATOM      4  C   UNL     1       3.072   5.814  18.754  0.00  0.00    +0.000 A 
ATOM      5  C   UNL     1       2.512   5.463  19.989  0.00  0.00    +0.000 A 
ATOM      6  C   UNL     1       1.790   6.390  20.741  0.00  0.00    +0.000 A 
ATOM      7  C   UNL     1       1.635   7.692  20.269  0.00  0.00    +0.000 A 
ATOM      8  C   UNL     1       2.144   8.050  19.017  0.00  0.00    +0.000 A 
ATOM      9  C   UNL     1       2.886   7.117  18.275  0.00  0.00    +0.000 A 
BRANCH   4  12
ATOM     10  C   UNL     1       3.319   3.830  17.293  0.00  0.00    +0.000 C 
ATOM     11  O   UNL     1       2.146   3.512  17.173  0.00  0.00    +0.000 OA
ATOM     12  N   UNL     1       3.819   4.906  17.982  0.00  0.00    +0.000 N 
ATOM     13  H   UNL     1       4.805   5.077  17.841  0.00  0.00    +0.000 HD
BRANCH  10  15
ATOM     14  C   UNL     1       5.449   4.006  16.388  0.00  0.00    +0.000 C 
ATOM     15  O   UNL     1       4.340   3.156  16.695  0.00  0.00    +0.000 OA
ENDBRANCH  10  15
ENDBRANCH   4  12
ENDBRANCH   1   7
BRANCH   1  16
ATOM     16  N   UNL     1       0.345  10.137  20.154  0.00  0.00    +0.000 NA
ATOM     17  C   UNL     1      -1.032  10.128  19.599  0.00  0.00    +0.000 C 
ATOM     18  C   UNL     1      -1.200  11.196  18.523  0.00  0.00    +0.000 C 
ATOM     19  C   UNL     1      -0.800  12.577  19.037  0.00  0.00    +0.000 C 
ATOM     20  C   UNL     1       0.657  12.546  19.506  0.00  0.00    +0.000 C 
ATOM     21  C   UNL     1       0.846  11.474  20.587  0.00  0.00    +0.000 C 
BRANCH  20  22
ATOM     22  C   UNL     1       1.121  13.888  20.090  0.00  0.00    +0.000 C 
ATOM     23  O   UNL     1       0.397  14.498  20.883  0.00  0.00    +0.000 OA
ATOM     24  N   UNL     1       2.374  14.380  19.722  0.00  0.00    +0.000 N 
ATOM     25  C   UNL     1       2.962  15.449  20.537  0.00  0.00    +0.000 C 
ATOM     26  C   UNL     1       2.816  16.828  19.901  0.00  0.00    +0.000 C 
ATOM     27  C   UNL     1       3.760  17.084  18.730  0.00  0.00    +0.000 C 
ATOM     28  C   UNL     1       3.652  16.067  17.595  0.00  0.00    +0.000 C 
ATOM     29  C   UNL     1       4.207  14.699  17.988  0.00  0.00    +0.000 C 
ATOM     30  C   UNL     1       3.185  13.785  18.664  0.00  0.00    +0.000 C 
ENDBRANCH  20  22
ENDBRANCH   1  16
TORSDOF 5
ENDMDL
MODEL 6
REMARK VINA RESULT:      -7.1      1.959      2.852
REMARK  Name = 
REMARK  6 active torsions:
REMARK  status: ('A' for Active; 'I' for Inactive)
REMARK    1  A    between atoms: C_1  and  O_2
REMARK    2  A    between atoms: O_2  and  C_3
REMARK    3  A    between atoms: N_5  and  C_6
REMARK    4  A    between atoms: C_9  and  S_10
REMARK    5  A    between atoms: S_10  and  N_13
REMARK    6  A    between atoms: C_17  and  C_18
REMARK                            x       y       z     vdW  Elec       q    Type
REMARK                         _______ _______ _______ _____ _____    ______ ____
ROOT
ATOM      1  S   UNL     1       0.738  12.137  20.341  0.00  0.00    +0.000 S 
ATOM      2  O   UNL     1       1.434  12.245  19.067  0.00  0.00    +0.000 OA
ATOM      3  O   UNL     1       1.060  13.019  21.442  0.00  0.00    +0.000 OA
ENDROOT
BRANCH   1   7
ATOM      4  C   UNL     1      -3.756  12.524  19.459  0.00  0.00    +0.000 A 
ATOM      5  C   UNL     1      -2.933  11.693  18.690  0.00  0.00    +0.000 A 
ATOM      6  C   UNL     1      -1.570  11.577  18.964  0.00  0.00    +0.000 A 
ATOM      7  C   UNL     1      -1.010  12.313  20.008  0.00  0.00    +0.000 A 
ATOM      8  C   UNL     1      -1.823  13.111  20.817  0.00  0.00    +0.000 A 
ATOM      9  C   UNL     1      -3.190  13.237  20.524  0.00  0.00    +0.000 A 
BRANCH   4  12
ATOM     10  C   UNL     1      -6.156  12.194  19.970  0.00  0.00    +0.000 C 
ATOM     11  O   UNL     1      -6.065  11.620  21.043  0.00  0.00    +0.000 OA
ATOM     12  N   UNL     1      -5.130  12.674  19.196  0.00  0.00    +0.000 N 
ATOM     13  H   UNL     1      -5.420  13.244  18.415  0.00  0.00    +0.000 HD
BRANCH  10  15
ATOM     14  C   UNL     1      -7.248  12.580  17.959  0.00  0.00    +0.000 C 
ATOM     15  O   UNL     1      -7.349  12.493  19.383  0.00  0.00    +0.000 OA
ENDBRANCH  10  15
ENDBRANCH   4  12
ENDBRANCH   1   7
BRANCH   1  16
ATOM     16  N   UNL     1       0.895  10.515  20.899  0.00  0.00    +0.000 NA
ATOM     17  C   UNL     1      -0.214  10.039  21.764  0.00  0.00    +0.000 C 
ATOM     18  C   UNL     1       0.089   8.659  22.340  0.00  0.00    +0.000 C 
ATOM     19  C   UNL     1       0.426   7.655  21.239  0.00  0.00    +0.000 C 
ATOM     20  C   UNL     1       1.634   8.156  20.443  0.00  0.00    +0.000 C 
ATOM     21  C   UNL     1       1.350   9.546  19.861  0.00  0.00    +0.000 C 
BRANCH  20  22
ATOM     22  C   UNL     1       2.005   7.226  19.279  0.00  0.00    +0.000 C 
ATOM     23  O   UNL     1       2.072   7.673  18.130  0.00  0.00    +0.000 OA
ATOM     24  N   UNL     1       2.280   5.886  19.556  0.00  0.00    +0.000 N 
ATOM     25  C   UNL     1       2.973   5.098  18.530  0.00  0.00    +0.000 C 
ATOM     26  C   UNL     1       2.031   4.196  17.738  0.00  0.00    +0.000 C 
ATOM     27  C   UNL     1       1.561   2.957  18.494  0.00  0.00    +0.000 C 
ATOM     28  C   UNL     1       0.867   3.252  19.823  0.00  0.00    +0.000 C 
ATOM     29  C   UNL     1       1.840   3.762  20.884  0.00  0.00    +0.000 C 
ATOM     30  C   UNL     1       2.047   5.276  20.862  0.00  0.00    +0.000 C 
ENDBRANCH  20  22
ENDBRANCH   1  16
TORSDOF 5
ENDMDL
MODEL 7
REMARK VINA RESULT:      -7.0      3.672      9.935
REMARK  Name = 
REMARK  6 active torsions:
REMARK  status: ('A' for Active; 'I' for Inactive)
REMARK    1  A    between atoms: C_1  and  O_2
REMARK    2  A    between atoms: O_2  and  C_3
REMARK    3  A    between atoms: N_5  and  C_6
REMARK    4  A    between atoms: C_9  and  S_10
REMARK    5  A    between atoms: S_10  and  N_13
REMARK    6  A    between atoms: C_17  and  C_18
REMARK                            x       y       z     vdW  Elec       q    Type
REMARK                         _______ _______ _______ _____ _____    ______ ____
ROOT
ATOM      1  S   UNL     1       0.794   8.882  21.361  0.00  0.00    +0.000 S 
ATOM      2  O   UNL     1      -0.517   8.331  21.676  0.00  0.00    +0.000 OA
ATOM      3  O   UNL     1       1.736   9.207  22.410  0.00  0.00    +0.000 OA
ENDROOT
BRANCH   1   7
ATOM      4  C   UNL     1       2.903   5.981  18.488  0.00  0.00    +0.000 A 
ATOM      5  C   UNL     1       2.737   7.333  18.164  0.00  0.00    +0.000 A 
ATOM      6  C   UNL     1       2.099   8.210  19.042  0.00  0.00    +0.000 A 
ATOM      7  C   UNL     1       1.600   7.734  20.253  0.00  0.00    +0.000 A 
ATOM      8  C   UNL     1       1.797   6.399  20.616  0.00  0.00    +0.000 A 
ATOM      9  C   UNL     1       2.424   5.518  19.720  0.00  0.00    +0.000 A 
BRANCH   4  12
ATOM     10  C   UNL     1       4.816   4.609  17.720  0.00  0.00    +0.000 C 
ATOM     11  O   UNL     1       5.616   4.849  18.611  0.00  0.00    +0.000 OA
ATOM     12  N   UNL     1       3.528   5.071  17.617  0.00  0.00    +0.000 N 
ATOM     13  H   UNL     1       2.983   4.643  16.882  0.00  0.00    +0.000 HD
BRANCH  10  15
ATOM     14  C   UNL     1       6.260   4.166  15.958  0.00  0.00    +0.000 C 
ATOM     15  O   UNL     1       5.088   3.774  16.679  0.00  0.00    +0.000 OA
ENDBRANCH  10  15
ENDBRANCH   4  12
ENDBRANCH   1   7
BRANCH   1  16
ATOM     16  N   UNL     1       0.562  10.294  20.401  0.00  0.00    +0.000 NA
ATOM     17  C   UNL     1      -0.736  10.358  19.683  0.00  0.00    +0.000 C 
ATOM     18  C   UNL     1      -0.785  11.554  18.738  0.00  0.00    +0.000 C 
ATOM     19  C   UNL     1      -0.471  12.859  19.469  0.00  0.00    +0.000 C 
ATOM     20  C   UNL     1       0.917  12.766  20.108  0.00  0.00    +0.000 C 
ATOM     21  C   UNL     1       0.986  11.564  21.058  0.00  0.00    +0.000 C 
BRANCH  20  22
ATOM     22  C   UNL     1       1.286  14.021  20.910  0.00  0.00    +0.000 C 
ATOM     23  O   UNL     1       1.022  14.082  22.115  0.00  0.00    +0.000 OA
ATOM     24  N   UNL     1       1.936  15.067  20.254  0.00  0.00    +0.000 N 
ATOM     25  C   UNL     1       2.601  16.088  21.072  0.00  0.00    +0.000 C 
ATOM     26  C   UNL     1       1.787  17.371  21.197  0.00  0.00    +0.000 C 
ATOM     27  C   UNL     1       1.794  18.246  19.946  0.00  0.00    +0.000 C 
ATOM     28  C   UNL     1       1.309  17.544  18.680  0.00  0.00    +0.000 C 
ATOM     29  C   UNL     1       2.302  16.495  18.181  0.00  0.00    +0.000 C 
ATOM     30  C   UNL     1       2.113  15.113  18.805  0.00  0.00    +0.000 C 
ENDBRANCH  20  22
ENDBRANCH   1  16
TORSDOF 5
ENDMDL
MODEL 8
REMARK VINA RESULT:      -7.0      3.715      9.596
REMARK  Name = 
REMARK  6 active torsions:
REMARK  status: ('A' for Active; 'I' for Inactive)
REMARK    1  A    between atoms: C_1  and  O_2
REMARK    2  A    between atoms: O_2  and  C_3
REMARK    3  A    between atoms: N_5  and  C_6
REMARK    4  A    between atoms: C_9  and  S_10
REMARK    5  A    between atoms: S_10  and  N_13
REMARK    6  A    between atoms: C_17  and  C_18
REMARK                            x       y       z     vdW  Elec       q    Type
REMARK                         _______ _______ _______ _____ _____    ______ ____
ROOT
ATOM      1  S   UNL     1       0.726   8.719  21.293  0.00  0.00    +0.000 S 
ATOM      2  O   UNL     1      -0.602   8.168  21.521  0.00  0.00    +0.000 OA
ATOM      3  O   UNL     1       1.613   9.007  22.401  0.00  0.00    +0.000 OA
ENDROOT
BRANCH   1   7
ATOM      4  C   UNL     1       2.971   5.892  18.449  0.00  0.00    +0.000 A 
ATOM      5  C   UNL     1       2.779   7.242  18.131  0.00  0.00    +0.000 A 
ATOM      6  C   UNL     1       2.099   8.096  19.000  0.00  0.00    +0.000 A 
ATOM      7  C   UNL     1       1.585   7.599  20.196  0.00  0.00    +0.000 A 
ATOM      8  C   UNL     1       1.807   6.267  20.554  0.00  0.00    +0.000 A 
ATOM      9  C   UNL     1       2.476   5.408  19.667  0.00  0.00    +0.000 A 
BRANCH   4  12
ATOM     10  C   UNL     1       4.984   4.740  17.583  0.00  0.00    +0.000 C 
ATOM     11  O   UNL     1       5.822   5.170  18.360  0.00  0.00    +0.000 OA
ATOM     12  N   UNL     1       3.637   5.004  17.586  0.00  0.00    +0.000 N 
ATOM     13  H   UNL     1       3.094   4.438  16.949  0.00  0.00    +0.000 HD
BRANCH  10  15
ATOM     14  C   UNL     1       6.480   4.202  15.892  0.00  0.00    +0.000 C 
ATOM     15  O   UNL     1       5.275   3.861  16.584  0.00  0.00    +0.000 OA
ENDBRANCH  10  15
ENDBRANCH   4  12
ENDBRANCH   1   7
BRANCH   1  16
ATOM     16  N   UNL     1       0.554  10.160  20.365  0.00  0.00    +0.000 NA
ATOM     17  C   UNL     1      -0.833  10.465  19.931  0.00  0.00    +0.000 C 
ATOM     18  C   UNL     1      -0.865  11.661  18.985  0.00  0.00    +0.000 C 
ATOM     19  C   UNL     1      -0.178  12.880  19.600  0.00  0.00    +0.000 C 
ATOM     20  C   UNL     1       1.274  12.531  19.938  0.00  0.00    +0.000 C 
ATOM     21  C   UNL     1       1.326  11.326  20.885  0.00  0.00    +0.000 C 
BRANCH  20  22
ATOM     22  C   UNL     1       2.021  13.691  20.612  0.00  0.00    +0.000 C 
ATOM     23  O   UNL     1       1.683  14.070  21.738  0.00  0.00    +0.000 OA
ATOM     24  N   UNL     1       3.089  14.281  19.936  0.00  0.00    +0.000 N 
ATOM     25  C   UNL     1       4.013  15.121  20.706  0.00  0.00    +0.000 C 
ATOM     26  C   UNL     1       3.755  16.613  20.520  0.00  0.00    +0.000 C 
ATOM     27  C   UNL     1       4.227  17.172  19.181  0.00  0.00    +0.000 C 
ATOM     28  C   UNL     1       3.636  16.471  17.959  0.00  0.00    +0.000 C 
ATOM     29  C   UNL     1       4.187  15.058  17.778  0.00  0.00    +0.000 C 
ATOM     30  C   UNL     1       3.413  13.986  18.543  0.00  0.00    +0.000 C 
ENDBRANCH  20  22
ENDBRANCH   1  16
TORSDOF 5
ENDMDL
MODEL 9
REMARK VINA RESULT:      -6.9      3.833      9.537
REMARK  Name = 
REMARK  6 active torsions:
REMARK  status: ('A' for Active; 'I' for Inactive)
REMARK    1  A    between atoms: C_1  and  O_2
REMARK    2  A    between atoms: O_2  and  C_3
REMARK    3  A    between atoms: N_5  and  C_6
REMARK    4  A    between atoms: C_9  and  S_10
REMARK    5  A    between atoms: S_10  and  N_13
REMARK    6  A    between atoms: C_17  and  C_18
REMARK                            x       y       z     vdW  Elec       q    Type
REMARK                         _______ _______ _______ _____ _____    ______ ____
ROOT
ATOM      1  S   UNL     1       0.704   9.004  21.430  0.00  0.00    +0.000 S 
ATOM      2  O   UNL     1      -0.604   8.391  21.615  0.00  0.00    +0.000 OA
ATOM      3  O   UNL     1       1.590   9.218  22.554  0.00  0.00    +0.000 OA
ENDROOT
BRANCH   1   7
ATOM      4  C   UNL     1       2.948   6.410  18.372  0.00  0.00    +0.000 A 
ATOM      5  C   UNL     1       2.597   5.910  19.631  0.00  0.00    +0.000 A 
ATOM      6  C   UNL     1       1.913   6.701  20.555  0.00  0.00    +0.000 A 
ATOM      7  C   UNL     1       1.588   8.017  20.230  0.00  0.00    +0.000 A 
ATOM      8  C   UNL     1       1.886   8.520  18.961  0.00  0.00    +0.000 A 
ATOM      9  C   UNL     1       2.591   7.724  18.043  0.00  0.00    +0.000 A 
BRANCH   4  12
ATOM     10  C   UNL     1       4.994   5.729  17.155  0.00  0.00    +0.000 C 
ATOM     11  O   UNL     1       5.817   6.431  17.721  0.00  0.00    +0.000 OA
ATOM     12  N   UNL     1       3.652   5.642  17.427  0.00  0.00    +0.000 N 
ATOM     13  H   UNL     1       3.170   4.898  16.942  0.00  0.00    +0.000 HD
BRANCH  10  15
ATOM     14  C   UNL     1       6.691   4.469  16.196  0.00  0.00    +0.000 C 
ATOM     15  O   UNL     1       5.316   4.861  16.155  0.00  0.00    +0.000 OA
ENDBRANCH  10  15
ENDBRANCH   4  12
ENDBRANCH   1   7
BRANCH   1  16
ATOM     16  N   UNL     1       0.476  10.517  20.639  0.00  0.00    +0.000 NA
ATOM     17  C   UNL     1      -0.940  10.929  20.467  0.00  0.00    +0.000 C 
ATOM     18  C   UNL     1      -1.048  12.192  19.619  0.00  0.00    +0.000 C 
ATOM     19  C   UNL     1      -0.189  13.321  20.185  0.00  0.00    +0.000 C 
ATOM     20  C   UNL     1       1.272  12.870  20.249  0.00  0.00    +0.000 C 
ATOM     21  C   UNL     1       1.400  11.597  21.094  0.00  0.00    +0.000 C 
BRANCH  20  22
ATOM     22  C   UNL     1       2.195  13.934  20.859  0.00  0.00    +0.000 C 
ATOM     23  O   UNL     1       1.981  14.354  22.001  0.00  0.00    +0.000 OA
ATOM     24  N   UNL     1       3.279  14.390  20.107  0.00  0.00    +0.000 N 
ATOM     25  C   UNL     1       4.346  15.115  20.805  0.00  0.00    +0.000 C 
ATOM     26  C   UNL     1       4.256  16.626  20.620  0.00  0.00    +0.000 C 
ATOM     27  C   UNL     1       4.701  17.120  19.247  0.00  0.00    +0.000 C 
ATOM     28  C   UNL     1       3.950  16.492  18.074  0.00  0.00    +0.000 C 
ATOM     29  C   UNL     1       4.315  15.022  17.873  0.00  0.00    +0.000 C 
ATOM     30  C   UNL     1       3.471  14.053  18.699  0.00  0.00    +0.000 C 
ENDBRANCH  20  22
ENDBRANCH   1  16
TORSDOF 5
ENDMDL
