MODEL 1
REMARK VINA RESULT:      -7.7      0.000      0.000
REMARK  Name = 
REMARK  4 active torsions:
REMARK  status: ('A' for Active; 'I' for Inactive)
REMARK    1  A    between atoms: C_2  and  C_3
REMARK    2  A    between atoms: C_10  and  N_11
REMARK    3  A    between atoms: N_11  and  C_12
REMARK    4  A    between atoms: C_12  and  C_13
REMARK                            x       y       z     vdW  Elec       q    Type
REMARK                         _______ _______ _______ _____ _____    ______ ____
ROOT
ATOM      1  C   UNL     1       4.886   4.037  18.680  0.00  0.00    +0.000 C 
ATOM      2  C   UNL     1       5.071   2.646  19.300  0.00  0.00    +0.000 C 
ATOM      3  C   UNL     1       3.776   2.333  20.057  0.00  0.00    +0.000 C 
ATOM      4  C   UNL     1       3.082   3.661  20.165  0.00  0.00    +0.000 A 
ATOM      5  C   UNL     1       1.971   3.973  20.835  0.00  0.00    +0.000 A 
ATOM      6 CL   UNL     1       1.082   2.820  21.746  0.00  0.00    +0.000 Cl
ATOM      7  C   UNL     1       1.476   5.333  20.782  0.00  0.00    +0.000 A 
ATOM      8  C   UNL     1       2.116   6.308  20.113  0.00  0.00    +0.000 A 
ATOM      9  C   UNL     1       3.399   5.943  19.361  0.00  0.00    +0.000 A 
ATOM     10  O   UNL     1       4.027   6.802  18.745  0.00  0.00    +0.000 OA
ATOM     11  N   UNL     1       3.766   4.613  19.434  0.00  0.00    +0.000 N 
ENDROOT
BRANCH   1  13
ATOM     12  O   UNL     1       3.326   3.533  16.901  0.00  0.00    +0.000 OA
ATOM     13  C   UNL     1       4.460   3.929  17.205  0.00  0.00    +0.000 C 
ATOM     14  N   UNL     1       5.355   4.324  16.231  0.00  0.00    +0.000 N 
ATOM     15  C   UNL     1       4.939   4.483  14.851  0.00  0.00    +0.000 C 
ATOM     16  C   UNL     1       6.204   4.215  14.060  0.00  0.00    +0.000 C 
ATOM     17  C   UNL     1       7.296   4.793  14.954  0.00  0.00    +0.000 C 
ATOM     18  C   UNL     1       6.781   4.569  16.376  0.00  0.00    +0.000 C 
ENDBRANCH   1  13
BRANCH   8  19
ATOM     19  N   UNL     1       1.681   7.637  20.097  0.00  0.00    +0.000 N 
ATOM     20  H   UNL     1       0.813   7.663  19.558  0.00  0.00    +0.000 HD
BRANCH  19  21
ATOM     21  C   UNL     1       1.404   8.327  21.360  0.00  0.00    +0.000 C 
BRANCH  21  22
ATOM     22  C   UNL     1       0.500   9.509  21.090  0.00  0.00    +0.000 A 
ATOM     23  C   UNL     1      -0.058  10.254  22.141  0.00  0.00    +0.000 A 
ATOM     24  C   UNL     1      -0.924  11.317  21.871  0.00  0.00    +0.000 A 
ATOM     25  C   UNL     1      -1.235  11.632  20.553  0.00  0.00    +0.000 A 
ATOM     26  F   UNL     1      -2.072  12.646  20.296  0.00  0.00    +0.000 F 
ATOM     27  C   UNL     1      -0.698  10.904  19.498  0.00  0.00    +0.000 A 
ATOM     28  C   UNL     1       0.169   9.843  19.766  0.00  0.00    +0.000 A 
ENDBRANCH  21  22
ENDBRANCH  19  21
ENDBRANCH   8  19
TORSDOF 4
ENDMDL
MODEL 2
REMARK VINA RESULT:      -7.7      0.374      1.001
REMARK  Name = 
REMARK  4 active torsions:
REMARK  status: ('A' for Active; 'I' for Inactive)
REMARK    1  A    between atoms: C_2  and  C_3
REMARK    2  A    between atoms: C_10  and  N_11
REMARK    3  A    between atoms: N_11  and  C_12
REMARK    4  A    between atoms: C_12  and  C_13
REMARK                            x       y       z     vdW  Elec       q    Type
REMARK                         _______ _______ _______ _____ _____    ______ ____
ROOT
ATOM      1  C   UNL     1       4.922   3.974  18.598  0.00  0.00    +0.000 C 
ATOM      2  C   UNL     1       5.053   2.589  19.245  0.00  0.00    +0.000 C 
ATOM      3  C   UNL     1       3.750   2.346  20.013  0.00  0.00    +0.000 C 
ATOM      4  C   UNL     1       3.113   3.703  20.098  0.00  0.00    +0.000 A 
ATOM      5  C   UNL     1       2.018   4.074  20.766  0.00  0.00    +0.000 A 
ATOM      6 CL   UNL     1       1.087   2.978  21.704  0.00  0.00    +0.000 Cl
ATOM      7  C   UNL     1       1.580   5.452  20.688  0.00  0.00    +0.000 A 
ATOM      8  C   UNL     1       2.257   6.387  19.998  0.00  0.00    +0.000 A 
ATOM      9  C   UNL     1       3.520   5.954  19.248  0.00  0.00    +0.000 A 
ATOM     10  O   UNL     1       4.180   6.773  18.611  0.00  0.00    +0.000 OA
ATOM     11  N   UNL     1       3.832   4.611  19.345  0.00  0.00    +0.000 N 
ENDROOT
BRANCH   1  13
ATOM     12  O   UNL     1       3.357   3.434  16.834  0.00  0.00    +0.000 OA
ATOM     13  C   UNL     1       4.485   3.856  17.127  0.00  0.00    +0.000 C 
ATOM     14  N   UNL     1       5.361   4.270  16.145  0.00  0.00    +0.000 N 
ATOM     15  C   UNL     1       4.929   4.418  14.768  0.00  0.00    +0.000 C 
ATOM     16  C   UNL     1       6.192   4.177  13.965  0.00  0.00    +0.000 C 
ATOM     17  C   UNL     1       7.279   4.780  14.848  0.00  0.00    +0.000 C 
ATOM     18  C   UNL     1       6.783   4.546  16.275  0.00  0.00    +0.000 C 
ENDBRANCH   1  13
BRANCH   8  19
ATOM     19  N   UNL     1       1.877   7.732  19.957  0.00  0.00    +0.000 N 
ATOM     20  H   UNL     1       1.253   7.845  19.156  0.00  0.00    +0.000 HD
BRANCH  19  21
ATOM     21  C   UNL     1       1.189   8.328  21.105  0.00  0.00    +0.000 C 
BRANCH  21  22
ATOM     22  C   UNL     1       0.365   9.505  20.631  0.00  0.00    +0.000 A 
ATOM     23  C   UNL     1       0.267   9.822  19.266  0.00  0.00    +0.000 A 
ATOM     24  C   UNL     1      -0.465  10.938  18.852  0.00  0.00    +0.000 A 
ATOM     25  C   UNL     1      -1.095  11.737  19.800  0.00  0.00    +0.000 A 
ATOM     26  F   UNL     1      -1.790  12.811  19.402  0.00  0.00    +0.000 F 
ATOM     27  C   UNL     1      -1.006  11.443  21.155  0.00  0.00    +0.000 A 
ATOM     28  C   UNL     1      -0.277  10.328  21.571  0.00  0.00    +0.000 A 
ENDBRANCH  21  22
ENDBRANCH  19  21
ENDBRANCH   8  19
TORSDOF 4
ENDMDL
MODEL 3
REMARK VINA RESULT:      -7.6      4.259      8.720
REMARK  Name = 
REMARK  4 active torsions:
REMARK  status: ('A' for Active; 'I' for Inactive)
REMARK    1  A    between atoms: C_2  and  C_3
REMARK    2  A    between atoms: C_10  and  N_11
REMARK    3  A    between atoms: N_11  and  C_12
REMARK    4  A    between atoms: C_12  and  C_13
REMARK                            x       y       z     vdW  Elec       q    Type
REMARK                         _______ _______ _______ _____ _____    ______ ____
ROOT
ATOM      1  C   UNL     1       0.339  12.753  19.942  0.00  0.00    +0.000 C 
ATOM      2  C   UNL     1      -0.671  13.224  20.996  0.00  0.00    +0.000 C 
ATOM      3  C   UNL     1      -0.701  12.141  22.080  0.00  0.00    +0.000 C 
ATOM      4  C   UNL     1      -0.030  10.959  21.440  0.00  0.00    +0.000 A 
ATOM      5  C   UNL     1       0.103   9.717  21.909  0.00  0.00    +0.000 A 
ATOM      6 CL   UNL     1      -0.513   9.230  23.436  0.00  0.00    +0.000 Cl
ATOM      7  C   UNL     1       0.810   8.736  21.111  0.00  0.00    +0.000 A 
ATOM      8  C   UNL     1       1.307   9.019  19.894  0.00  0.00    +0.000 A 
ATOM      9  C   UNL     1       1.135  10.443  19.359  0.00  0.00    +0.000 A 
ATOM     10  O   UNL     1       1.562  10.748  18.247  0.00  0.00    +0.000 OA
ATOM     11  N   UNL     1       0.488  11.318  20.211  0.00  0.00    +0.000 N 
ENDROOT
BRANCH   1  13
ATOM     12  O   UNL     1       2.544  12.921  20.924  0.00  0.00    +0.000 OA
ATOM     13  C   UNL     1       1.709  13.421  20.156  0.00  0.00    +0.000 C 
ATOM     14  N   UNL     1       2.003  14.565  19.442  0.00  0.00    +0.000 N 
ATOM     15  C   UNL     1       3.349  15.102  19.406  0.00  0.00    +0.000 C 
ATOM     16  C   UNL     1       3.140  16.586  19.183  0.00  0.00    +0.000 C 
ATOM     17  C   UNL     1       1.915  16.628  18.277  0.00  0.00    +0.000 C 
ATOM     18  C   UNL     1       1.083  15.419  18.707  0.00  0.00    +0.000 C 
ENDBRANCH   1  13
BRANCH   8  19
ATOM     19  N   UNL     1       1.944   8.070  19.089  0.00  0.00    +0.000 N 
ATOM     20  H   UNL     1       2.565   8.578  18.457  0.00  0.00    +0.000 HD
BRANCH  19  21
ATOM     21  C   UNL     1       2.757   7.018  19.708  0.00  0.00    +0.000 C 
BRANCH  21  22
ATOM     22  C   UNL     1       2.122   5.674  19.430  0.00  0.00    +0.000 A 
ATOM     23  C   UNL     1       1.527   4.923  20.457  0.00  0.00    +0.000 A 
ATOM     24  C   UNL     1       0.983   3.665  20.187  0.00  0.00    +0.000 A 
ATOM     25  C   UNL     1       1.037   3.156  18.894  0.00  0.00    +0.000 A 
ATOM     26  F   UNL     1       0.522   1.946  18.638  0.00  0.00    +0.000 F 
ATOM     27  C   UNL     1       1.626   3.880  17.865  0.00  0.00    +0.000 A 
ATOM     28  C   UNL     1       2.168   5.138  18.132  0.00  0.00    +0.000 A 
ENDBRANCH  21  22
ENDBRANCH  19  21
ENDBRANCH   8  19
TORSDOF 4
ENDMDL
MODEL 4
REMARK VINA RESULT:      -7.5      0.899      1.320
REMARK  Name = 
REMARK  4 active torsions:
REMARK  status: ('A' for Active; 'I' for Inactive)
REMARK    1  A    between atoms: C_2  and  C_3
REMARK    2  A    between atoms: C_10  and  N_11
REMARK    3  A    between atoms: N_11  and  C_12
REMARK    4  A    between atoms: C_12  and  C_13
REMARK                            x       y       z     vdW  Elec       q    Type
REMARK                         _______ _______ _______ _____ _____    ______ ____
ROOT
ATOM      1  C   UNL     1       4.808   3.598  18.587  0.00  0.00    +0.000 C 
ATOM      2  C   UNL     1       4.702   2.140  19.051  0.00  0.00    +0.000 C 
ATOM      3  C   UNL     1       3.363   2.016  19.787  0.00  0.00    +0.000 C 
ATOM      4  C   UNL     1       2.953   3.438  20.047  0.00  0.00    +0.000 A 
ATOM      5  C   UNL     1       1.922   3.894  20.761  0.00  0.00    +0.000 A 
ATOM      6 CL   UNL     1       0.810   2.854  21.556  0.00  0.00    +0.000 Cl
ATOM      7  C   UNL     1       1.714   5.324  20.862  0.00  0.00    +0.000 A 
ATOM      8  C   UNL     1       2.544   6.215  20.293  0.00  0.00    +0.000 A 
ATOM      9  C   UNL     1       3.733   5.681  19.489  0.00  0.00    +0.000 A 
ATOM     10  O   UNL     1       4.528   6.456  18.960  0.00  0.00    +0.000 OA
ATOM     11  N   UNL     1       3.822   4.304  19.413  0.00  0.00    +0.000 N 
ENDROOT
BRANCH   1  13
ATOM     12  O   UNL     1       3.227   3.460  16.760  0.00  0.00    +0.000 OA
ATOM     13  C   UNL     1       4.382   3.739  17.114  0.00  0.00    +0.000 C 
ATOM     14  N   UNL     1       5.301   4.223  16.206  0.00  0.00    +0.000 N 
ATOM     15  C   UNL     1       4.901   4.612  14.868  0.00  0.00    +0.000 C 
ATOM     16  C   UNL     1       6.151   4.392  14.039  0.00  0.00    +0.000 C 
ATOM     17  C   UNL     1       7.271   4.763  15.003  0.00  0.00    +0.000 C 
ATOM     18  C   UNL     1       6.739   4.359  16.378  0.00  0.00    +0.000 C 
ENDBRANCH   1  13
BRANCH   8  19
ATOM     19  N   UNL     1       2.388   7.598  20.426  0.00  0.00    +0.000 N 
ATOM     20  H   UNL     1       3.255   8.032  20.102  0.00  0.00    +0.000 HD
BRANCH  19  21
ATOM     21  C   UNL     1       1.298   8.279  19.720  0.00  0.00    +0.000 C 
BRANCH  21  22
ATOM     22  C   UNL     1       0.543   9.149  20.699  0.00  0.00    +0.000 A 
ATOM     23  C   UNL     1      -0.159  10.288  20.270  0.00  0.00    +0.000 A 
ATOM     24  C   UNL     1      -0.816  11.102  21.195  0.00  0.00    +0.000 A 
ATOM     25  C   UNL     1      -0.768  10.783  22.548  0.00  0.00    +0.000 A 
ATOM     26  F   UNL     1      -1.391  11.569  23.435  0.00  0.00    +0.000 F 
ATOM     27  C   UNL     1      -0.074   9.664  22.994  0.00  0.00    +0.000 A 
ATOM     28  C   UNL     1       0.580   8.848  22.071  0.00  0.00    +0.000 A 
ENDBRANCH  21  22
ENDBRANCH  19  21
ENDBRANCH   8  19
TORSDOF 4
ENDMDL
MODEL 5
REMARK VINA RESULT:      -7.4      1.794      2.112
REMARK  Name = 
REMARK  4 active torsions:
REMARK  status: ('A' for Active; 'I' for Inactive)
REMARK    1  A    between atoms: C_2  and  C_3
REMARK    2  A    between atoms: C_10  and  N_11
REMARK    3  A    between atoms: N_11  and  C_12
REMARK    4  A    between atoms: C_12  and  C_13
REMARK                            x       y       z     vdW  Elec       q    Type
REMARK                         _______ _______ _______ _____ _____    ______ ____
ROOT
ATOM      1  C   UNL     1       5.518   5.132  17.519  0.00  0.00    +0.000 C 
ATOM      2  C   UNL     1       5.981   4.145  18.598  0.00  0.00    +0.000 C 
ATOM      3  C   UNL     1       4.808   3.988  19.572  0.00  0.00    +0.000 C 
ATOM      4  C   UNL     1       3.901   5.140  19.245  0.00  0.00    +0.000 A 
ATOM      5  C   UNL     1       2.794   5.538  19.876  0.00  0.00    +0.000 A 
ATOM      6 CL   UNL     1       2.176   4.738  21.264  0.00  0.00    +0.000 Cl
ATOM      7  C   UNL     1       2.066   6.682  19.364  0.00  0.00    +0.000 A 
ATOM      8  C   UNL     1       2.485   7.385  18.298  0.00  0.00    +0.000 A 
ATOM      9  C   UNL     1       3.765   6.929  17.591  0.00  0.00    +0.000 A 
ATOM     10  O   UNL     1       4.195   7.546  16.619  0.00  0.00    +0.000 OA
ATOM     11  N   UNL     1       4.363   5.803  18.125  0.00  0.00    +0.000 N 
ENDROOT
BRANCH   1  13
ATOM     12  O   UNL     1       4.005   3.690  16.301  0.00  0.00    +0.000 OA
ATOM     13  C   UNL     1       5.030   4.386  16.264  0.00  0.00    +0.000 C 
ATOM     14  N   UNL     1       5.736   4.543  15.089  0.00  0.00    +0.000 N 
ATOM     15  C   UNL     1       5.201   4.075  13.824  0.00  0.00    +0.000 C 
ATOM     16  C   UNL     1       6.436   3.776  12.998  0.00  0.00    +0.000 C 
ATOM     17  C   UNL     1       7.417   4.853  13.446  0.00  0.00    +0.000 C 
ATOM     18  C   UNL     1       7.069   5.097  14.915  0.00  0.00    +0.000 C 
ENDBRANCH   1  13
BRANCH   8  19
ATOM     19  N   UNL     1       1.824   8.523  17.825  0.00  0.00    +0.000 N 
ATOM     20  H   UNL     1       0.888   8.231  17.538  0.00  0.00    +0.000 HD
BRANCH  19  21
ATOM     21  C   UNL     1       1.644   9.679  18.707  0.00  0.00    +0.000 C 
BRANCH  21  22
ATOM     22  C   UNL     1       0.232  10.198  18.561  0.00  0.00    +0.000 A 
ATOM     23  C   UNL     1      -0.270  11.195  19.414  0.00  0.00    +0.000 A 
ATOM     24  C   UNL     1      -1.591  11.631  19.290  0.00  0.00    +0.000 A 
ATOM     25  C   UNL     1      -2.412  11.070  18.317  0.00  0.00    +0.000 A 
ATOM     26  F   UNL     1      -3.681  11.483  18.204  0.00  0.00    +0.000 F 
ATOM     27  C   UNL     1      -1.937  10.079  17.466  0.00  0.00    +0.000 A 
ATOM     28  C   UNL     1      -0.617   9.643  17.588  0.00  0.00    +0.000 A 
ENDBRANCH  21  22
ENDBRANCH  19  21
ENDBRANCH   8  19
TORSDOF 4
ENDMDL
MODEL 6
REMARK VINA RESULT:      -7.4      8.134     10.950
REMARK  Name = 
REMARK  4 active torsions:
REMARK  status: ('A' for Active; 'I' for Inactive)
REMARK    1  A    between atoms: C_2  and  C_3
REMARK    2  A    between atoms: C_10  and  N_11
REMARK    3  A    between atoms: N_11  and  C_12
REMARK    4  A    between atoms: C_12  and  C_13
REMARK                            x       y       z     vdW  Elec       q    Type
REMARK                         _______ _______ _______ _____ _____    ______ ____
ROOT
ATOM      1  C   UNL     1       9.658  13.347  21.667  0.00  0.00    +0.000 C 
ATOM      2  C   UNL     1      10.521  14.584  21.383  0.00  0.00    +0.000 C 
ATOM      3  C   UNL     1      10.713  14.636  19.864  0.00  0.00    +0.000 C 
ATOM      4  C   UNL     1      10.303  13.271  19.392  0.00  0.00    +0.000 A 
ATOM      5  C   UNL     1      10.390  12.747  18.168  0.00  0.00    +0.000 A 
ATOM      6 CL   UNL     1      11.029  13.613  16.830  0.00  0.00    +0.000 Cl
ATOM      7  C   UNL     1       9.912  11.398  17.945  0.00  0.00    +0.000 A 
ATOM      8  C   UNL     1       9.416  10.635  18.935  0.00  0.00    +0.000 A 
ATOM      9  C   UNL     1       9.335  11.240  20.339  0.00  0.00    +0.000 A 
ATOM     10  O   UNL     1       8.901  10.579  21.280  0.00  0.00    +0.000 OA
ATOM     11  N   UNL     1       9.773  12.547  20.443  0.00  0.00    +0.000 N 
ENDROOT
BRANCH   1  13
ATOM     12  O   UNL     1       7.601  14.427  20.991  0.00  0.00    +0.000 OA
ATOM     13  C   UNL     1       8.179  13.737  21.843  0.00  0.00    +0.000 C 
ATOM     14  N   UNL     1       7.501  13.265  22.948  0.00  0.00    +0.000 N 
ATOM     15  C   UNL     1       6.059  13.384  23.050  0.00  0.00    +0.000 C 
ATOM     16  C   UNL     1       5.807  13.438  24.544  0.00  0.00    +0.000 C 
ATOM     17  C   UNL     1       6.876  12.510  25.107  0.00  0.00    +0.000 C 
ATOM     18  C   UNL     1       8.060  12.670  24.152  0.00  0.00    +0.000 C 
ENDBRANCH   1  13
BRANCH   8  19
ATOM     19  N   UNL     1       9.001   9.313  18.747  0.00  0.00    +0.000 N 
ATOM     20  H   UNL     1       8.530   9.020  19.605  0.00  0.00    +0.000 HD
BRANCH  19  21
ATOM     21  C   UNL     1       8.091   8.986  17.645  0.00  0.00    +0.000 C 
BRANCH  21  22
ATOM     22  C   UNL     1       7.485   7.623  17.891  0.00  0.00    +0.000 A 
ATOM     23  C   UNL     1       8.109   6.691  18.737  0.00  0.00    +0.000 A 
ATOM     24  C   UNL     1       7.555   5.421  18.918  0.00  0.00    +0.000 A 
ATOM     25  C   UNL     1       6.381   5.082  18.254  0.00  0.00    +0.000 A 
ATOM     26  F   UNL     1       5.856   3.862  18.423  0.00  0.00    +0.000 F 
ATOM     27  C   UNL     1       5.751   5.988  17.409  0.00  0.00    +0.000 A 
ATOM     28  C   UNL     1       6.302   7.257  17.228  0.00  0.00    +0.000 A 
ENDBRANCH  21  22
ENDBRANCH  19  21
ENDBRANCH   8  19
TORSDOF 4
ENDMDL
MODEL 7
REMARK VINA RESULT:      -7.2      4.508      8.743
REMARK  Name = 
REMARK  4 active torsions:
REMARK  status: ('A' for Active; 'I' for Inactive)
REMARK    1  A    between atoms: C_2  and  C_3
REMARK    2  A    between atoms: C_10  and  N_11
REMARK    3  A    between atoms: N_11  and  C_12
REMARK    4  A    between atoms: C_12  and  C_13
REMARK                            x       y       z     vdW  Elec       q    Type
REMARK                         _______ _______ _______ _____ _____    ______ ____
ROOT
ATOM      1  C   UNL     1       0.766  12.978  19.964  0.00  0.00    +0.000 C 
ATOM      2  C   UNL     1      -0.254  13.422  21.021  0.00  0.00    +0.000 C 
ATOM      3  C   UNL     1      -0.411  12.246  21.991  0.00  0.00    +0.000 C 
ATOM      4  C   UNL     1       0.200  11.083  21.262  0.00  0.00    +0.000 A 
ATOM      5  C   UNL     1       0.221   9.795  21.610  0.00  0.00    +0.000 A 
ATOM      6 CL   UNL     1      -0.497   9.212  23.057  0.00  0.00    +0.000 Cl
ATOM      7  C   UNL     1       0.889   8.843  20.746  0.00  0.00    +0.000 A 
ATOM      8  C   UNL     1       1.460   9.202  19.583  0.00  0.00    +0.000 A 
ATOM      9  C   UNL     1       1.417  10.681  19.185  0.00  0.00    +0.000 A 
ATOM     10  O   UNL     1       1.914  11.057  18.126  0.00  0.00    +0.000 OA
ATOM     11  N   UNL     1       0.797  11.517  20.095  0.00  0.00    +0.000 N 
ENDROOT
BRANCH   1  13
ATOM     12  O   UNL     1       2.697  13.275  21.390  0.00  0.00    +0.000 OA
ATOM     13  C   UNL     1       2.169  13.515  20.294  0.00  0.00    +0.000 C 
ATOM     14  N   UNL     1       2.844  14.234  19.328  0.00  0.00    +0.000 N 
ATOM     15  C   UNL     1       4.250  14.554  19.477  0.00  0.00    +0.000 C 
ATOM     16  C   UNL     1       4.414  15.837  18.686  0.00  0.00    +0.000 C 
ATOM     17  C   UNL     1       3.445  15.649  17.524  0.00  0.00    +0.000 C 
ATOM     18  C   UNL     1       2.303  14.819  18.111  0.00  0.00    +0.000 C 
ENDBRANCH   1  13
BRANCH   8  19
ATOM     19  N   UNL     1       2.062   8.289  18.712  0.00  0.00    +0.000 N 
ATOM     20  H   UNL     1       2.938   8.708  18.394  0.00  0.00    +0.000 HD
BRANCH  19  21
ATOM     21  C   UNL     1       2.395   6.943  19.187  0.00  0.00    +0.000 C 
BRANCH  21  22
ATOM     22  C   UNL     1       3.277   6.262  18.164  0.00  0.00    +0.000 A 
ATOM     23  C   UNL     1       3.300   4.863  18.039  0.00  0.00    +0.000 A 
ATOM     24  C   UNL     1       4.153   4.252  17.116  0.00  0.00    +0.000 A 
ATOM     25  C   UNL     1       4.984   5.035  16.323  0.00  0.00    +0.000 A 
ATOM     26  F   UNL     1       5.806   4.447  15.445  0.00  0.00    +0.000 F 
ATOM     27  C   UNL     1       4.980   6.421  16.435  0.00  0.00    +0.000 A 
ATOM     28  C   UNL     1       4.127   7.034  17.354  0.00  0.00    +0.000 A 
ENDBRANCH  21  22
ENDBRANCH  19  21
ENDBRANCH   8  19
TORSDOF 4
ENDMDL
MODEL 8
REMARK VINA RESULT:      -7.2      1.773      2.084
REMARK  Name = 
REMARK  4 active torsions:
REMARK  status: ('A' for Active; 'I' for Inactive)
REMARK    1  A    between atoms: C_2  and  C_3
REMARK    2  A    between atoms: C_10  and  N_11
REMARK    3  A    between atoms: N_11  and  C_12
REMARK    4  A    between atoms: C_12  and  C_13
REMARK                            x       y       z     vdW  Elec       q    Type
REMARK                         _______ _______ _______ _____ _____    ______ ____
ROOT
ATOM      1  C   UNL     1       5.374   4.759  17.751  0.00  0.00    +0.000 C 
ATOM      2  C   UNL     1       5.480   3.698  18.854  0.00  0.00    +0.000 C 
ATOM      3  C   UNL     1       4.186   3.793  19.670  0.00  0.00    +0.000 C 
ATOM      4  C   UNL     1       3.589   5.109  19.263  0.00  0.00    +0.000 A 
ATOM      5  C   UNL     1       2.519   5.733  19.761  0.00  0.00    +0.000 A 
ATOM      6 CL   UNL     1       1.577   5.081  21.041  0.00  0.00    +0.000 Cl
ATOM      7  C   UNL     1       2.117   7.003  19.193  0.00  0.00    +0.000 A 
ATOM      8  C   UNL     1       2.805   7.601  18.205  0.00  0.00    +0.000 A 
ATOM      9  C   UNL     1       4.041   6.885  17.652  0.00  0.00    +0.000 A 
ATOM     10  O   UNL     1       4.710   7.397  16.756  0.00  0.00    +0.000 OA
ATOM     11  N   UNL     1       4.317   5.659  18.226  0.00  0.00    +0.000 N 
ENDROOT
BRANCH   1  13
ATOM     12  O   UNL     1       3.874   3.443  16.383  0.00  0.00    +0.000 OA
ATOM     13  C   UNL     1       4.904   4.131  16.427  0.00  0.00    +0.000 C 
ATOM     14  N   UNL     1       5.631   4.387  15.282  0.00  0.00    +0.000 N 
ATOM     15  C   UNL     1       5.116   4.038  13.972  0.00  0.00    +0.000 C 
ATOM     16  C   UNL     1       6.363   3.804  13.144  0.00  0.00    +0.000 C 
ATOM     17  C   UNL     1       7.343   4.830  13.702  0.00  0.00    +0.000 C 
ATOM     18  C   UNL     1       6.971   4.945  15.181  0.00  0.00    +0.000 C 
ENDBRANCH   1  13
BRANCH   8  19
ATOM     19  N   UNL     1       2.462   8.852  17.683  0.00  0.00    +0.000 N 
ATOM     20  H   UNL     1       2.653   8.823  16.680  0.00  0.00    +0.000 HD
BRANCH  19  21
ATOM     21  C   UNL     1       1.092   9.351  17.829  0.00  0.00    +0.000 C 
BRANCH  21  22
ATOM     22  C   UNL     1       1.069  10.436  18.883  0.00  0.00    +0.000 A 
ATOM     23  C   UNL     1       0.391  10.256  20.099  0.00  0.00    +0.000 A 
ATOM     24  C   UNL     1       0.346  11.286  21.042  0.00  0.00    +0.000 A 
ATOM     25  C   UNL     1       0.975  12.496  20.768  0.00  0.00    +0.000 A 
ATOM     26  F   UNL     1       0.925  13.485  21.669  0.00  0.00    +0.000 F 
ATOM     27  C   UNL     1       1.648  12.696  19.568  0.00  0.00    +0.000 A 
ATOM     28  C   UNL     1       1.695  11.668  18.626  0.00  0.00    +0.000 A 
ENDBRANCH  21  22
ENDBRANCH  19  21
ENDBRANCH   8  19
TORSDOF 4
ENDMDL
MODEL 9
REMARK VINA RESULT:      -7.2      1.469      1.600
REMARK  Name = 
REMARK  4 active torsions:
REMARK  status: ('A' for Active; 'I' for Inactive)
REMARK    1  A    between atoms: C_2  and  C_3
REMARK    2  A    between atoms: C_10  and  N_11
REMARK    3  A    between atoms: N_11  and  C_12
REMARK    4  A    between atoms: C_12  and  C_13
REMARK                            x       y       z     vdW  Elec       q    Type
REMARK                         _______ _______ _______ _____ _____    ______ ____
ROOT
ATOM      1  C   UNL     1       5.026   4.125  18.423  0.00  0.00    +0.000 C 
ATOM      2  C   UNL     1       5.134   2.787  19.165  0.00  0.00    +0.000 C 
ATOM      3  C   UNL     1       3.819   2.610  19.932  0.00  0.00    +0.000 C 
ATOM      4  C   UNL     1       3.196   3.977  19.917  0.00  0.00    +0.000 A 
ATOM      5  C   UNL     1       2.099   4.404  20.545  0.00  0.00    +0.000 A 
ATOM      6 CL   UNL     1       1.145   3.385  21.545  0.00  0.00    +0.000 Cl
ATOM      7  C   UNL     1       1.677   5.779  20.368  0.00  0.00    +0.000 A 
ATOM      8  C   UNL     1       2.372   6.656  19.622  0.00  0.00    +0.000 A 
ATOM      9  C   UNL     1       3.639   6.160  18.919  0.00  0.00    +0.000 A 
ATOM     10  O   UNL     1       4.315   6.927  18.236  0.00  0.00    +0.000 OA
ATOM     11  N   UNL     1       3.934   4.823  19.112  0.00  0.00    +0.000 N 
ENDROOT
BRANCH   1  13
ATOM     12  O   UNL     1       3.491   3.438  16.684  0.00  0.00    +0.000 OA
ATOM     13  C   UNL     1       4.604   3.911  16.959  0.00  0.00    +0.000 C 
ATOM     14  N   UNL     1       5.474   4.296  15.960  0.00  0.00    +0.000 N 
ATOM     15  C   UNL     1       5.048   4.352  14.575  0.00  0.00    +0.000 C 
ATOM     16  C   UNL     1       6.324   4.106  13.794  0.00  0.00    +0.000 C 
ATOM     17  C   UNL     1       7.385   4.791  14.647  0.00  0.00    +0.000 C 
ATOM     18  C   UNL     1       6.886   4.623  16.083  0.00  0.00    +0.000 C 
ENDBRANCH   1  13
BRANCH   8  19
ATOM     19  N   UNL     1       2.008   7.999  19.485  0.00  0.00    +0.000 N 
ATOM     20  H   UNL     1       2.766   8.559  19.880  0.00  0.00    +0.000 HD
BRANCH  19  21
ATOM     21  C   UNL     1       1.741   8.548  18.153  0.00  0.00    +0.000 C 
BRANCH  21  22
ATOM     22  C   UNL     1       1.065   9.893  18.298  0.00  0.00    +0.000 A 
ATOM     23  C   UNL     1       1.813  11.067  18.487  0.00  0.00    +0.000 A 
ATOM     24  C   UNL     1       1.168  12.294  18.661  0.00  0.00    +0.000 A 
ATOM     25  C   UNL     1      -0.222  12.348  18.651  0.00  0.00    +0.000 A 
ATOM     26  F   UNL     1      -0.838  13.523  18.826  0.00  0.00    +0.000 F 
ATOM     27  C   UNL     1      -0.980  11.197  18.471  0.00  0.00    +0.000 A 
ATOM     28  C   UNL     1      -0.338   9.971  18.295  0.00  0.00    +0.000 A 
ENDBRANCH  21  22
ENDBRANCH  19  21
ENDBRANCH   8  19
TORSDOF 4
ENDMDL
