MODEL 1
REMARK VINA RESULT:      -8.1      0.000      0.000
REMARK  Name = 
REMARK  9 active torsions:
REMARK  status: ('A' for Active; 'I' for Inactive)
REMARK    1  A    between atoms: C_1  and  O_2
REMARK    2  A    between atoms: O_2  and  C_3
REMARK    3  A    between atoms: C_6  and  N_7
REMARK    4  A    between atoms: C_9  and  C_10
REMARK    5  A    between atoms: C_10  and  O_12
REMARK    6  A    between atoms: O_12  and  C_13
REMARK    7  A    between atoms: C_13  and  C_14
REMARK    8  A    between atoms: N_16  and  C_17
REMARK    9  A    between atoms: C_21  and  C_22
REMARK                            x       y       z     vdW  Elec       q    Type
REMARK                         _______ _______ _______ _____ _____    ______ ____
ROOT
ATOM      1  C   UNL     1       4.542   3.338  19.249  0.00  0.00    +0.000 C 
ATOM      2  O   UNL     1       5.336   2.456  19.556  0.00  0.00    +0.000 OA
ENDROOT
BRANCH   1   5
ATOM      3  N   UNL     1       2.183   5.477  19.162  0.00  0.00    +0.000 N 
ATOM      4  C   UNL     1       2.875   4.881  20.285  0.00  0.00    +0.000 C 
ATOM      5  C   UNL     1       3.160   3.456  19.853  0.00  0.00    +0.000 C 
ATOM      6  C   UNL     1       2.049   3.135  18.878  0.00  0.00    +0.000 C 
ATOM      7  C   UNL     1       1.664   4.483  18.317  0.00  0.00    +0.000 C 
ATOM      8  O   UNL     1       0.985   4.593  17.309  0.00  0.00    +0.000 OA
BRANCH   3  12
ATOM      9  C   UNL     1       1.682   9.697  18.798  0.00  0.00    +0.000 A 
ATOM     10  C   UNL     1       1.372   9.048  19.987  0.00  0.00    +0.000 A 
ATOM     11  C   UNL     1       1.523   7.660  20.104  0.00  0.00    +0.000 A 
ATOM     12  C   UNL     1       1.983   6.883  19.035  0.00  0.00    +0.000 A 
ATOM     13  C   UNL     1       2.248   7.550  17.827  0.00  0.00    +0.000 A 
ATOM     14  C   UNL     1       2.096   8.941  17.707  0.00  0.00    +0.000 A 
BRANCH   9  16
ATOM     15  C   UNL     1       0.525  11.537  19.710  0.00  0.00    +0.000 C 
ATOM     16  O   UNL     1       1.511  11.053  18.806  0.00  0.00    +0.000 OA
ENDBRANCH   9  16
ENDBRANCH   3  12
ENDBRANCH   1   5
BRANCH   1  17
ATOM     17  O   UNL     1       4.833   4.368  18.409  0.00  0.00    +0.000 OA
BRANCH  17  18
ATOM     18  C   UNL     1       6.192   4.820  18.500  0.00  0.00    +0.000 C 
BRANCH  18  19
ATOM     19  C   UNL     1       6.900   4.631  17.153  0.00  0.00    +0.000 C 
ATOM     20  O   UNL     1       8.059   4.224  17.109  0.00  0.00    +0.000 OA
ATOM     21  N   UNL     1       6.134   4.960  16.049  0.00  0.00    +0.000 N 
ATOM     22  H   UNL     1       5.291   5.498  16.200  0.00  0.00    +0.000 HD
BRANCH  21  23
ATOM     23  C   UNL     1       6.517   4.739  14.706  0.00  0.00    +0.000 A 
ATOM     24  C   UNL     1       7.577   5.415  14.094  0.00  0.00    +0.000 A 
ATOM     25  C   UNL     1       7.899   5.181  12.758  0.00  0.00    +0.000 A 
ATOM     26  C   UNL     1       7.159   4.268  12.014  0.00  0.00    +0.000 A 
ATOM     27  C   UNL     1       6.108   3.563  12.609  0.00  0.00    +0.000 A 
ATOM     28  C   UNL     1       5.284   2.601  11.806  0.00  0.00    +0.000 C 
ATOM     29  C   UNL     1       5.805   3.791  13.963  0.00  0.00    +0.000 A 
ENDBRANCH  21  23
ENDBRANCH  18  19
ENDBRANCH  17  18
ENDBRANCH   1  17
TORSDOF 7
ENDMDL
MODEL 2
REMARK VINA RESULT:      -8.0      4.503      6.115
REMARK  Name = 
REMARK  9 active torsions:
REMARK  status: ('A' for Active; 'I' for Inactive)
REMARK    1  A    between atoms: C_1  and  O_2
REMARK    2  A    between atoms: O_2  and  C_3
REMARK    3  A    between atoms: C_6  and  N_7
REMARK    4  A    between atoms: C_9  and  C_10
REMARK    5  A    between atoms: C_10  and  O_12
REMARK    6  A    between atoms: O_12  and  C_13
REMARK    7  A    between atoms: C_13  and  C_14
REMARK    8  A    between atoms: N_16  and  C_17
REMARK    9  A    between atoms: C_21  and  C_22
REMARK                            x       y       z     vdW  Elec       q    Type
REMARK                         _______ _______ _______ _____ _____    ______ ____
ROOT
ATOM      1  C   UNL     1       7.642   4.812  17.288  0.00  0.00    +0.000 C 
ATOM      2  O   UNL     1       8.410   4.072  17.892  0.00  0.00    +0.000 OA
ENDROOT
BRANCH   1   5
ATOM      3  N   UNL     1       4.647   5.873  17.073  0.00  0.00    +0.000 N 
ATOM      4  C   UNL     1       5.167   4.604  17.535  0.00  0.00    +0.000 C 
ATOM      5  C   UNL     1       6.362   4.328  16.643  0.00  0.00    +0.000 C 
ATOM      6  C   UNL     1       6.033   5.040  15.350  0.00  0.00    +0.000 C 
ATOM      7  C   UNL     1       5.118   6.160  15.782  0.00  0.00    +0.000 C 
ATOM      8  O   UNL     1       4.862   7.104  15.051  0.00  0.00    +0.000 OA
BRANCH   3  12
ATOM      9  C   UNL     1       1.887   8.211  19.334  0.00  0.00    +0.000 A 
ATOM     10  C   UNL     1       2.292   6.961  19.786  0.00  0.00    +0.000 A 
ATOM     11  C   UNL     1       3.188   6.186  19.038  0.00  0.00    +0.000 A 
ATOM     12  C   UNL     1       3.699   6.637  17.816  0.00  0.00    +0.000 A 
ATOM     13  C   UNL     1       3.244   7.882  17.353  0.00  0.00    +0.000 A 
ATOM     14  C   UNL     1       2.345   8.661  18.100  0.00  0.00    +0.000 A 
BRANCH   9  16
ATOM     15  C   UNL     1       0.760   8.256  21.404  0.00  0.00    +0.000 C 
ATOM     16  O   UNL     1       1.025   8.883  20.154  0.00  0.00    +0.000 OA
ENDBRANCH   9  16
ENDBRANCH   3  12
ENDBRANCH   1   5
BRANCH   1  17
ATOM     17  O   UNL     1       7.790   6.161  17.204  0.00  0.00    +0.000 OA
BRANCH  17  18
ATOM     18  C   UNL     1       7.879   6.813  18.478  0.00  0.00    +0.000 C 
BRANCH  18  19
ATOM     19  C   UNL     1       8.196   8.301  18.287  0.00  0.00    +0.000 C 
ATOM     20  O   UNL     1       7.721   8.923  17.339  0.00  0.00    +0.000 OA
ATOM     21  N   UNL     1       9.038   8.838  19.245  0.00  0.00    +0.000 N 
ATOM     22  H   UNL     1       9.551   8.198  19.837  0.00  0.00    +0.000 HD
BRANCH  21  23
ATOM     23  C   UNL     1       9.359  10.210  19.359  0.00  0.00    +0.000 A 
ATOM     24  C   UNL     1       9.208  10.932  20.547  0.00  0.00    +0.000 A 
ATOM     25  C   UNL     1       9.513  12.291  20.602  0.00  0.00    +0.000 A 
ATOM     26  C   UNL     1       9.971  12.948  19.464  0.00  0.00    +0.000 A 
ATOM     27  C   UNL     1      10.151  12.243  18.269  0.00  0.00    +0.000 A 
ATOM     28  C   UNL     1      10.614  12.949  17.030  0.00  0.00    +0.000 C 
ATOM     29  C   UNL     1       9.861  10.867  18.230  0.00  0.00    +0.000 A 
ENDBRANCH  21  23
ENDBRANCH  18  19
ENDBRANCH  17  18
ENDBRANCH   1  17
TORSDOF 7
ENDMDL
MODEL 3
REMARK VINA RESULT:      -7.9      1.159      1.237
REMARK  Name = 
REMARK  9 active torsions:
REMARK  status: ('A' for Active; 'I' for Inactive)
REMARK    1  A    between atoms: C_1  and  O_2
REMARK    2  A    between atoms: O_2  and  C_3
REMARK    3  A    between atoms: C_6  and  N_7
REMARK    4  A    between atoms: C_9  and  C_10
REMARK    5  A    between atoms: C_10  and  O_12
REMARK    6  A    between atoms: O_12  and  C_13
REMARK    7  A    between atoms: C_13  and  C_14
REMARK    8  A    between atoms: N_16  and  C_17
REMARK    9  A    between atoms: C_21  and  C_22
REMARK                            x       y       z     vdW  Elec       q    Type
REMARK                         _______ _______ _______ _____ _____    ______ ____
ROOT
ATOM      1  C   UNL     1       4.218   2.420  20.119  0.00  0.00    +0.000 C 
ATOM      2  O   UNL     1       5.049   1.992  20.912  0.00  0.00    +0.000 OA
ENDROOT
BRANCH   1   5
ATOM      3  N   UNL     1       1.965   4.641  19.756  0.00  0.00    +0.000 N 
ATOM      4  C   UNL     1       2.407   3.931  20.937  0.00  0.00    +0.000 C 
ATOM      5  C   UNL     1       2.745   2.537  20.446  0.00  0.00    +0.000 C 
ATOM      6  C   UNL     1       1.846   2.337  19.247  0.00  0.00    +0.000 C 
ATOM      7  C   UNL     1       1.607   3.740  18.742  0.00  0.00    +0.000 C 
ATOM      8  O   UNL     1       1.145   3.957  17.633  0.00  0.00    +0.000 OA
BRANCH   3  12
ATOM      9  C   UNL     1       1.631   8.893  19.660  0.00  0.00    +0.000 A 
ATOM     10  C   UNL     1       1.213   8.175  20.774  0.00  0.00    +0.000 A 
ATOM     11  C   UNL     1       1.310   6.778  20.802  0.00  0.00    +0.000 A 
ATOM     12  C   UNL     1       1.821   6.060  19.716  0.00  0.00    +0.000 A 
ATOM     13  C   UNL     1       2.195   6.797  18.580  0.00  0.00    +0.000 A 
ATOM     14  C   UNL     1       2.098   8.198  18.549  0.00  0.00    +0.000 A 
BRANCH   9  16
ATOM     15  C   UNL     1       0.827  10.874  18.667  0.00  0.00    +0.000 C 
ATOM     16  O   UNL     1       1.505  10.250  19.752  0.00  0.00    +0.000 OA
ENDBRANCH   9  16
ENDBRANCH   3  12
ENDBRANCH   1   5
BRANCH   1  17
ATOM     17  O   UNL     1       4.522   2.929  18.896  0.00  0.00    +0.000 OA
BRANCH  17  18
ATOM     18  C   UNL     1       5.295   4.136  18.948  0.00  0.00    +0.000 C 
BRANCH  18  19
ATOM     19  C   UNL     1       5.507   4.687  17.533  0.00  0.00    +0.000 C 
ATOM     20  O   UNL     1       5.347   5.883  17.298  0.00  0.00    +0.000 OA
ATOM     21  N   UNL     1       5.872   3.737  16.595  0.00  0.00    +0.000 N 
ATOM     22  H   UNL     1       5.751   2.762  16.835  0.00  0.00    +0.000 HD
BRANCH  21  23
ATOM     23  C   UNL     1       6.256   4.024  15.264  0.00  0.00    +0.000 A 
ATOM     24  C   UNL     1       7.331   4.858  14.944  0.00  0.00    +0.000 A 
ATOM     25  C   UNL     1       7.654   5.133  13.616  0.00  0.00    +0.000 A 
ATOM     26  C   UNL     1       6.900   4.574  12.588  0.00  0.00    +0.000 A 
ATOM     27  C   UNL     1       5.834   3.719  12.882  0.00  0.00    +0.000 A 
ATOM     28  C   UNL     1       4.997   3.139  11.782  0.00  0.00    +0.000 C 
ATOM     29  C   UNL     1       5.530   3.432  14.225  0.00  0.00    +0.000 A 
ENDBRANCH  21  23
ENDBRANCH  18  19
ENDBRANCH  17  18
ENDBRANCH   1  17
TORSDOF 7
ENDMDL
MODEL 4
REMARK VINA RESULT:      -7.9      1.979      7.732
REMARK  Name = 
REMARK  9 active torsions:
REMARK  status: ('A' for Active; 'I' for Inactive)
REMARK    1  A    between atoms: C_1  and  O_2
REMARK    2  A    between atoms: O_2  and  C_3
REMARK    3  A    between atoms: C_6  and  N_7
REMARK    4  A    between atoms: C_9  and  C_10
REMARK    5  A    between atoms: C_10  and  O_12
REMARK    6  A    between atoms: O_12  and  C_13
REMARK    7  A    between atoms: C_13  and  C_14
REMARK    8  A    between atoms: N_16  and  C_17
REMARK    9  A    between atoms: C_21  and  C_22
REMARK                            x       y       z     vdW  Elec       q    Type
REMARK                         _______ _______ _______ _____ _____    ______ ____
ROOT
ATOM      1  C   UNL     1       1.535   4.771  19.565  0.00  0.00    +0.000 C 
ATOM      2  O   UNL     1       0.916   4.820  20.622  0.00  0.00    +0.000 OA
ENDROOT
BRANCH   1   5
ATOM      3  N   UNL     1       4.030   3.707  17.897  0.00  0.00    +0.000 N 
ATOM      4  C   UNL     1       2.621   3.736  17.570  0.00  0.00    +0.000 C 
ATOM      5  C   UNL     1       1.913   3.474  18.885  0.00  0.00    +0.000 C 
ATOM      6  C   UNL     1       2.898   2.645  19.678  0.00  0.00    +0.000 C 
ATOM      7  C   UNL     1       4.241   3.056  19.122  0.00  0.00    +0.000 C 
ATOM      8  O   UNL     1       5.285   2.796  19.698  0.00  0.00    +0.000 OA
BRANCH   3  12
ATOM      9  C   UNL     1       6.981   5.193  15.198  0.00  0.00    +0.000 A 
ATOM     10  C   UNL     1       6.377   3.961  14.978  0.00  0.00    +0.000 A 
ATOM     11  C   UNL     1       5.417   3.466  15.870  0.00  0.00    +0.000 A 
ATOM     12  C   UNL     1       5.040   4.185  17.010  0.00  0.00    +0.000 A 
ATOM     13  C   UNL     1       5.694   5.406  17.241  0.00  0.00    +0.000 A 
ATOM     14  C   UNL     1       6.657   5.905  16.349  0.00  0.00    +0.000 A 
BRANCH   9  16
ATOM     15  C   UNL     1       7.616   5.140  12.928  0.00  0.00    +0.000 C 
ATOM     16  O   UNL     1       7.889   5.582  14.254  0.00  0.00    +0.000 OA
ENDBRANCH   9  16
ENDBRANCH   3  12
ENDBRANCH   1   5
BRANCH   1  17
ATOM     17  O   UNL     1       1.871   5.863  18.828  0.00  0.00    +0.000 OA
BRANCH  17  18
ATOM     18  C   UNL     1       2.610   6.850  19.561  0.00  0.00    +0.000 C 
BRANCH  18  19
ATOM     19  C   UNL     1       1.754   8.107  19.760  0.00  0.00    +0.000 C 
ATOM     20  O   UNL     1       1.383   8.438  20.884  0.00  0.00    +0.000 OA
ATOM     21  N   UNL     1       1.454   8.789  18.594  0.00  0.00    +0.000 N 
ATOM     22  H   UNL     1       1.607   8.314  17.714  0.00  0.00    +0.000 HD
BRANCH  21  23
ATOM     23  C   UNL     1       0.802  10.042  18.537  0.00  0.00    +0.000 A 
ATOM     24  C   UNL     1       1.462  11.255  18.760  0.00  0.00    +0.000 A 
ATOM     25  C   UNL     1       0.770  12.464  18.720  0.00  0.00    +0.000 A 
ATOM     26  C   UNL     1      -0.597  12.475  18.459  0.00  0.00    +0.000 A 
ATOM     27  C   UNL     1      -1.275  11.277  18.212  0.00  0.00    +0.000 A 
ATOM     28  C   UNL     1      -2.754  11.276  17.962  0.00  0.00    +0.000 C 
ATOM     29  C   UNL     1      -0.563  10.064  18.234  0.00  0.00    +0.000 A 
ENDBRANCH  21  23
ENDBRANCH  18  19
ENDBRANCH  17  18
ENDBRANCH   1  17
TORSDOF 7
ENDMDL
MODEL 5
REMARK VINA RESULT:      -7.8      4.275      5.613
REMARK  Name = 
REMARK  9 active torsions:
REMARK  status: ('A' for Active; 'I' for Inactive)
REMARK    1  A    between atoms: C_1  and  O_2
REMARK    2  A    between atoms: O_2  and  C_3
REMARK    3  A    between atoms: C_6  and  N_7
REMARK    4  A    between atoms: C_9  and  C_10
REMARK    5  A    between atoms: C_10  and  O_12
REMARK    6  A    between atoms: O_12  and  C_13
REMARK    7  A    between atoms: C_13  and  C_14
REMARK    8  A    between atoms: N_16  and  C_17
REMARK    9  A    between atoms: C_21  and  C_22
REMARK                            x       y       z     vdW  Elec       q    Type
REMARK                         _______ _______ _______ _____ _____    ______ ____
ROOT
ATOM      1  C   UNL     1       6.515   5.170  17.648  0.00  0.00    +0.000 C 
ATOM      2  O   UNL     1       7.421   4.610  17.041  0.00  0.00    +0.000 OA
ENDROOT
BRANCH   1   5
ATOM      3  N   UNL     1       3.612   5.671  18.859  0.00  0.00    +0.000 N 
ATOM      4  C   UNL     1       4.882   5.446  19.515  0.00  0.00    +0.000 C 
ATOM      5  C   UNL     1       5.608   4.456  18.626  0.00  0.00    +0.000 C 
ATOM      6  C   UNL     1       4.499   3.675  17.958  0.00  0.00    +0.000 C 
ATOM      7  C   UNL     1       3.339   4.640  17.946  0.00  0.00    +0.000 C 
ATOM      8  O   UNL     1       2.353   4.457  17.249  0.00  0.00    +0.000 OA
BRANCH   3  12
ATOM      9  C   UNL     1       1.084   8.936  19.928  0.00  0.00    +0.000 A 
ATOM     10  C   UNL     1       1.273   7.872  20.802  0.00  0.00    +0.000 A 
ATOM     11  C   UNL     1       2.093   6.793  20.447  0.00  0.00    +0.000 A 
ATOM     12  C   UNL     1       2.740   6.744  19.207  0.00  0.00    +0.000 A 
ATOM     13  C   UNL     1       2.501   7.805  18.318  0.00  0.00    +0.000 A 
ATOM     14  C   UNL     1       1.679   8.888  18.671  0.00  0.00    +0.000 A 
BRANCH   9  16
ATOM     15  C   UNL     1       0.334  11.153  19.646  0.00  0.00    +0.000 C 
ATOM     16  O   UNL     1       0.278   9.939  20.387  0.00  0.00    +0.000 OA
ENDBRANCH   9  16
ENDBRANCH   3  12
ENDBRANCH   1   5
BRANCH   1  17
ATOM     17  O   UNL     1       6.273   6.507  17.593  0.00  0.00    +0.000 OA
BRANCH  17  18
ATOM     18  C   UNL     1       7.319   7.258  16.960  0.00  0.00    +0.000 C 
BRANCH  18  19
ATOM     19  C   UNL     1       8.139   8.009  18.015  0.00  0.00    +0.000 C 
ATOM     20  O   UNL     1       8.612   7.412  18.980  0.00  0.00    +0.000 OA
ATOM     21  N   UNL     1       8.275   9.366  17.780  0.00  0.00    +0.000 N 
ATOM     22  H   UNL     1       7.663   9.792  17.097  0.00  0.00    +0.000 HD
BRANCH  21  23
ATOM     23  C   UNL     1       9.097  10.237  18.531  0.00  0.00    +0.000 A 
ATOM     24  C   UNL     1       9.007  10.361  19.920  0.00  0.00    +0.000 A 
ATOM     25  C   UNL     1       9.822  11.255  20.614  0.00  0.00    +0.000 A 
ATOM     26  C   UNL     1      10.739  12.041  19.921  0.00  0.00    +0.000 A 
ATOM     27  C   UNL     1      10.863  11.919  18.534  0.00  0.00    +0.000 A 
ATOM     28  C   UNL     1      11.825  12.784  17.776  0.00  0.00    +0.000 C 
ATOM     29  C   UNL     1      10.051  10.999  17.847  0.00  0.00    +0.000 A 
ENDBRANCH  21  23
ENDBRANCH  18  19
ENDBRANCH  17  18
ENDBRANCH   1  17
TORSDOF 7
ENDMDL
MODEL 6
REMARK VINA RESULT:      -7.7      5.747      7.987
REMARK  Name = 
REMARK  9 active torsions:
REMARK  status: ('A' for Active; 'I' for Inactive)
REMARK    1  A    between atoms: C_1  and  O_2
REMARK    2  A    between atoms: O_2  and  C_3
REMARK    3  A    between atoms: C_6  and  N_7
REMARK    4  A    between atoms: C_9  and  C_10
REMARK    5  A    between atoms: C_10  and  O_12
REMARK    6  A    between atoms: O_12  and  C_13
REMARK    7  A    between atoms: C_13  and  C_14
REMARK    8  A    between atoms: N_16  and  C_17
REMARK    9  A    between atoms: C_21  and  C_22
REMARK                            x       y       z     vdW  Elec       q    Type
REMARK                         _______ _______ _______ _____ _____    ______ ____
ROOT
ATOM      1  C   UNL     1       7.262   7.227  17.457  0.00  0.00    +0.000 C 
ATOM      2  O   UNL     1       6.378   7.594  16.691  0.00  0.00    +0.000 OA
ENDROOT
BRANCH   1   5
ATOM      3  N   UNL     1       5.671   4.562  18.171  0.00  0.00    +0.000 N 
ATOM      4  C   UNL     1       6.814   5.178  18.810  0.00  0.00    +0.000 C 
ATOM      5  C   UNL     1       7.620   5.773  17.673  0.00  0.00    +0.000 C 
ATOM      6  C   UNL     1       7.296   4.892  16.487  0.00  0.00    +0.000 C 
ATOM      7  C   UNL     1       5.920   4.358  16.805  0.00  0.00    +0.000 C 
ATOM      8  O   UNL     1       5.222   3.825  15.956  0.00  0.00    +0.000 OA
BRANCH   3  12
ATOM      9  C   UNL     1       2.198   3.222  20.254  0.00  0.00    +0.000 A 
ATOM     10  C   UNL     1       2.189   4.430  19.567  0.00  0.00    +0.000 A 
ATOM     11  C   UNL     1       3.333   4.878  18.893  0.00  0.00    +0.000 A 
ATOM     12  C   UNL     1       4.518   4.134  18.893  0.00  0.00    +0.000 A 
ATOM     13  C   UNL     1       4.523   2.939  19.632  0.00  0.00    +0.000 A 
ATOM     14  C   UNL     1       3.378   2.488  20.309  0.00  0.00    +0.000 A 
BRANCH   9  16
ATOM     15  C   UNL     1       1.131   2.480  22.221  0.00  0.00    +0.000 C 
ATOM     16  O   UNL     1       1.022   2.880  20.859  0.00  0.00    +0.000 OA
ENDBRANCH   9  16
ENDBRANCH   3  12
ENDBRANCH   1   5
BRANCH   1  17
ATOM     17  O   UNL     1       8.088   8.072  18.130  0.00  0.00    +0.000 OA
BRANCH  17  18
ATOM     18  C   UNL     1       8.002   9.435  17.689  0.00  0.00    +0.000 C 
BRANCH  18  19
ATOM     19  C   UNL     1       8.956  10.313  18.508  0.00  0.00    +0.000 C 
ATOM     20  O   UNL     1       9.435   9.900  19.562  0.00  0.00    +0.000 OA
ATOM     21  N   UNL     1       9.198  11.562  17.964  0.00  0.00    +0.000 N 
ATOM     22  H   UNL     1       8.583  11.887  17.229  0.00  0.00    +0.000 HD
BRANCH  21  23
ATOM     23  C   UNL     1      10.144  12.488  18.459  0.00  0.00    +0.000 A 
ATOM     24  C   UNL     1      11.403  12.676  17.881  0.00  0.00    +0.000 A 
ATOM     25  C   UNL     1      12.313  13.582  18.423  0.00  0.00    +0.000 A 
ATOM     26  C   UNL     1      11.973  14.313  19.558  0.00  0.00    +0.000 A 
ATOM     27  C   UNL     1      10.712  14.159  20.142  0.00  0.00    +0.000 A 
ATOM     28  C   UNL     1      10.350  14.919  21.384  0.00  0.00    +0.000 C 
ATOM     29  C   UNL     1       9.794  13.257  19.575  0.00  0.00    +0.000 A 
ENDBRANCH  21  23
ENDBRANCH  18  19
ENDBRANCH  17  18
ENDBRANCH   1  17
TORSDOF 7
ENDMDL
MODEL 7
REMARK VINA RESULT:      -7.5      2.580      8.471
REMARK  Name = 
REMARK  9 active torsions:
REMARK  status: ('A' for Active; 'I' for Inactive)
REMARK    1  A    between atoms: C_1  and  O_2
REMARK    2  A    between atoms: O_2  and  C_3
REMARK    3  A    between atoms: C_6  and  N_7
REMARK    4  A    between atoms: C_9  and  C_10
REMARK    5  A    between atoms: C_10  and  O_12
REMARK    6  A    between atoms: O_12  and  C_13
REMARK    7  A    between atoms: C_13  and  C_14
REMARK    8  A    between atoms: N_16  and  C_17
REMARK    9  A    between atoms: C_21  and  C_22
REMARK                            x       y       z     vdW  Elec       q    Type
REMARK                         _______ _______ _______ _____ _____    ______ ____
ROOT
ATOM      1  C   UNL     1       2.163   6.554  19.659  0.00  0.00    +0.000 C 
ATOM      2  O   UNL     1       2.654   7.494  19.046  0.00  0.00    +0.000 OA
ENDROOT
BRANCH   1   5
ATOM      3  N   UNL     1       4.169   4.795  17.920  0.00  0.00    +0.000 N 
ATOM      4  C   UNL     1       2.757   5.062  17.749  0.00  0.00    +0.000 C 
ATOM      5  C   UNL     1       2.201   5.127  19.158  0.00  0.00    +0.000 C 
ATOM      6  C   UNL     1       3.118   4.233  19.961  0.00  0.00    +0.000 C 
ATOM      7  C   UNL     1       4.424   4.287  19.204  0.00  0.00    +0.000 C 
ATOM      8  O   UNL     1       5.472   3.902  19.696  0.00  0.00    +0.000 OA
BRANCH   3  12
ATOM      9  C   UNL     1       7.051   5.135  14.794  0.00  0.00    +0.000 A 
ATOM     10  C   UNL     1       7.171   5.893  15.953  0.00  0.00    +0.000 A 
ATOM     11  C   UNL     1       6.218   5.792  16.975  0.00  0.00    +0.000 A 
ATOM     12  C   UNL     1       5.117   4.936  16.864  0.00  0.00    +0.000 A 
ATOM     13  C   UNL     1       4.986   4.213  15.667  0.00  0.00    +0.000 A 
ATOM     14  C   UNL     1       5.940   4.312  14.641  0.00  0.00    +0.000 A 
BRANCH   9  16
ATOM     15  C   UNL     1       7.689   5.012  12.528  0.00  0.00    +0.000 C 
ATOM     16  O   UNL     1       8.047   5.303  13.874  0.00  0.00    +0.000 OA
ENDBRANCH   9  16
ENDBRANCH   3  12
ENDBRANCH   1   5
BRANCH   1  17
ATOM     17  O   UNL     1       1.613   6.657  20.899  0.00  0.00    +0.000 OA
BRANCH  17  18
ATOM     18  C   UNL     1       1.597   7.995  21.415  0.00  0.00    +0.000 C 
BRANCH  18  19
ATOM     19  C   UNL     1       0.269   8.678  21.065  0.00  0.00    +0.000 C 
ATOM     20  O   UNL     1      -0.744   8.444  21.721  0.00  0.00    +0.000 OA
ATOM     21  N   UNL     1       0.331   9.534  19.980  0.00  0.00    +0.000 N 
ATOM     22  H   UNL     1       1.140   9.477  19.376  0.00  0.00    +0.000 HD
BRANCH  21  23
ATOM     23  C   UNL     1      -0.722  10.378  19.557  0.00  0.00    +0.000 A 
ATOM     24  C   UNL     1      -1.106  11.527  20.256  0.00  0.00    +0.000 A 
ATOM     25  C   UNL     1      -2.170  12.312  19.813  0.00  0.00    +0.000 A 
ATOM     26  C   UNL     1      -2.867  11.953  18.663  0.00  0.00    +0.000 A 
ATOM     27  C   UNL     1      -2.489  10.821  17.936  0.00  0.00    +0.000 A 
ATOM     28  C   UNL     1      -3.255  10.409  16.714  0.00  0.00    +0.000 C 
ATOM     29  C   UNL     1      -1.401  10.048  18.379  0.00  0.00    +0.000 A 
ENDBRANCH  21  23
ENDBRANCH  18  19
ENDBRANCH  17  18
ENDBRANCH   1  17
TORSDOF 7
ENDMDL
MODEL 8
REMARK VINA RESULT:      -7.5      2.170      7.823
REMARK  Name = 
REMARK  9 active torsions:
REMARK  status: ('A' for Active; 'I' for Inactive)
REMARK    1  A    between atoms: C_1  and  O_2
REMARK    2  A    between atoms: O_2  and  C_3
REMARK    3  A    between atoms: C_6  and  N_7
REMARK    4  A    between atoms: C_9  and  C_10
REMARK    5  A    between atoms: C_10  and  O_12
REMARK    6  A    between atoms: O_12  and  C_13
REMARK    7  A    between atoms: C_13  and  C_14
REMARK    8  A    between atoms: N_16  and  C_17
REMARK    9  A    between atoms: C_21  and  C_22
REMARK                            x       y       z     vdW  Elec       q    Type
REMARK                         _______ _______ _______ _____ _____    ______ ____
ROOT
ATOM      1  C   UNL     1       1.890   4.811  20.461  0.00  0.00    +0.000 C 
ATOM      2  O   UNL     1       2.702   4.192  21.139  0.00  0.00    +0.000 OA
ENDROOT
BRANCH   1   5
ATOM      3  N   UNL     1       3.322   4.071  17.714  0.00  0.00    +0.000 N 
ATOM      4  C   UNL     1       2.266   5.018  18.002  0.00  0.00    +0.000 C 
ATOM      5  C   UNL     1       1.440   4.358  19.090  0.00  0.00    +0.000 C 
ATOM      6  C   UNL     1       1.630   2.877  18.854  0.00  0.00    +0.000 C 
ATOM      7  C   UNL     1       2.980   2.792  18.182  0.00  0.00    +0.000 C 
ATOM      8  O   UNL     1       3.586   1.737  18.082  0.00  0.00    +0.000 OA
BRANCH   3  12
ATOM      9  C   UNL     1       6.732   5.153  15.392  0.00  0.00    +0.000 A 
ATOM     10  C   UNL     1       6.018   3.996  15.104  0.00  0.00    +0.000 A 
ATOM     11  C   UNL     1       4.905   3.632  15.874  0.00  0.00    +0.000 A 
ATOM     12  C   UNL     1       4.480   4.411  16.956  0.00  0.00    +0.000 A 
ATOM     13  C   UNL     1       5.242   5.551  17.261  0.00  0.00    +0.000 A 
ATOM     14  C   UNL     1       6.358   5.918  16.492  0.00  0.00    +0.000 A 
BRANCH   9  16
ATOM     15  C   UNL     1       7.606   5.030  13.206  0.00  0.00    +0.000 C 
ATOM     16  O   UNL     1       7.787   5.415  14.564  0.00  0.00    +0.000 OA
ENDBRANCH   9  16
ENDBRANCH   3  12
ENDBRANCH   1   5
BRANCH   1  17
ATOM     17  O   UNL     1       1.226   5.918  20.889  0.00  0.00    +0.000 OA
BRANCH  17  18
ATOM     18  C   UNL     1       1.975   7.133  20.745  0.00  0.00    +0.000 C 
BRANCH  18  19
ATOM     19  C   UNL     1       1.022   8.317  20.543  0.00  0.00    +0.000 C 
ATOM     20  O   UNL     1       0.119   8.536  21.348  0.00  0.00    +0.000 OA
ATOM     21  N   UNL     1       1.270   9.068  19.408  0.00  0.00    +0.000 N 
ATOM     22  H   UNL     1       1.877   8.673  18.701  0.00  0.00    +0.000 HD
BRANCH  21  23
ATOM     23  C   UNL     1       0.619  10.281  19.084  0.00  0.00    +0.000 A 
ATOM     24  C   UNL     1       1.143  11.536  19.407  0.00  0.00    +0.000 A 
ATOM     25  C   UNL     1       0.450  12.704  19.091  0.00  0.00    +0.000 A 
ATOM     26  C   UNL     1      -0.783  12.628  18.448  0.00  0.00    +0.000 A 
ATOM     27  C   UNL     1      -1.317  11.385  18.096  0.00  0.00    +0.000 A 
ATOM     28  C   UNL     1      -2.659  11.293  17.432  0.00  0.00    +0.000 C 
ATOM     29  C   UNL     1      -0.599  10.215  18.400  0.00  0.00    +0.000 A 
ENDBRANCH  21  23
ENDBRANCH  18  19
ENDBRANCH  17  18
ENDBRANCH   1  17
TORSDOF 7
ENDMDL
MODEL 9
REMARK VINA RESULT:      -7.5      1.984      7.853
REMARK  Name = 
REMARK  9 active torsions:
REMARK  status: ('A' for Active; 'I' for Inactive)
REMARK    1  A    between atoms: C_1  and  O_2
REMARK    2  A    between atoms: O_2  and  C_3
REMARK    3  A    between atoms: C_6  and  N_7
REMARK    4  A    between atoms: C_9  and  C_10
REMARK    5  A    between atoms: C_10  and  O_12
REMARK    6  A    between atoms: O_12  and  C_13
REMARK    7  A    between atoms: C_13  and  C_14
REMARK    8  A    between atoms: N_16  and  C_17
REMARK    9  A    between atoms: C_21  and  C_22
REMARK                            x       y       z     vdW  Elec       q    Type
REMARK                         _______ _______ _______ _____ _____    ______ ____
ROOT
ATOM      1  C   UNL     1       1.944   5.251  20.320  0.00  0.00    +0.000 C 
ATOM      2  O   UNL     1       2.233   5.182  21.509  0.00  0.00    +0.000 OA
ENDROOT
BRANCH   1   5
ATOM      3  N   UNL     1       3.932   3.912  18.223  0.00  0.00    +0.000 N 
ATOM      4  C   UNL     1       2.563   4.357  18.073  0.00  0.00    +0.000 C 
ATOM      5  C   UNL     1       1.908   4.047  19.405  0.00  0.00    +0.000 C 
ATOM      6  C   UNL     1       2.686   2.865  19.936  0.00  0.00    +0.000 C 
ATOM      7  C   UNL     1       4.046   3.016  19.298  0.00  0.00    +0.000 C 
ATOM      8  O   UNL     1       5.020   2.398  19.698  0.00  0.00    +0.000 OA
BRANCH   3  12
ATOM      9  C   UNL     1       6.976   5.071  15.468  0.00  0.00    +0.000 A 
ATOM     10  C   UNL     1       6.000   4.153  15.099  0.00  0.00    +0.000 A 
ATOM     11  C   UNL     1       5.007   3.761  16.007  0.00  0.00    +0.000 A 
ATOM     12  C   UNL     1       4.967   4.271  17.309  0.00  0.00    +0.000 A 
ATOM     13  C   UNL     1       5.988   5.162  17.680  0.00  0.00    +0.000 A 
ATOM     14  C   UNL     1       6.985   5.555  16.772  0.00  0.00    +0.000 A 
BRANCH   9  16
ATOM     15  C   UNL     1       7.501   5.039  13.170  0.00  0.00    +0.000 C 
ATOM     16  O   UNL     1       7.882   5.390  14.496  0.00  0.00    +0.000 OA
ENDBRANCH   9  16
ENDBRANCH   3  12
ENDBRANCH   1   5
BRANCH   1  17
ATOM     17  O   UNL     1       1.531   6.389  19.701  0.00  0.00    +0.000 OA
BRANCH  17  18
ATOM     18  C   UNL     1       2.600   7.158  19.131  0.00  0.00    +0.000 C 
BRANCH  18  19
ATOM     19  C   UNL     1       2.050   8.456  18.526  0.00  0.00    +0.000 C 
ATOM     20  O   UNL     1       2.330   8.774  17.372  0.00  0.00    +0.000 OA
ATOM     21  N   UNL     1       1.253   9.196  19.381  0.00  0.00    +0.000 N 
ATOM     22  H   UNL     1       1.276   8.969  20.367  0.00  0.00    +0.000 HD
BRANCH  21  23
ATOM     23  C   UNL     1       0.525  10.350  19.009  0.00  0.00    +0.000 A 
ATOM     24  C   UNL     1      -0.803  10.305  18.572  0.00  0.00    +0.000 A 
ATOM     25  C   UNL     1      -1.470  11.467  18.190  0.00  0.00    +0.000 A 
ATOM     26  C   UNL     1      -0.813  12.694  18.237  0.00  0.00    +0.000 A 
ATOM     27  C   UNL     1       0.507  12.767  18.690  0.00  0.00    +0.000 A 
ATOM     28  C   UNL     1       1.233  14.079  18.714  0.00  0.00    +0.000 C 
ATOM     29  C   UNL     1       1.164  11.591  19.094  0.00  0.00    +0.000 A 
ENDBRANCH  21  23
ENDBRANCH  18  19
ENDBRANCH  17  18
ENDBRANCH   1  17
TORSDOF 7
ENDMDL
