MODEL 1
REMARK VINA RESULT:      -7.9      0.000      0.000
REMARK  Name = 
REMARK  5 active torsions:
REMARK  status: ('A' for Active; 'I' for Inactive)
REMARK    1  A    between atoms: C_2  and  C_3
REMARK    2  A    between atoms: C_3  and  N_4
REMARK    3  A    between atoms: N_4  and  S_5
REMARK    4  A    between atoms: S_5  and  C_8
REMARK    5  A    between atoms: N_17  and  C_18
REMARK                            x       y       z     vdW  Elec       q    Type
REMARK                         _______ _______ _______ _____ _____    ______ ____
ROOT
ATOM      1  N   UNL     1       7.874   6.848  17.431  0.00  0.00    +0.000 NA
ATOM      2  H   UNL     1       8.515   6.677  16.653  0.00  0.00    +0.000 HD
ENDROOT
BRANCH   1   3
ATOM      3  S   UNL     1       7.425   5.383  18.167  0.00  0.00    +0.000 S 
ATOM      4  O   UNL     1       7.744   4.334  17.248  0.00  0.00    +0.000 OA
ATOM      5  O   UNL     1       8.005   5.391  19.504  0.00  0.00    +0.000 OA
BRANCH   3   6
ATOM      6  C   UNL     1       5.672   5.458  18.284  0.00  0.00    +0.000 A 
ATOM      7  C   UNL     1       5.001   6.523  17.637  0.00  0.00    +0.000 A 
ATOM      8  C   UNL     1       3.594   6.620  17.557  0.00  0.00    +0.000 A 
ATOM      9  C   UNL     1       2.736   5.657  18.105  0.00  0.00    +0.000 A 
ATOM     10  C   UNL     1       3.349   4.561  18.758  0.00  0.00    +0.000 A 
ATOM     11  N   UNL     1       2.698   3.536  19.328  0.00  0.00    +0.000 NA
ATOM     12  S   UNL     1       3.857   2.518  19.930  0.00  0.00    +0.000 S 
ATOM     13  N   UNL     1       5.238   3.338  19.509  0.00  0.00    +0.000 NA
ATOM     14  C   UNL     1       4.858   4.449  18.854  0.00  0.00    +0.000 A 
ENDBRANCH   3   6
ENDBRANCH   1   3
BRANCH   1  15
ATOM     15  C   UNL     1       8.336   7.840  18.410  0.00  0.00    +0.000 C 
BRANCH  15  17
ATOM     16  O   UNL     1       7.278   9.760  17.443  0.00  0.00    +0.000 OA
ATOM     17  C   UNL     1       8.221   9.317  18.075  0.00  0.00    +0.000 C 
ATOM     18  N   UNL     1       9.236  10.109  18.562  0.00  0.00    +0.000 N 
ATOM     19  H   UNL     1       9.762   9.677  19.318  0.00  0.00    +0.000 HD
BRANCH  18  20
ATOM     20  C   UNL     1       9.375  11.577  18.452  0.00  0.00    +0.000 C 
ATOM     21  C   UNL     1       9.340  12.196  19.868  0.00  0.00    +0.000 C 
ATOM     22  C   UNL     1      10.576  11.816  20.699  0.00  0.00    +0.000 C 
ATOM     23  C   UNL     1      11.895  12.108  19.978  0.00  0.00    +0.000 C 
ATOM     24  C   UNL     1      11.898  11.566  18.551  0.00  0.00    +0.000 C 
ATOM     25  C   UNL     1      10.676  12.078  17.791  0.00  0.00    +0.000 C 
ENDBRANCH  18  20
ENDBRANCH  15  17
ENDBRANCH   1  15
TORSDOF 5
ENDMDL
MODEL 2
REMARK VINA RESULT:      -7.5      4.663      7.190
REMARK  Name = 
REMARK  5 active torsions:
REMARK  status: ('A' for Active; 'I' for Inactive)
REMARK    1  A    between atoms: C_2  and  C_3
REMARK    2  A    between atoms: C_3  and  N_4
REMARK    3  A    between atoms: N_4  and  S_5
REMARK    4  A    between atoms: S_5  and  C_8
REMARK    5  A    between atoms: N_17  and  C_18
REMARK                            x       y       z     vdW  Elec       q    Type
REMARK                         _______ _______ _______ _____ _____    ______ ____
ROOT
ATOM      1  N   UNL     1       7.491   4.277  16.805  0.00  0.00    +0.000 NA
ATOM      2  H   UNL     1       8.316   4.436  16.224  0.00  0.00    +0.000 HD
ENDROOT
BRANCH   1   3
ATOM      3  S   UNL     1       7.231   5.594  17.847  0.00  0.00    +0.000 S 
ATOM      4  O   UNL     1       7.920   5.310  19.067  0.00  0.00    +0.000 OA
ATOM      5  O   UNL     1       7.547   6.798  17.088  0.00  0.00    +0.000 OA
BRANCH   3   6
ATOM      6  C   UNL     1       5.509   5.556  18.200  0.00  0.00    +0.000 A 
ATOM      7  C   UNL     1       4.697   6.600  17.695  0.00  0.00    +0.000 A 
ATOM      8  C   UNL     1       3.289   6.613  17.807  0.00  0.00    +0.000 A 
ATOM      9  C   UNL     1       2.569   5.580  18.423  0.00  0.00    +0.000 A 
ATOM     10  C   UNL     1       3.326   4.502  18.940  0.00  0.00    +0.000 A 
ATOM     11  N   UNL     1       2.817   3.419  19.547  0.00  0.00    +0.000 NA
ATOM     12  S   UNL     1       4.103   2.454  19.945  0.00  0.00    +0.000 S 
ATOM     13  N   UNL     1       5.365   3.372  19.379  0.00  0.00    +0.000 NA
ATOM     14  C   UNL     1       4.838   4.480  18.829  0.00  0.00    +0.000 A 
ENDBRANCH   3   6
ENDBRANCH   1   3
BRANCH   1  15
ATOM     15  C   UNL     1       6.275   3.906  16.070  0.00  0.00    +0.000 C 
BRANCH  15  17
ATOM     16  O   UNL     1       5.921   5.727  14.553  0.00  0.00    +0.000 OA
ATOM     17  C   UNL     1       6.021   4.522  14.704  0.00  0.00    +0.000 C 
ATOM     18  N   UNL     1       5.945   3.625  13.662  0.00  0.00    +0.000 N 
ATOM     19  H   UNL     1       6.355   2.719  13.874  0.00  0.00    +0.000 HD
BRANCH  18  20
ATOM     20  C   UNL     1       5.764   3.917  12.224  0.00  0.00    +0.000 C 
ATOM     21  C   UNL     1       7.147   3.937  11.534  0.00  0.00    +0.000 C 
ATOM     22  C   UNL     1       7.799   2.545  11.501  0.00  0.00    +0.000 C 
ATOM     23  C   UNL     1       6.881   1.467  10.917  0.00  0.00    +0.000 C 
ATOM     24  C   UNL     1       5.489   1.502  11.543  0.00  0.00    +0.000 C 
ATOM     25  C   UNL     1       4.901   2.908  11.439  0.00  0.00    +0.000 C 
ENDBRANCH  18  20
ENDBRANCH  15  17
ENDBRANCH   1  15
TORSDOF 5
ENDMDL
MODEL 3
REMARK VINA RESULT:      -7.3      4.254      6.355
REMARK  Name = 
REMARK  5 active torsions:
REMARK  status: ('A' for Active; 'I' for Inactive)
REMARK    1  A    between atoms: C_2  and  C_3
REMARK    2  A    between atoms: C_3  and  N_4
REMARK    3  A    between atoms: N_4  and  S_5
REMARK    4  A    between atoms: S_5  and  C_8
REMARK    5  A    between atoms: N_17  and  C_18
REMARK                            x       y       z     vdW  Elec       q    Type
REMARK                         _______ _______ _______ _____ _____    ______ ____
ROOT
ATOM      1  N   UNL     1       2.193   4.751  18.419  0.00  0.00    +0.000 NA
ATOM      2  H   UNL     1       1.206   4.499  18.483  0.00  0.00    +0.000 HD
ENDROOT
BRANCH   1   3
ATOM      3  S   UNL     1       2.666   5.659  19.776  0.00  0.00    +0.000 S 
ATOM      4  O   UNL     1       1.835   5.252  20.867  0.00  0.00    +0.000 OA
ATOM      5  O   UNL     1       4.115   5.545  19.874  0.00  0.00    +0.000 OA
BRANCH   3   6
ATOM      6  C   UNL     1       2.231   7.317  19.382  0.00  0.00    +0.000 A 
ATOM      7  C   UNL     1       2.428   7.764  18.052  0.00  0.00    +0.000 A 
ATOM      8  C   UNL     1       2.005   9.028  17.587  0.00  0.00    +0.000 A 
ATOM      9  C   UNL     1       1.338   9.952  18.405  0.00  0.00    +0.000 A 
ATOM     10  C   UNL     1       1.104   9.558  19.744  0.00  0.00    +0.000 A 
ATOM     11  N   UNL     1       0.471  10.295  20.669  0.00  0.00    +0.000 NA
ATOM     12  S   UNL     1       0.438   9.388  22.054  0.00  0.00    +0.000 S 
ATOM     13  N   UNL     1       1.239   8.024  21.548  0.00  0.00    +0.000 NA
ATOM     14  C   UNL     1       1.558   8.205  20.255  0.00  0.00    +0.000 A 
ENDBRANCH   3   6
ENDBRANCH   1   3
BRANCH   1  15
ATOM     15  C   UNL     1       3.106   3.631  18.159  0.00  0.00    +0.000 C 
BRANCH  15  17
ATOM     16  O   UNL     1       4.036   3.710  15.952  0.00  0.00    +0.000 OA
ATOM     17  C   UNL     1       4.228   3.812  17.151  0.00  0.00    +0.000 C 
ATOM     18  N   UNL     1       5.456   4.126  17.690  0.00  0.00    +0.000 N 
ATOM     19  H   UNL     1       5.403   4.487  18.640  0.00  0.00    +0.000 HD
BRANCH  18  20
ATOM     20  C   UNL     1       6.715   4.415  16.973  0.00  0.00    +0.000 C 
ATOM     21  C   UNL     1       6.575   5.761  16.226  0.00  0.00    +0.000 C 
ATOM     22  C   UNL     1       6.472   6.952  17.191  0.00  0.00    +0.000 C 
ATOM     23  C   UNL     1       7.602   6.985  18.224  0.00  0.00    +0.000 C 
ATOM     24  C   UNL     1       7.794   5.632  18.904  0.00  0.00    +0.000 C 
ATOM     25  C   UNL     1       7.975   4.538  17.854  0.00  0.00    +0.000 C 
ENDBRANCH  18  20
ENDBRANCH  15  17
ENDBRANCH   1  15
TORSDOF 5
ENDMDL
MODEL 4
REMARK VINA RESULT:      -7.2      5.013      7.028
REMARK  Name = 
REMARK  5 active torsions:
REMARK  status: ('A' for Active; 'I' for Inactive)
REMARK    1  A    between atoms: C_2  and  C_3
REMARK    2  A    between atoms: C_3  and  N_4
REMARK    3  A    between atoms: N_4  and  S_5
REMARK    4  A    between atoms: S_5  and  C_8
REMARK    5  A    between atoms: N_17  and  C_18
REMARK                            x       y       z     vdW  Elec       q    Type
REMARK                         _______ _______ _______ _____ _____    ______ ____
ROOT
ATOM      1  N   UNL     1       3.181   5.279  20.298  0.00  0.00    +0.000 NA
ATOM      2  H   UNL     1       3.288   5.037  21.284  0.00  0.00    +0.000 HD
ENDROOT
BRANCH   1   3
ATOM      3  S   UNL     1       3.169   3.877  19.337  0.00  0.00    +0.000 S 
ATOM      4  O   UNL     1       3.598   2.793  20.165  0.00  0.00    +0.000 OA
ATOM      5  O   UNL     1       1.869   3.830  18.680  0.00  0.00    +0.000 OA
BRANCH   3   6
ATOM      6  C   UNL     1       4.426   4.144  18.135  0.00  0.00    +0.000 A 
ATOM      7  C   UNL     1       4.122   3.881  16.777  0.00  0.00    +0.000 A 
ATOM      8  C   UNL     1       5.004   4.173  15.714  0.00  0.00    +0.000 A 
ATOM      9  C   UNL     1       6.260   4.764  15.912  0.00  0.00    +0.000 A 
ATOM     10  C   UNL     1       6.617   5.060  17.249  0.00  0.00    +0.000 A 
ATOM     11  N   UNL     1       7.765   5.637  17.635  0.00  0.00    +0.000 NA
ATOM     12  S   UNL     1       7.688   5.782  19.283  0.00  0.00    +0.000 S 
ATOM     13  N   UNL     1       6.202   5.105  19.584  0.00  0.00    +0.000 NA
ATOM     14  C   UNL     1       5.680   4.746  18.399  0.00  0.00    +0.000 A 
ENDBRANCH   3   6
ENDBRANCH   1   3
BRANCH   1  15
ATOM     15  C   UNL     1       2.052   6.167  19.994  0.00  0.00    +0.000 C 
BRANCH  15  17
ATOM     16  O   UNL     1       3.081   7.503  18.292  0.00  0.00    +0.000 OA
ATOM     17  C   UNL     1       2.310   7.457  19.235  0.00  0.00    +0.000 C 
ATOM     18  N   UNL     1       1.592   8.548  19.670  0.00  0.00    +0.000 N 
ATOM     19  H   UNL     1       0.778   8.302  20.229  0.00  0.00    +0.000 HD
BRANCH  18  20
ATOM     20  C   UNL     1       1.582   9.914  19.106  0.00  0.00    +0.000 C 
ATOM     21  C   UNL     1       0.844   9.895  17.748  0.00  0.00    +0.000 C 
ATOM     22  C   UNL     1      -0.656   9.601  17.908  0.00  0.00    +0.000 C 
ATOM     23  C   UNL     1      -1.342  10.521  18.921  0.00  0.00    +0.000 C 
ATOM     24  C   UNL     1      -0.568  10.603  20.234  0.00  0.00    +0.000 C 
ATOM     25  C   UNL     1       0.885  10.989  19.964  0.00  0.00    +0.000 C 
ENDBRANCH  18  20
ENDBRANCH  15  17
ENDBRANCH   1  15
TORSDOF 5
ENDMDL
MODEL 5
REMARK VINA RESULT:      -7.1      6.323      9.303
REMARK  Name = 
REMARK  5 active torsions:
REMARK  status: ('A' for Active; 'I' for Inactive)
REMARK    1  A    between atoms: C_2  and  C_3
REMARK    2  A    between atoms: C_3  and  N_4
REMARK    3  A    between atoms: N_4  and  S_5
REMARK    4  A    between atoms: S_5  and  C_8
REMARK    5  A    between atoms: N_17  and  C_18
REMARK                            x       y       z     vdW  Elec       q    Type
REMARK                         _______ _______ _______ _____ _____    ______ ____
ROOT
ATOM      1  N   UNL     1       2.100   9.782  18.435  0.00  0.00    +0.000 NA
ATOM      2  H   UNL     1       2.782  10.392  17.981  0.00  0.00    +0.000 HD
ENDROOT
BRANCH   1   3
ATOM      3  S   UNL     1       0.647  10.617  18.718  0.00  0.00    +0.000 S 
ATOM      4  O   UNL     1       0.942  12.014  18.648  0.00  0.00    +0.000 OA
ATOM      5  O   UNL     1      -0.353  10.031  17.834  0.00  0.00    +0.000 OA
BRANCH   3   6
ATOM      6  C   UNL     1       0.238  10.254  20.390  0.00  0.00    +0.000 A 
ATOM      7  C   UNL     1       1.005   9.278  21.072  0.00  0.00    +0.000 A 
ATOM      8  C   UNL     1       0.853   8.991  22.446  0.00  0.00    +0.000 A 
ATOM      9  C   UNL     1      -0.069   9.662  23.262  0.00  0.00    +0.000 A 
ATOM     10  C   UNL     1      -0.859  10.658  22.639  0.00  0.00    +0.000 A 
ATOM     11  N   UNL     1      -1.780  11.414  23.255  0.00  0.00    +0.000 NA
ATOM     12  S   UNL     1      -2.403  12.429  22.104  0.00  0.00    +0.000 S 
ATOM     13  N   UNL     1      -1.544  11.945  20.768  0.00  0.00    +0.000 NA
ATOM     14  C   UNL     1      -0.707  10.970  21.163  0.00  0.00    +0.000 A 
ENDBRANCH   3   6
ENDBRANCH   1   3
BRANCH   1  15
ATOM     15  C   UNL     1       1.876   8.494  17.766  0.00  0.00    +0.000 C 
BRANCH  15  17
ATOM     16  O   UNL     1       3.943   7.306  17.521  0.00  0.00    +0.000 OA
ATOM     17  C   UNL     1       2.836   7.347  18.031  0.00  0.00    +0.000 C 
ATOM     18  N   UNL     1       2.377   6.388  18.906  0.00  0.00    +0.000 N 
ATOM     19  H   UNL     1       1.602   6.703  19.485  0.00  0.00    +0.000 HD
BRANCH  18  20
ATOM     20  C   UNL     1       3.093   5.194  19.401  0.00  0.00    +0.000 C 
ATOM     21  C   UNL     1       2.431   4.714  20.712  0.00  0.00    +0.000 C 
ATOM     22  C   UNL     1       1.013   4.167  20.480  0.00  0.00    +0.000 C 
ATOM     23  C   UNL     1       0.955   3.100  19.385  0.00  0.00    +0.000 C 
ATOM     24  C   UNL     1       1.681   3.542  18.117  0.00  0.00    +0.000 C 
ATOM     25  C   UNL     1       3.105   3.978  18.451  0.00  0.00    +0.000 C 
ENDBRANCH  18  20
ENDBRANCH  15  17
ENDBRANCH   1  15
TORSDOF 5
ENDMDL
MODEL 6
REMARK VINA RESULT:      -7.1      5.720      7.540
REMARK  Name = 
REMARK  5 active torsions:
REMARK  status: ('A' for Active; 'I' for Inactive)
REMARK    1  A    between atoms: C_2  and  C_3
REMARK    2  A    between atoms: C_3  and  N_4
REMARK    3  A    between atoms: N_4  and  S_5
REMARK    4  A    between atoms: S_5  and  C_8
REMARK    5  A    between atoms: N_17  and  C_18
REMARK                            x       y       z     vdW  Elec       q    Type
REMARK                         _______ _______ _______ _____ _____    ______ ____
ROOT
ATOM      1  N   UNL     1       5.838   3.465  16.541  0.00  0.00    +0.000 NA
ATOM      2  H   UNL     1       5.896   2.489  16.838  0.00  0.00    +0.000 HD
ENDROOT
BRANCH   1   3
ATOM      3  S   UNL     1       5.326   4.451  17.826  0.00  0.00    +0.000 S 
ATOM      4  O   UNL     1       6.179   4.171  18.940  0.00  0.00    +0.000 OA
ATOM      5  O   UNL     1       5.225   5.807  17.300  0.00  0.00    +0.000 OA
BRANCH   3   6
ATOM      6  C   UNL     1       3.722   3.858  18.237  0.00  0.00    +0.000 A 
ATOM      7  C   UNL     1       3.314   2.607  17.712  0.00  0.00    +0.000 A 
ATOM      8  C   UNL     1       2.104   1.973  18.070  0.00  0.00    +0.000 A 
ATOM      9  C   UNL     1       1.201   2.525  18.989  0.00  0.00    +0.000 A 
ATOM     10  C   UNL     1       1.559   3.772  19.556  0.00  0.00    +0.000 A 
ATOM     11  N   UNL     1       0.835   4.448  20.462  0.00  0.00    +0.000 NA
ATOM     12  S   UNL     1       1.688   5.823  20.816  0.00  0.00    +0.000 S 
ATOM     13  N   UNL     1       3.007   5.632  19.825  0.00  0.00    +0.000 NA
ATOM     14  C   UNL     1       2.854   4.465  19.176  0.00  0.00    +0.000 A 
ENDBRANCH   3   6
ENDBRANCH   1   3
BRANCH   1  15
ATOM     15  C   UNL     1       7.045   3.989  15.889  0.00  0.00    +0.000 C 
BRANCH  15  17
ATOM     16  O   UNL     1       7.509   5.575  14.153  0.00  0.00    +0.000 OA
ATOM     17  C   UNL     1       6.940   4.548  14.480  0.00  0.00    +0.000 C 
ATOM     18  N   UNL     1       6.187   3.796  13.606  0.00  0.00    +0.000 N 
ATOM     19  H   UNL     1       6.048   2.836  13.911  0.00  0.00    +0.000 HD
BRANCH  18  20
ATOM     20  C   UNL     1       5.946   4.045  12.169  0.00  0.00    +0.000 C 
ATOM     21  C   UNL     1       7.270   3.857  11.394  0.00  0.00    +0.000 C 
ATOM     22  C   UNL     1       7.740   2.393  11.394  0.00  0.00    +0.000 C 
ATOM     23  C   UNL     1       6.659   1.417  10.925  0.00  0.00    +0.000 C 
ATOM     24  C   UNL     1       5.327   1.657  11.633  0.00  0.00    +0.000 C 
ATOM     25  C   UNL     1       4.913   3.120  11.493  0.00  0.00    +0.000 C 
ENDBRANCH  18  20
ENDBRANCH  15  17
ENDBRANCH   1  15
TORSDOF 5
ENDMDL
MODEL 7
REMARK VINA RESULT:      -7.1      1.723      2.085
REMARK  Name = 
REMARK  5 active torsions:
REMARK  status: ('A' for Active; 'I' for Inactive)
REMARK    1  A    between atoms: C_2  and  C_3
REMARK    2  A    between atoms: C_3  and  N_4
REMARK    3  A    between atoms: N_4  and  S_5
REMARK    4  A    between atoms: S_5  and  C_8
REMARK    5  A    between atoms: N_17  and  C_18
REMARK                            x       y       z     vdW  Elec       q    Type
REMARK                         _______ _______ _______ _____ _____    ______ ____
ROOT
ATOM      1  N   UNL     1       7.305   6.539  18.708  0.00  0.00    +0.000 NA
ATOM      2  H   UNL     1       6.409   7.003  18.867  0.00  0.00    +0.000 HD
ENDROOT
BRANCH   1   3
ATOM      3  S   UNL     1       7.189   5.444  17.414  0.00  0.00    +0.000 S 
ATOM      4  O   UNL     1       7.374   6.193  16.209  0.00  0.00    +0.000 OA
ATOM      5  O   UNL     1       8.071   4.327  17.728  0.00  0.00    +0.000 OA
BRANCH   3   6
ATOM      6  C   UNL     1       5.518   4.897  17.435  0.00  0.00    +0.000 A 
ATOM      7  C   UNL     1       5.265   3.507  17.335  0.00  0.00    +0.000 A 
ATOM      8  C   UNL     1       3.979   2.940  17.465  0.00  0.00    +0.000 A 
ATOM      9  C   UNL     1       2.834   3.709  17.717  0.00  0.00    +0.000 A 
ATOM     10  C   UNL     1       3.024   5.106  17.837  0.00  0.00    +0.000 A 
ATOM     11  N   UNL     1       2.057   6.001  18.092  0.00  0.00    +0.000 NA
ATOM     12  S   UNL     1       2.791   7.484  18.154  0.00  0.00    +0.000 S 
ATOM     13  N   UNL     1       4.367   7.062  17.844  0.00  0.00    +0.000 NA
ATOM     14  C   UNL     1       4.400   5.727  17.695  0.00  0.00    +0.000 A 
ENDBRANCH   3   6
ENDBRANCH   1   3
BRANCH   1  15
ATOM     15  C   UNL     1       8.456   7.440  18.568  0.00  0.00    +0.000 C 
BRANCH  15  17
ATOM     16  O   UNL     1       7.287   9.208  17.450  0.00  0.00    +0.000 OA
ATOM     17  C   UNL     1       8.218   8.886  18.169  0.00  0.00    +0.000 C 
ATOM     18  N   UNL     1       9.104   9.795  18.702  0.00  0.00    +0.000 N 
ATOM     19  H   UNL     1       9.609   9.444  19.512  0.00  0.00    +0.000 HD
BRANCH  18  20
ATOM     20  C   UNL     1       9.100  11.265  18.546  0.00  0.00    +0.000 C 
ATOM     21  C   UNL     1       9.083  11.922  19.945  0.00  0.00    +0.000 C 
ATOM     22  C   UNL     1      10.392  11.682  20.714  0.00  0.00    +0.000 C 
ATOM     23  C   UNL     1      11.638  12.071  19.913  0.00  0.00    +0.000 C 
ATOM     24  C   UNL     1      11.614  11.488  18.503  0.00  0.00    +0.000 C 
ATOM     25  C   UNL     1      10.311  11.863  17.800  0.00  0.00    +0.000 C 
ENDBRANCH  18  20
ENDBRANCH  15  17
ENDBRANCH   1  15
TORSDOF 5
ENDMDL
MODEL 8
REMARK VINA RESULT:      -7.1      6.635      9.564
REMARK  Name = 
REMARK  5 active torsions:
REMARK  status: ('A' for Active; 'I' for Inactive)
REMARK    1  A    between atoms: C_2  and  C_3
REMARK    2  A    between atoms: C_3  and  N_4
REMARK    3  A    between atoms: N_4  and  S_5
REMARK    4  A    between atoms: S_5  and  C_8
REMARK    5  A    between atoms: N_17  and  C_18
REMARK                            x       y       z     vdW  Elec       q    Type
REMARK                         _______ _______ _______ _____ _____    ______ ____
ROOT
ATOM      1  N   UNL     1       1.667   8.371  21.452  0.00  0.00    +0.000 NA
ATOM      2  H   UNL     1       2.483   8.826  21.864  0.00  0.00    +0.000 HD
ENDROOT
BRANCH   1   3
ATOM      3  S   UNL     1       0.244   9.192  21.885  0.00  0.00    +0.000 S 
ATOM      4  O   UNL     1      -0.826   8.245  21.822  0.00  0.00    +0.000 OA
ATOM      5  O   UNL     1       0.528   9.899  23.127  0.00  0.00    +0.000 OA
BRANCH   3   6
ATOM      6  C   UNL     1      -0.016  10.356  20.592  0.00  0.00    +0.000 A 
ATOM      7  C   UNL     1      -1.054  10.105  19.661  0.00  0.00    +0.000 A 
ATOM      8  C   UNL     1      -1.436  11.023  18.659  0.00  0.00    +0.000 A 
ATOM      9  C   UNL     1      -0.825  12.276  18.506  0.00  0.00    +0.000 A 
ATOM     10  C   UNL     1       0.214  12.589  19.414  0.00  0.00    +0.000 A 
ATOM     11  N   UNL     1       0.904  13.739  19.436  0.00  0.00    +0.000 NA
ATOM     12  S   UNL     1       1.983  13.619  20.687  0.00  0.00    +0.000 S 
ATOM     13  N   UNL     1       1.635  12.095  21.249  0.00  0.00    +0.000 NA
ATOM     14  C   UNL     1       0.636  11.609  20.492  0.00  0.00    +0.000 A 
ENDBRANCH   3   6
ENDBRANCH   1   3
BRANCH   1  15
ATOM     15  C   UNL     1       1.751   8.136  20.005  0.00  0.00    +0.000 C 
BRANCH  15  17
ATOM     16  O   UNL     1       3.245   7.007  18.510  0.00  0.00    +0.000 OA
ATOM     17  C   UNL     1       2.531   6.936  19.495  0.00  0.00    +0.000 C 
ATOM     18  N   UNL     1       2.395   5.788  20.243  0.00  0.00    +0.000 N 
ATOM     19  H   UNL     1       2.044   5.953  21.183  0.00  0.00    +0.000 HD
BRANCH  18  20
ATOM     20  C   UNL     1       3.064   4.486  20.037  0.00  0.00    +0.000 C 
ATOM     21  C   UNL     1       2.482   3.455  21.029  0.00  0.00    +0.000 C 
ATOM     22  C   UNL     1       1.014   3.116  20.720  0.00  0.00    +0.000 C 
ATOM     23  C   UNL     1       0.790   2.700  19.264  0.00  0.00    +0.000 C 
ATOM     24  C   UNL     1       1.437   3.677  18.285  0.00  0.00    +0.000 C 
ATOM     25  C   UNL     1       2.912   3.869  18.631  0.00  0.00    +0.000 C 
ENDBRANCH  18  20
ENDBRANCH  15  17
ENDBRANCH   1  15
TORSDOF 5
ENDMDL
MODEL 9
REMARK VINA RESULT:      -7.1      1.556      2.000
REMARK  Name = 
REMARK  5 active torsions:
REMARK  status: ('A' for Active; 'I' for Inactive)
REMARK    1  A    between atoms: C_2  and  C_3
REMARK    2  A    between atoms: C_3  and  N_4
REMARK    3  A    between atoms: N_4  and  S_5
REMARK    4  A    between atoms: S_5  and  C_8
REMARK    5  A    between atoms: N_17  and  C_18
REMARK                            x       y       z     vdW  Elec       q    Type
REMARK                         _______ _______ _______ _____ _____    ______ ____
ROOT
ATOM      1  N   UNL     1       7.429   6.843  17.612  0.00  0.00    +0.000 NA
ATOM      2  H   UNL     1       7.676   6.738  16.626  0.00  0.00    +0.000 HD
ENDROOT
BRANCH   1   3
ATOM      3  S   UNL     1       7.353   5.325  18.372  0.00  0.00    +0.000 S 
ATOM      4  O   UNL     1       7.930   4.373  17.474  0.00  0.00    +0.000 OA
ATOM      5  O   UNL     1       7.901   5.498  19.711  0.00  0.00    +0.000 OA
BRANCH   3   6
ATOM      6  C   UNL     1       5.635   4.962  18.483  0.00  0.00    +0.000 A 
ATOM      7  C   UNL     1       5.247   3.716  19.034  0.00  0.00    +0.000 A 
ATOM      8  C   UNL     1       3.903   3.364  19.287  0.00  0.00    +0.000 A 
ATOM      9  C   UNL     1       2.831   4.229  19.024  0.00  0.00    +0.000 A 
ATOM     10  C   UNL     1       3.157   5.495  18.481  0.00  0.00    +0.000 A 
ATOM     11  N   UNL     1       2.275   6.458  18.178  0.00  0.00    +0.000 NA
ATOM     12  S   UNL     1       3.153   7.737  17.598  0.00  0.00    +0.000 S 
ATOM     13  N   UNL     1       4.693   7.121  17.689  0.00  0.00    +0.000 NA
ATOM     14  C   UNL     1       4.597   5.881  18.200  0.00  0.00    +0.000 A 
ENDBRANCH   3   6
ENDBRANCH   1   3
BRANCH   1  15
ATOM     15  C   UNL     1       8.255   7.796  18.363  0.00  0.00    +0.000 C 
BRANCH  15  17
ATOM     16  O   UNL     1       7.274   9.721  17.327  0.00  0.00    +0.000 OA
ATOM     17  C   UNL     1       8.167   9.275  18.026  0.00  0.00    +0.000 C 
ATOM     18  N   UNL     1       9.144  10.064  18.591  0.00  0.00    +0.000 N 
ATOM     19  H   UNL     1       9.611   9.628  19.383  0.00  0.00    +0.000 HD
BRANCH  18  20
ATOM     20  C   UNL     1       9.292  11.532  18.498  0.00  0.00    +0.000 C 
ATOM     21  C   UNL     1       9.338  12.128  19.923  0.00  0.00    +0.000 C 
ATOM     22  C   UNL     1      10.611  11.722  20.681  0.00  0.00    +0.000 C 
ATOM     23  C   UNL     1      11.894  12.013  19.897  0.00  0.00    +0.000 C 
ATOM     24  C   UNL     1      11.816  11.496  18.463  0.00  0.00    +0.000 C 
ATOM     25  C   UNL     1      10.561  12.032  17.778  0.00  0.00    +0.000 C 
ENDBRANCH  18  20
ENDBRANCH  15  17
ENDBRANCH   1  15
TORSDOF 5
ENDMDL
