MODEL 1
REMARK VINA RESULT:      -7.8      0.000      0.000
REMARK  Name = 
REMARK  3 active torsions:
REMARK  status: ('A' for Active; 'I' for Inactive)
REMARK    1  A    between atoms: C_1  and  N_2
REMARK    2  A    between atoms: N_11  and  C_12
REMARK    3  A    between atoms: C_17  and  N_18
REMARK                            x       y       z     vdW  Elec       q    Type
REMARK                         _______ _______ _______ _____ _____    ______ ____
ROOT
ATOM      1  C   UNL     1      -0.799   9.768  22.956  0.00  0.00    +0.000 C 
ATOM      2  N   UNL     1      -0.177   9.788  21.644  0.00  0.00    +0.000 N 
ATOM      3  C   UNL     1       0.838   8.882  21.386  0.00  0.00    +0.000 A 
ATOM      4  O   UNL     1       1.412   8.238  22.258  0.00  0.00    +0.000 OA
ATOM      5  C   UNL     1       1.330   8.830  20.003  0.00  0.00    +0.000 A 
ATOM      6  C   UNL     1       2.113   7.789  19.485  0.00  0.00    +0.000 A 
ATOM      7  C   UNL     1       2.718   7.937  18.246  0.00  0.00    +0.000 A 
ATOM      8  C   UNL     1       2.461   9.081  17.524  0.00  0.00    +0.000 A 
ATOM      9  N   UNL     1       1.661  10.071  17.979  0.00  0.00    +0.000 NA
ATOM     10  C   UNL     1       1.107   9.946  19.211  0.00  0.00    +0.000 A 
ATOM     11  N   UNL     1       0.294  10.993  19.679  0.00  0.00    +0.000 N 
ATOM     12  C   UNL     1       0.125  12.190  18.871  0.00  0.00    +0.000 C 
ATOM     13  C   UNL     1      -0.381  10.930  20.884  0.00  0.00    +0.000 A 
ATOM     14  O   UNL     1      -1.096  11.855  21.273  0.00  0.00    +0.000 OA
ATOM     15  C   UNL     1       3.623   6.916  17.702  0.00  0.00    +0.000 C 
ATOM     16  O   UNL     1       3.890   6.938  16.506  0.00  0.00    +0.000 OA
ATOM     17  C   UNL     1       4.191   5.900  18.668  0.00  0.00    +0.000 C 
ATOM     18  C   UNL     1       3.484   5.709  19.796  0.00  0.00    +0.000 C 
ATOM     19  C   UNL     1       2.258   6.471  20.116  0.00  0.00    +0.000 C 
ATOM     20  O   UNL     1       1.372   5.967  20.789  0.00  0.00    +0.000 OA
ENDROOT
BRANCH  17  21
ATOM     21  N   UNL     1       5.341   5.187  18.305  0.00  0.00    +0.000 N 
ATOM     22  C   UNL     1       6.598   5.186  19.096  0.00  0.00    +0.000 C 
ATOM     23  C   UNL     1       7.804   5.397  18.170  0.00  0.00    +0.000 C 
ATOM     24  O   UNL     1       7.851   4.386  17.147  0.00  0.00    +0.000 OA
ATOM     25  C   UNL     1       6.653   4.427  16.357  0.00  0.00    +0.000 C 
ATOM     26  C   UNL     1       5.397   4.191  17.215  0.00  0.00    +0.000 C 
ENDBRANCH  17  21
TORSDOF 1
ENDMDL
MODEL 2
REMARK VINA RESULT:      -7.6      2.089      7.154
REMARK  Name = 
REMARK  3 active torsions:
REMARK  status: ('A' for Active; 'I' for Inactive)
REMARK    1  A    between atoms: C_1  and  N_2
REMARK    2  A    between atoms: N_11  and  C_12
REMARK    3  A    between atoms: C_17  and  N_18
REMARK                            x       y       z     vdW  Elec       q    Type
REMARK                         _______ _______ _______ _____ _____    ______ ____
ROOT
ATOM      1  C   UNL     1       2.612   2.697  21.333  0.00  0.00    +0.000 C 
ATOM      2  N   UNL     1       2.924   3.699  20.328  0.00  0.00    +0.000 N 
ATOM      3  C   UNL     1       2.158   4.852  20.294  0.00  0.00    +0.000 A 
ATOM      4  O   UNL     1       1.089   4.977  20.883  0.00  0.00    +0.000 OA
ATOM      5  C   UNL     1       2.604   5.904  19.370  0.00  0.00    +0.000 A 
ATOM      6  C   UNL     1       2.158   7.233  19.416  0.00  0.00    +0.000 A 
ATOM      7  C   UNL     1       2.456   8.093  18.370  0.00  0.00    +0.000 A 
ATOM      8  C   UNL     1       3.256   7.629  17.349  0.00  0.00    +0.000 A 
ATOM      9  N   UNL     1       3.746   6.371  17.315  0.00  0.00    +0.000 NA
ATOM     10  C   UNL     1       3.416   5.516  18.316  0.00  0.00    +0.000 A 
ATOM     11  N   UNL     1       3.916   4.203  18.255  0.00  0.00    +0.000 N 
ATOM     12  C   UNL     1       4.706   3.786  17.109  0.00  0.00    +0.000 C 
ATOM     13  C   UNL     1       3.705   3.279  19.262  0.00  0.00    +0.000 A 
ATOM     14  O   UNL     1       4.159   2.136  19.195  0.00  0.00    +0.000 OA
ATOM     15  C   UNL     1       1.935   9.464  18.325  0.00  0.00    +0.000 C 
ATOM     16  O   UNL     1       2.453  10.271  17.563  0.00  0.00    +0.000 OA
ATOM     17  C   UNL     1       0.761   9.794  19.222  0.00  0.00    +0.000 C 
ATOM     18  C   UNL     1       0.603   8.997  20.293  0.00  0.00    +0.000 C 
ATOM     19  C   UNL     1       1.477   7.836  20.568  0.00  0.00    +0.000 C 
ATOM     20  O   UNL     1       1.691   7.479  21.716  0.00  0.00    +0.000 OA
ENDROOT
BRANCH  17  21
ATOM     21  N   UNL     1      -0.020  10.921  18.931  0.00  0.00    +0.000 N 
ATOM     22  C   UNL     1       0.397  12.314  19.228  0.00  0.00    +0.000 C 
ATOM     23  C   UNL     1      -0.759  13.081  19.887  0.00  0.00    +0.000 C 
ATOM     24  O   UNL     1      -1.927  13.072  19.046  0.00  0.00    +0.000 OA
ATOM     25  C   UNL     1      -2.350  11.722  18.803  0.00  0.00    +0.000 C 
ATOM     26  C   UNL     1      -1.251  10.895  18.114  0.00  0.00    +0.000 C 
ENDBRANCH  17  21
TORSDOF 1
ENDMDL
MODEL 3
REMARK VINA RESULT:      -7.6      2.171      3.662
REMARK  Name = 
REMARK  3 active torsions:
REMARK  status: ('A' for Active; 'I' for Inactive)
REMARK    1  A    between atoms: C_1  and  N_2
REMARK    2  A    between atoms: N_11  and  C_12
REMARK    3  A    between atoms: C_17  and  N_18
REMARK                            x       y       z     vdW  Elec       q    Type
REMARK                         _______ _______ _______ _____ _____    ______ ____
ROOT
ATOM      1  C   UNL     1      -0.858  13.432  18.909  0.00  0.00    +0.000 C 
ATOM      2  N   UNL     1      -0.476  12.289  19.720  0.00  0.00    +0.000 N 
ATOM      3  C   UNL     1      -0.019  11.152  19.076  0.00  0.00    +0.000 A 
ATOM      4  O   UNL     1      -0.147  10.955  17.872  0.00  0.00    +0.000 OA
ATOM      5  C   UNL     1       0.504  10.081  19.935  0.00  0.00    +0.000 A 
ATOM      6  C   UNL     1       1.281   9.010  19.473  0.00  0.00    +0.000 A 
ATOM      7  C   UNL     1       1.533   7.934  20.310  0.00  0.00    +0.000 A 
ATOM      8  C   UNL     1       1.074   7.992  21.607  0.00  0.00    +0.000 A 
ATOM      9  N   UNL     1       0.374   9.041  22.091  0.00  0.00    +0.000 NA
ATOM     10  C   UNL     1       0.088  10.073  21.257  0.00  0.00    +0.000 A 
ATOM     11  N   UNL     1      -0.659  11.149  21.770  0.00  0.00    +0.000 N 
ATOM     12  C   UNL     1      -1.152  11.097  23.137  0.00  0.00    +0.000 C 
ATOM     13  C   UNL     1      -0.935  12.283  21.029  0.00  0.00    +0.000 A 
ATOM     14  O   UNL     1      -1.585  13.219  21.499  0.00  0.00    +0.000 OA
ATOM     15  C   UNL     1       2.261   6.747  19.844  0.00  0.00    +0.000 C 
ATOM     16  O   UNL     1       2.720   5.970  20.673  0.00  0.00    +0.000 OA
ATOM     17  C   UNL     1       2.384   6.546  18.350  0.00  0.00    +0.000 C 
ATOM     18  C   UNL     1       2.258   7.654  17.599  0.00  0.00    +0.000 C 
ATOM     19  C   UNL     1       1.964   8.985  18.173  0.00  0.00    +0.000 C 
ATOM     20  O   UNL     1       2.372   9.999  17.629  0.00  0.00    +0.000 OA
ENDROOT
BRANCH  17  21
ATOM     21  N   UNL     1       2.689   5.268  17.860  0.00  0.00    +0.000 N 
ATOM     22  C   UNL     1       1.681   4.194  17.669  0.00  0.00    +0.000 C 
ATOM     23  C   UNL     1       2.209   2.869  18.238  0.00  0.00    +0.000 C 
ATOM     24  O   UNL     1       3.458   2.506  17.622  0.00  0.00    +0.000 OA
ATOM     25  C   UNL     1       4.439   3.528  17.853  0.00  0.00    +0.000 C 
ATOM     26  C   UNL     1       3.993   4.885  17.280  0.00  0.00    +0.000 C 
ENDBRANCH  17  21
TORSDOF 1
ENDMDL
MODEL 4
REMARK VINA RESULT:      -7.4      1.914      2.562
REMARK  Name = 
REMARK  3 active torsions:
REMARK  status: ('A' for Active; 'I' for Inactive)
REMARK    1  A    between atoms: C_1  and  N_2
REMARK    2  A    between atoms: N_11  and  C_12
REMARK    3  A    between atoms: C_17  and  N_18
REMARK                            x       y       z     vdW  Elec       q    Type
REMARK                         _______ _______ _______ _____ _____    ______ ____
ROOT
ATOM      1  C   UNL     1      -1.182  12.686  23.044  0.00  0.00    +0.000 C 
ATOM      2  N   UNL     1      -0.519  12.269  21.822  0.00  0.00    +0.000 N 
ATOM      3  C   UNL     1       0.106  11.033  21.804  0.00  0.00    +0.000 A 
ATOM      4  O   UNL     1       0.351  10.381  22.813  0.00  0.00    +0.000 OA
ATOM      5  C   UNL     1       0.625  10.584  20.506  0.00  0.00    +0.000 A 
ATOM      6  C   UNL     1       1.001   9.263  20.223  0.00  0.00    +0.000 A 
ATOM      7  C   UNL     1       1.691   8.981  19.053  0.00  0.00    +0.000 A 
ATOM      8  C   UNL     1       1.915  10.007  18.162  0.00  0.00    +0.000 A 
ATOM      9  N   UNL     1       1.509  11.276  18.387  0.00  0.00    +0.000 NA
ATOM     10  C   UNL     1       0.875  11.560  19.553  0.00  0.00    +0.000 A 
ATOM     11  N   UNL     1       0.477  12.889  19.782  0.00  0.00    +0.000 N 
ATOM     12  C   UNL     1       0.808  13.917  18.809  0.00  0.00    +0.000 C 
ATOM     13  C   UNL     1      -0.245  13.267  20.899  0.00  0.00    +0.000 A 
ATOM     14  O   UNL     1      -0.591  14.436  21.078  0.00  0.00    +0.000 OA
ATOM     15  C   UNL     1       2.188   7.632  18.756  0.00  0.00    +0.000 C 
ATOM     16  O   UNL     1       2.515   7.361  17.606  0.00  0.00    +0.000 OA
ATOM     17  C   UNL     1       2.285   6.655  19.907  0.00  0.00    +0.000 C 
ATOM     18  C   UNL     1       1.492   6.914  20.961  0.00  0.00    +0.000 C 
ATOM     19  C   UNL     1       0.614   8.102  21.034  0.00  0.00    +0.000 C 
ATOM     20  O   UNL     1      -0.433   8.062  21.661  0.00  0.00    +0.000 OA
ENDROOT
BRANCH  17  21
ATOM     21  N   UNL     1       3.113   5.532  19.775  0.00  0.00    +0.000 N 
ATOM     22  C   UNL     1       4.541   5.600  19.376  0.00  0.00    +0.000 C 
ATOM     23  C   UNL     1       4.840   4.544  18.302  0.00  0.00    +0.000 C 
ATOM     24  O   UNL     1       4.509   3.225  18.772  0.00  0.00    +0.000 OA
ATOM     25  C   UNL     1       3.116   3.156  19.109  0.00  0.00    +0.000 C 
ATOM     26  C   UNL     1       2.744   4.168  20.207  0.00  0.00    +0.000 C 
ENDBRANCH  17  21
TORSDOF 1
ENDMDL
MODEL 5
REMARK VINA RESULT:      -7.3      2.169      7.109
REMARK  Name = 
REMARK  3 active torsions:
REMARK  status: ('A' for Active; 'I' for Inactive)
REMARK    1  A    between atoms: C_1  and  N_2
REMARK    2  A    between atoms: N_11  and  C_12
REMARK    3  A    between atoms: C_17  and  N_18
REMARK                            x       y       z     vdW  Elec       q    Type
REMARK                         _______ _______ _______ _____ _____    ______ ____
ROOT
ATOM      1  C   UNL     1       2.587   2.527  21.099  0.00  0.00    +0.000 C 
ATOM      2  N   UNL     1       2.890   3.567  20.132  0.00  0.00    +0.000 N 
ATOM      3  C   UNL     1       2.158   4.741  20.182  0.00  0.00    +0.000 A 
ATOM      4  O   UNL     1       1.116   4.867  20.818  0.00  0.00    +0.000 OA
ATOM      5  C   UNL     1       2.600   5.824  19.293  0.00  0.00    +0.000 A 
ATOM      6  C   UNL     1       2.197   7.161  19.420  0.00  0.00    +0.000 A 
ATOM      7  C   UNL     1       2.481   8.062  18.405  0.00  0.00    +0.000 A 
ATOM      8  C   UNL     1       3.227   7.627  17.332  0.00  0.00    +0.000 A 
ATOM      9  N   UNL     1       3.677   6.358  17.219  0.00  0.00    +0.000 NA
ATOM     10  C   UNL     1       3.360   5.465  18.190  0.00  0.00    +0.000 A 
ATOM     11  N   UNL     1       3.817   4.143  18.048  0.00  0.00    +0.000 N 
ATOM     12  C   UNL     1       4.551   3.760  16.852  0.00  0.00    +0.000 C 
ATOM     13  C   UNL     1       3.617   3.178  19.017  0.00  0.00    +0.000 A 
ATOM     14  O   UNL     1       4.034   2.026  18.877  0.00  0.00    +0.000 OA
ATOM     15  C   UNL     1       1.999   9.448  18.446  0.00  0.00    +0.000 C 
ATOM     16  O   UNL     1       2.513  10.277  17.703  0.00  0.00    +0.000 OA
ATOM     17  C   UNL     1       0.871   9.767  19.403  0.00  0.00    +0.000 C 
ATOM     18  C   UNL     1       0.730   8.924  20.440  0.00  0.00    +0.000 C 
ATOM     19  C   UNL     1       1.578   7.726  20.625  0.00  0.00    +0.000 C 
ATOM     20  O   UNL     1       1.825   7.308  21.745  0.00  0.00    +0.000 OA
ENDROOT
BRANCH  17  21
ATOM     21  N   UNL     1       0.114  10.928  19.196  0.00  0.00    +0.000 N 
ATOM     22  C   UNL     1      -1.298  10.924  18.738  0.00  0.00    +0.000 C 
ATOM     23  C   UNL     1      -1.492  11.954  17.616  0.00  0.00    +0.000 C 
ATOM     24  O   UNL     1      -1.107  13.270  18.053  0.00  0.00    +0.000 OA
ATOM     25  C   UNL     1       0.273  13.275  18.449  0.00  0.00    +0.000 C 
ATOM     26  C   UNL     1       0.540  12.285  19.596  0.00  0.00    +0.000 C 
ENDBRANCH  17  21
TORSDOF 1
ENDMDL
MODEL 6
REMARK VINA RESULT:      -7.0      2.180      7.488
REMARK  Name = 
REMARK  3 active torsions:
REMARK  status: ('A' for Active; 'I' for Inactive)
REMARK    1  A    between atoms: C_1  and  N_2
REMARK    2  A    between atoms: N_11  and  C_12
REMARK    3  A    between atoms: C_17  and  N_18
REMARK                            x       y       z     vdW  Elec       q    Type
REMARK                         _______ _______ _______ _____ _____    ______ ____
ROOT
ATOM      1  C   UNL     1       4.684   4.383  17.307  0.00  0.00    +0.000 C 
ATOM      2  N   UNL     1       3.762   4.949  18.276  0.00  0.00    +0.000 N 
ATOM      3  C   UNL     1       3.585   6.323  18.287  0.00  0.00    +0.000 A 
ATOM      4  O   UNL     1       4.330   7.109  17.710  0.00  0.00    +0.000 OA
ATOM      5  C   UNL     1       2.531   6.838  19.171  0.00  0.00    +0.000 A 
ATOM      6  C   UNL     1       2.000   8.133  19.092  0.00  0.00    +0.000 A 
ATOM      7  C   UNL     1       1.180   8.602  20.106  0.00  0.00    +0.000 A 
ATOM      8  C   UNL     1       0.847   7.741  21.129  0.00  0.00    +0.000 A 
ATOM      9  N   UNL     1       1.299   6.470  21.194  0.00  0.00    +0.000 NA
ATOM     10  C   UNL     1       2.139   6.027  20.225  0.00  0.00    +0.000 A 
ATOM     11  N   UNL     1       2.618   4.708  20.318  0.00  0.00    +0.000 N 
ATOM     12  C   UNL     1       2.258   3.890  21.465  0.00  0.00    +0.000 C 
ATOM     13  C   UNL     1       3.413   4.135  19.342  0.00  0.00    +0.000 A 
ATOM     14  O   UNL     1       3.816   2.974  19.438  0.00  0.00    +0.000 OA
ATOM     15  C   UNL     1       0.675   9.980  20.117  0.00  0.00    +0.000 C 
ATOM     16  O   UNL     1      -0.268  10.261  20.846  0.00  0.00    +0.000 OA
ATOM     17  C   UNL     1       1.375  10.986  19.228  0.00  0.00    +0.000 C 
ATOM     18  C   UNL     1       2.048  10.473  18.184  0.00  0.00    +0.000 C 
ATOM     19  C   UNL     1       2.157   9.020  17.932  0.00  0.00    +0.000 C 
ATOM     20  O   UNL     1       2.264   8.594  16.793  0.00  0.00    +0.000 OA
ENDROOT
BRANCH  17  21
ATOM     21  N   UNL     1       1.218  12.353  19.497  0.00  0.00    +0.000 N 
ATOM     22  C   UNL     1       1.930  13.068  20.586  0.00  0.00    +0.000 C 
ATOM     23  C   UNL     1       0.949  13.955  21.365  0.00  0.00    +0.000 C 
ATOM     24  O   UNL     1       0.294  14.891  20.489  0.00  0.00    +0.000 OA
ATOM     25  C   UNL     1      -0.431  14.188  19.468  0.00  0.00    +0.000 C 
ATOM     26  C   UNL     1       0.495  13.298  18.622  0.00  0.00    +0.000 C 
ENDBRANCH  17  21
TORSDOF 1
ENDMDL
MODEL 7
REMARK VINA RESULT:      -7.0      2.035      7.476
REMARK  Name = 
REMARK  3 active torsions:
REMARK  status: ('A' for Active; 'I' for Inactive)
REMARK    1  A    between atoms: C_1  and  N_2
REMARK    2  A    between atoms: N_11  and  C_12
REMARK    3  A    between atoms: C_17  and  N_18
REMARK                            x       y       z     vdW  Elec       q    Type
REMARK                         _______ _______ _______ _____ _____    ______ ____
ROOT
ATOM      1  C   UNL     1       3.028   3.841  20.858  0.00  0.00    +0.000 C 
ATOM      2  N   UNL     1       3.055   5.022  20.015  0.00  0.00    +0.000 N 
ATOM      3  C   UNL     1       2.073   5.982  20.199  0.00  0.00    +0.000 A 
ATOM      4  O   UNL     1       1.048   5.791  20.847  0.00  0.00    +0.000 OA
ATOM      5  C   UNL     1       2.228   7.228  19.437  0.00  0.00    +0.000 A 
ATOM      6  C   UNL     1       1.529   8.412  19.715  0.00  0.00    +0.000 A 
ATOM      7  C   UNL     1       1.569   9.460  18.808  0.00  0.00    +0.000 A 
ATOM      8  C   UNL     1       2.366   9.331  17.692  0.00  0.00    +0.000 A 
ATOM      9  N   UNL     1       3.094   8.222  17.436  0.00  0.00    +0.000 NA
ATOM     10  C   UNL     1       3.018   7.179  18.300  0.00  0.00    +0.000 A 
ATOM     11  N   UNL     1       3.765   6.024  18.008  0.00  0.00    +0.000 N 
ATOM     12  C   UNL     1       4.535   5.956  16.776  0.00  0.00    +0.000 C 
ATOM     13  C   UNL     1       3.821   4.939  18.862  0.00  0.00    +0.000 A 
ATOM     14  O   UNL     1       4.489   3.938  18.592  0.00  0.00    +0.000 OA
ATOM     15  C   UNL     1       0.781  10.683  19.006  0.00  0.00    +0.000 C 
ATOM     16  O   UNL     1       1.068  11.684  18.361  0.00  0.00    +0.000 OA
ATOM     17  C   UNL     1      -0.363  10.623  19.995  0.00  0.00    +0.000 C 
ATOM     18  C   UNL     1      -0.276   9.662  20.930  0.00  0.00    +0.000 C 
ATOM     19  C   UNL     1       0.830   8.682  20.977  0.00  0.00    +0.000 C 
ATOM     20  O   UNL     1       1.198   8.212  22.042  0.00  0.00    +0.000 OA
ENDROOT
BRANCH  17  21
ATOM     21  N   UNL     1      -1.374  11.591  19.922  0.00  0.00    +0.000 N 
ATOM     22  C   UNL     1      -1.548  12.681  20.915  0.00  0.00    +0.000 C 
ATOM     23  C   UNL     1      -3.025  12.796  21.319  0.00  0.00    +0.000 C 
ATOM     24  O   UNL     1      -3.856  13.025  20.167  0.00  0.00    +0.000 OA
ATOM     25  C   UNL     1      -3.718  11.943  19.234  0.00  0.00    +0.000 C 
ATOM     26  C   UNL     1      -2.264  11.784  18.758  0.00  0.00    +0.000 C 
ENDBRANCH  17  21
TORSDOF 1
ENDMDL
MODEL 8
REMARK VINA RESULT:      -6.9      2.133      7.490
REMARK  Name = 
REMARK  3 active torsions:
REMARK  status: ('A' for Active; 'I' for Inactive)
REMARK    1  A    between atoms: C_1  and  N_2
REMARK    2  A    between atoms: N_11  and  C_12
REMARK    3  A    between atoms: C_17  and  N_18
REMARK                            x       y       z     vdW  Elec       q    Type
REMARK                         _______ _______ _______ _____ _____    ______ ____
ROOT
ATOM      1  C   UNL     1       5.035   4.434  17.117  0.00  0.00    +0.000 C 
ATOM      2  N   UNL     1       4.074   4.898  18.102  0.00  0.00    +0.000 N 
ATOM      3  C   UNL     1       3.815   6.257  18.175  0.00  0.00    +0.000 A 
ATOM      4  O   UNL     1       4.516   7.112  17.644  0.00  0.00    +0.000 OA
ATOM      5  C   UNL     1       2.726   6.666  19.072  0.00  0.00    +0.000 A 
ATOM      6  C   UNL     1       2.119   7.930  19.048  0.00  0.00    +0.000 A 
ATOM      7  C   UNL     1       1.264   8.300  20.075  0.00  0.00    +0.000 A 
ATOM      8  C   UNL     1       0.975   7.373  21.053  0.00  0.00    +0.000 A 
ATOM      9  N   UNL     1       1.502   6.129  21.062  0.00  0.00    +0.000 NA
ATOM     10  C   UNL     1       2.375   5.784  20.082  0.00  0.00    +0.000 A 
ATOM     11  N   UNL     1       2.931   4.493  20.118  0.00  0.00    +0.000 N 
ATOM     12  C   UNL     1       2.611   3.601  21.221  0.00  0.00    +0.000 C 
ATOM     13  C   UNL     1       3.765   4.014  19.125  0.00  0.00    +0.000 A 
ATOM     14  O   UNL     1       4.237   2.876  19.170  0.00  0.00    +0.000 OA
ATOM     15  C   UNL     1       0.678   9.644  20.146  0.00  0.00    +0.000 C 
ATOM     16  O   UNL     1      -0.286   9.833  20.878  0.00  0.00    +0.000 OA
ATOM     17  C   UNL     1       1.323  10.731  19.313  0.00  0.00    +0.000 C 
ATOM     18  C   UNL     1       2.034  10.309  18.252  0.00  0.00    +0.000 C 
ATOM     19  C   UNL     1       2.231   8.878  17.934  0.00  0.00    +0.000 C 
ATOM     20  O   UNL     1       2.372   8.514  16.776  0.00  0.00    +0.000 OA
ENDROOT
BRANCH  17  21
ATOM     21  N   UNL     1       1.083  12.071  19.644  0.00  0.00    +0.000 N 
ATOM     22  C   UNL     1      -0.131  12.820  19.232  0.00  0.00    +0.000 C 
ATOM     23  C   UNL     1       0.261  14.200  18.684  0.00  0.00    +0.000 C 
ATOM     24  O   UNL     1       1.009  14.948  19.660  0.00  0.00    +0.000 OA
ATOM     25  C   UNL     1       2.205  14.238  20.017  0.00  0.00    +0.000 C 
ATOM     26  C   UNL     1       1.890  12.851  20.605  0.00  0.00    +0.000 C 
ENDBRANCH  17  21
TORSDOF 1
ENDMDL
MODEL 9
REMARK VINA RESULT:      -6.8      1.776      2.329
REMARK  Name = 
REMARK  3 active torsions:
REMARK  status: ('A' for Active; 'I' for Inactive)
REMARK    1  A    between atoms: C_1  and  N_2
REMARK    2  A    between atoms: N_11  and  C_12
REMARK    3  A    between atoms: C_17  and  N_18
REMARK                            x       y       z     vdW  Elec       q    Type
REMARK                         _______ _______ _______ _____ _____    ______ ____
ROOT
ATOM      1  C   UNL     1      -1.179  12.231  23.127  0.00  0.00    +0.000 C 
ATOM      2  N   UNL     1      -0.519  12.014  21.852  0.00  0.00    +0.000 N 
ATOM      3  C   UNL     1       0.192  10.839  21.674  0.00  0.00    +0.000 A 
ATOM      4  O   UNL     1       0.509  10.090  22.592  0.00  0.00    +0.000 OA
ATOM      5  C   UNL     1       0.710  10.589  20.322  0.00  0.00    +0.000 A 
ATOM      6  C   UNL     1       1.173   9.344  19.874  0.00  0.00    +0.000 A 
ATOM      7  C   UNL     1       1.851   9.257  18.668  0.00  0.00    +0.000 A 
ATOM      8  C   UNL     1       1.979  10.397  17.906  0.00  0.00    +0.000 A 
ATOM      9  N   UNL     1       1.489  11.595  18.290  0.00  0.00    +0.000 NA
ATOM     10  C   UNL     1       0.865  11.689  19.492  0.00  0.00    +0.000 A 
ATOM     11  N   UNL     1       0.379  12.947  19.888  0.00  0.00    +0.000 N 
ATOM     12  C   UNL     1       0.611  14.107  19.043  0.00  0.00    +0.000 C 
ATOM     13  C   UNL     1      -0.340  13.134  21.054  0.00  0.00    +0.000 A 
ATOM     14  O   UNL     1      -0.765  14.244  21.380  0.00  0.00    +0.000 OA
ATOM     15  C   UNL     1       2.437   7.994  18.201  0.00  0.00    +0.000 C 
ATOM     16  O   UNL     1       2.753   7.889  17.022  0.00  0.00    +0.000 OA
ATOM     17  C   UNL     1       2.632   6.895  19.222  0.00  0.00    +0.000 C 
ATOM     18  C   UNL     1       1.849   6.966  20.313  0.00  0.00    +0.000 C 
ATOM     19  C   UNL     1       0.891   8.069  20.545  0.00  0.00    +0.000 C 
ATOM     20  O   UNL     1      -0.135   7.875  21.179  0.00  0.00    +0.000 OA
ENDROOT
BRANCH  17  21
ATOM     21  N   UNL     1       3.535   5.861  18.941  0.00  0.00    +0.000 N 
ATOM     22  C   UNL     1       3.148   4.431  18.838  0.00  0.00    +0.000 C 
ATOM     23  C   UNL     1       4.137   3.559  19.624  0.00  0.00    +0.000 C 
ATOM     24  O   UNL     1       5.482   3.753  19.152  0.00  0.00    +0.000 OA
ATOM     25  C   UNL     1       5.864   5.129  19.301  0.00  0.00    +0.000 C 
ATOM     26  C   UNL     1       4.934   6.067  18.512  0.00  0.00    +0.000 C 
ENDBRANCH  17  21
TORSDOF 1
ENDMDL
