MODEL 1
REMARK VINA RESULT:      -6.4      0.000      0.000
REMARK  Name = 
REMARK  16 active torsions:
REMARK  status: ('A' for Active; 'I' for Inactive)
REMARK    1  A    between atoms: C_1  and  C_2
REMARK    2  A    between atoms: C_2  and  C_3
REMARK    3  A    between atoms: C_2  and  N_4
REMARK    4  A    between atoms: N_4  and  C_5
REMARK    5  A    between atoms: C_5  and  C_6
REMARK    6  A    between atoms: C_6  and  O_7
REMARK    7  A    between atoms: C_6  and  C_8
REMARK    8  A    between atoms: C_8  and  O_9
REMARK    9  A    between atoms: O_9  and  C_10
REMARK   10  A    between atoms: C_10  and  C_11
REMARK   11  A    between atoms: C_11  and  O_12
REMARK   12  A    between atoms: O_12  and  C_13
REMARK   13  A    between atoms: C_16  and  C_17
REMARK   14  A    between atoms: C_17  and  C_18
REMARK   15  A    between atoms: C_17  and  C_19
REMARK   16  A    between atoms: C_17  and  C_20
REMARK                            x       y       z     vdW  Elec       q    Type
REMARK                         _______ _______ _______ _____ _____    ______ ____
ROOT
ATOM      1  C   UNL     1       5.283   5.511  18.130  0.00  0.00    +0.000 C 
ENDROOT
BRANCH   1   2
ATOM      2  O   UNL     1       4.696   4.237  18.279  0.00  0.00    +0.000 OA
BRANCH   2   3
ATOM      3  C   UNL     1       4.943   3.725  19.570  0.00  0.00    +0.000 C 
BRANCH   3   4
ATOM      4  C   UNL     1       4.243   2.359  19.702  0.00  0.00    +0.000 C 
BRANCH   4   5
ATOM      5  O   UNL     1       5.191   1.338  19.884  0.00  0.00    +0.000 OA
ATOM      6  H   UNL     1       5.313   1.215  20.862  0.00  0.00    +0.000 HD
ENDBRANCH   4   5
BRANCH   4   7
ATOM      7  C   UNL     1       3.339   2.068  18.483  0.00  0.00    +0.000 C 
BRANCH   7   8
ATOM      8  N   UNL     1       1.981   1.679  18.899  0.00  0.00    +0.000 NA
ATOM      9  H   UNL     1       1.665   0.903  18.271  0.00  0.00    +0.000 HD
BRANCH   8  11
ATOM     10  C   UNL     1       0.869   3.496  20.129  0.00  0.00    +0.000 C 
ATOM     11  C   UNL     1       1.005   2.784  18.775  0.00  0.00    +0.000 C 
ATOM     12  C   UNL     1       1.427   3.819  17.716  0.00  0.00    +0.000 C 
ENDBRANCH   8  11
ENDBRANCH   7   8
ENDBRANCH   4   7
ENDBRANCH   3   4
ENDBRANCH   2   3
ENDBRANCH   1   2
BRANCH   1  13
ATOM     13  C   UNL     1       4.163   6.471  17.764  0.00  0.00    +0.000 C 
BRANCH  13  14
ATOM     14  O   UNL     1       3.208   6.561  18.761  0.00  0.00    +0.000 OA
BRANCH  14  15
ATOM     15  C   UNL     1       2.388   7.637  18.918  0.00  0.00    +0.000 A 
ATOM     16  C   UNL     1       2.102   8.512  17.853  0.00  0.00    +0.000 A 
ATOM     17  C   UNL     1       1.231   9.581  18.020  0.00  0.00    +0.000 A 
ATOM     18  C   UNL     1       0.604   9.827  19.260  0.00  0.00    +0.000 A 
ATOM     19  C   UNL     1       0.913   8.957  20.333  0.00  0.00    +0.000 A 
ATOM     20  C   UNL     1       1.793   7.879  20.161  0.00  0.00    +0.000 A 
BRANCH  18  21
ATOM     21  C   UNL     1      -0.407  10.979  19.447  0.00  0.00    +0.000 C 
ATOM     22  C   UNL     1       0.127  12.332  18.912  0.00  0.00    +0.000 C 
ATOM     23  C   UNL     1      -1.698  10.646  18.669  0.00  0.00    +0.000 C 
ATOM     24  C   UNL     1      -0.741  11.164  20.942  0.00  0.00    +0.000 C 
ENDBRANCH  18  21
ENDBRANCH  14  15
ENDBRANCH  13  14
ENDBRANCH   1  13
TORSDOF 11
ENDMDL
MODEL 2
REMARK VINA RESULT:      -6.2      1.802      3.157
REMARK  Name = 
REMARK  16 active torsions:
REMARK  status: ('A' for Active; 'I' for Inactive)
REMARK    1  A    between atoms: C_1  and  C_2
REMARK    2  A    between atoms: C_2  and  C_3
REMARK    3  A    between atoms: C_2  and  N_4
REMARK    4  A    between atoms: N_4  and  C_5
REMARK    5  A    between atoms: C_5  and  C_6
REMARK    6  A    between atoms: C_6  and  O_7
REMARK    7  A    between atoms: C_6  and  C_8
REMARK    8  A    between atoms: C_8  and  O_9
REMARK    9  A    between atoms: O_9  and  C_10
REMARK   10  A    between atoms: C_10  and  C_11
REMARK   11  A    between atoms: C_11  and  O_12
REMARK   12  A    between atoms: O_12  and  C_13
REMARK   13  A    between atoms: C_16  and  C_17
REMARK   14  A    between atoms: C_17  and  C_18
REMARK   15  A    between atoms: C_17  and  C_19
REMARK   16  A    between atoms: C_17  and  C_20
REMARK                            x       y       z     vdW  Elec       q    Type
REMARK                         _______ _______ _______ _____ _____    ______ ____
ROOT
ATOM      1  C   UNL     1       1.305   3.831  19.892  0.00  0.00    +0.000 C 
ENDROOT
BRANCH   1   2
ATOM      2  O   UNL     1       2.066   3.562  18.735  0.00  0.00    +0.000 OA
BRANCH   2   3
ATOM      3  C   UNL     1       2.668   2.290  18.822  0.00  0.00    +0.000 C 
BRANCH   3   4
ATOM      4  C   UNL     1       4.167   2.430  18.492  0.00  0.00    +0.000 C 
BRANCH   4   5
ATOM      5  O   UNL     1       4.935   2.381  19.669  0.00  0.00    +0.000 OA
ATOM      6  H   UNL     1       4.729   3.198  20.194  0.00  0.00    +0.000 HD
ENDBRANCH   4   5
BRANCH   4   7
ATOM      7  C   UNL     1       4.452   3.724  17.697  0.00  0.00    +0.000 C 
BRANCH   7   8
ATOM      8  N   UNL     1       5.421   3.489  16.614  0.00  0.00    +0.000 NA
ATOM      9  H   UNL     1       6.010   2.665  16.885  0.00  0.00    +0.000 HD
BRANCH   8  11
ATOM     10  C   UNL     1       7.482   4.572  17.407  0.00  0.00    +0.000 C 
ATOM     11  C   UNL     1       6.328   4.638  16.397  0.00  0.00    +0.000 C 
ATOM     12  C   UNL     1       6.919   4.652  14.975  0.00  0.00    +0.000 C 
ENDBRANCH   8  11
ENDBRANCH   7   8
ENDBRANCH   4   7
ENDBRANCH   3   4
ENDBRANCH   2   3
ENDBRANCH   1   2
BRANCH   1  13
ATOM     13  C   UNL     1       2.139   4.755  20.763  0.00  0.00    +0.000 C 
BRANCH  13  14
ATOM     14  O   UNL     1       2.756   5.751  20.024  0.00  0.00    +0.000 OA
BRANCH  14  15
ATOM     15  C   UNL     1       2.222   6.991  19.847  0.00  0.00    +0.000 A 
ATOM     16  C   UNL     1       2.321   7.672  18.620  0.00  0.00    +0.000 A 
ATOM     17  C   UNL     1       1.736   8.919  18.445  0.00  0.00    +0.000 A 
ATOM     18  C   UNL     1       1.023   9.547  19.489  0.00  0.00    +0.000 A 
ATOM     19  C   UNL     1       0.946   8.866  20.728  0.00  0.00    +0.000 A 
ATOM     20  C   UNL     1       1.539   7.607  20.902  0.00  0.00    +0.000 A 
BRANCH  18  21
ATOM     21  C   UNL     1       0.321  10.908  19.294  0.00  0.00    +0.000 C 
ATOM     22  C   UNL     1       1.237  11.957  18.615  0.00  0.00    +0.000 C 
ATOM     23  C   UNL     1      -0.914  10.711  18.390  0.00  0.00    +0.000 C 
ATOM     24  C   UNL     1      -0.123  11.484  20.655  0.00  0.00    +0.000 C 
ENDBRANCH  18  21
ENDBRANCH  14  15
ENDBRANCH  13  14
ENDBRANCH   1  13
TORSDOF 11
ENDMDL
MODEL 3
REMARK VINA RESULT:      -6.1      1.840      3.195
REMARK  Name = 
REMARK  16 active torsions:
REMARK  status: ('A' for Active; 'I' for Inactive)
REMARK    1  A    between atoms: C_1  and  C_2
REMARK    2  A    between atoms: C_2  and  C_3
REMARK    3  A    between atoms: C_2  and  N_4
REMARK    4  A    between atoms: N_4  and  C_5
REMARK    5  A    between atoms: C_5  and  C_6
REMARK    6  A    between atoms: C_6  and  O_7
REMARK    7  A    between atoms: C_6  and  C_8
REMARK    8  A    between atoms: C_8  and  O_9
REMARK    9  A    between atoms: O_9  and  C_10
REMARK   10  A    between atoms: C_10  and  C_11
REMARK   11  A    between atoms: C_11  and  O_12
REMARK   12  A    between atoms: O_12  and  C_13
REMARK   13  A    between atoms: C_16  and  C_17
REMARK   14  A    between atoms: C_17  and  C_18
REMARK   15  A    between atoms: C_17  and  C_19
REMARK   16  A    between atoms: C_17  and  C_20
REMARK                            x       y       z     vdW  Elec       q    Type
REMARK                         _______ _______ _______ _____ _____    ______ ____
ROOT
ATOM      1  C   UNL     1       1.528   3.534  20.536  0.00  0.00    +0.000 C 
ENDROOT
BRANCH   1   2
ATOM      2  O   UNL     1       2.411   2.448  20.350  0.00  0.00    +0.000 OA
BRANCH   2   3
ATOM      3  C   UNL     1       2.419   2.043  19.000  0.00  0.00    +0.000 C 
BRANCH   3   4
ATOM      4  C   UNL     1       3.838   2.243  18.433  0.00  0.00    +0.000 C 
BRANCH   4   5
ATOM      5  O   UNL     1       4.750   2.493  19.474  0.00  0.00    +0.000 OA
ATOM      6  H   UNL     1       5.484   1.829  19.394  0.00  0.00    +0.000 HD
ENDBRANCH   4   5
BRANCH   4   7
ATOM      7  C   UNL     1       3.872   3.372  17.380  0.00  0.00    +0.000 C 
BRANCH   7   8
ATOM      8  N   UNL     1       5.237   3.600  16.878  0.00  0.00    +0.000 NA
ATOM      9  H   UNL     1       5.789   4.052  17.645  0.00  0.00    +0.000 HD
BRANCH   8  11
ATOM     10  C   UNL     1       5.183   5.959  16.183  0.00  0.00    +0.000 C 
ATOM     11  C   UNL     1       5.274   4.503  15.706  0.00  0.00    +0.000 C 
ATOM     12  C   UNL     1       6.563   4.336  14.881  0.00  0.00    +0.000 C 
ENDBRANCH   8  11
ENDBRANCH   7   8
ENDBRANCH   4   7
ENDBRANCH   3   4
ENDBRANCH   2   3
ENDBRANCH   1   2
BRANCH   1  13
ATOM     13  C   UNL     1       2.371   4.712  20.993  0.00  0.00    +0.000 C 
BRANCH  13  14
ATOM     14  O   UNL     1       2.731   5.534  19.938  0.00  0.00    +0.000 OA
BRANCH  14  15
ATOM     15  C   UNL     1       2.253   6.798  19.776  0.00  0.00    +0.000 A 
ATOM     16  C   UNL     1       2.389   7.492  18.560  0.00  0.00    +0.000 A 
ATOM     17  C   UNL     1       1.859   8.766  18.400  0.00  0.00    +0.000 A 
ATOM     18  C   UNL     1       1.166   9.408  19.449  0.00  0.00    +0.000 A 
ATOM     19  C   UNL     1       1.052   8.713  20.677  0.00  0.00    +0.000 A 
ATOM     20  C   UNL     1       1.589   7.428  20.836  0.00  0.00    +0.000 A 
BRANCH  18  21
ATOM     21  C   UNL     1       0.525  10.801  19.270  0.00  0.00    +0.000 C 
ATOM     22  C   UNL     1      -0.727  10.766  18.358  0.00  0.00    +0.000 C 
ATOM     23  C   UNL     1       0.083  11.331  20.650  0.00  0.00    +0.000 C 
ATOM     24  C   UNL     1       1.537  11.782  18.641  0.00  0.00    +0.000 C 
ENDBRANCH  18  21
ENDBRANCH  14  15
ENDBRANCH  13  14
ENDBRANCH   1  13
TORSDOF 11
ENDMDL
MODEL 4
REMARK VINA RESULT:      -6.1      1.303      1.889
REMARK  Name = 
REMARK  16 active torsions:
REMARK  status: ('A' for Active; 'I' for Inactive)
REMARK    1  A    between atoms: C_1  and  C_2
REMARK    2  A    between atoms: C_2  and  C_3
REMARK    3  A    between atoms: C_2  and  N_4
REMARK    4  A    between atoms: N_4  and  C_5
REMARK    5  A    between atoms: C_5  and  C_6
REMARK    6  A    between atoms: C_6  and  O_7
REMARK    7  A    between atoms: C_6  and  C_8
REMARK    8  A    between atoms: C_8  and  O_9
REMARK    9  A    between atoms: O_9  and  C_10
REMARK   10  A    between atoms: C_10  and  C_11
REMARK   11  A    between atoms: C_11  and  O_12
REMARK   12  A    between atoms: O_12  and  C_13
REMARK   13  A    between atoms: C_16  and  C_17
REMARK   14  A    between atoms: C_17  and  C_18
REMARK   15  A    between atoms: C_17  and  C_19
REMARK   16  A    between atoms: C_17  and  C_20
REMARK                            x       y       z     vdW  Elec       q    Type
REMARK                         _______ _______ _______ _____ _____    ______ ____
ROOT
ATOM      1  C   UNL     1       5.251   5.952  17.074  0.00  0.00    +0.000 C 
ENDROOT
BRANCH   1   2
ATOM      2  O   UNL     1       4.475   4.947  16.458  0.00  0.00    +0.000 OA
BRANCH   2   3
ATOM      3  C   UNL     1       4.618   3.723  17.141  0.00  0.00    +0.000 C 
BRANCH   3   4
ATOM      4  C   UNL     1       4.792   4.014  18.645  0.00  0.00    +0.000 C 
BRANCH   4   5
ATOM      5  O   UNL     1       5.752   3.152  19.203  0.00  0.00    +0.000 OA
ATOM      6  H   UNL     1       5.717   3.264  20.189  0.00  0.00    +0.000 HD
ENDBRANCH   4   5
BRANCH   4   7
ATOM      7  C   UNL     1       3.448   3.911  19.399  0.00  0.00    +0.000 C 
BRANCH   7   8
ATOM      8  N   UNL     1       2.304   4.071  18.486  0.00  0.00    +0.000 NA
ATOM      9  H   UNL     1       2.246   5.084  18.221  0.00  0.00    +0.000 HD
BRANCH   8  11
ATOM     10  C   UNL     1       0.714   2.221  18.802  0.00  0.00    +0.000 C 
ATOM     11  C   UNL     1       1.016   3.695  19.108  0.00  0.00    +0.000 C 
ATOM     12  C   UNL     1       1.029   3.886  20.636  0.00  0.00    +0.000 C 
ENDBRANCH   8  11
ENDBRANCH   7   8
ENDBRANCH   4   7
ENDBRANCH   3   4
ENDBRANCH   2   3
ENDBRANCH   1   2
BRANCH   1  13
ATOM     13  C   UNL     1       4.362   7.177  17.204  0.00  0.00    +0.000 C 
BRANCH  13  14
ATOM     14  O   UNL     1       3.124   6.867  17.739  0.00  0.00    +0.000 OA
BRANCH  14  15
ATOM     15  C   UNL     1       2.363   7.759  18.433  0.00  0.00    +0.000 A 
ATOM     16  C   UNL     1       2.070   7.579  19.797  0.00  0.00    +0.000 A 
ATOM     17  C   UNL     1       1.328   8.519  20.499  0.00  0.00    +0.000 A 
ATOM     18  C   UNL     1       0.841   9.686  19.871  0.00  0.00    +0.000 A 
ATOM     19  C   UNL     1       1.120   9.850  18.493  0.00  0.00    +0.000 A 
ATOM     20  C   UNL     1       1.870   8.898  17.787  0.00  0.00    +0.000 A 
BRANCH  18  21
ATOM     21  C   UNL     1       0.060  10.766  20.650  0.00  0.00    +0.000 C 
ATOM     22  C   UNL     1       0.887  12.058  20.866  0.00  0.00    +0.000 C 
ATOM     23  C   UNL     1      -1.202  11.148  19.848  0.00  0.00    +0.000 C 
ATOM     24  C   UNL     1      -0.353  10.235  22.038  0.00  0.00    +0.000 C 
ENDBRANCH  18  21
ENDBRANCH  14  15
ENDBRANCH  13  14
ENDBRANCH   1  13
TORSDOF 11
ENDMDL
MODEL 5
REMARK VINA RESULT:      -6.0      0.911      1.773
REMARK  Name = 
REMARK  16 active torsions:
REMARK  status: ('A' for Active; 'I' for Inactive)
REMARK    1  A    between atoms: C_1  and  C_2
REMARK    2  A    between atoms: C_2  and  C_3
REMARK    3  A    between atoms: C_2  and  N_4
REMARK    4  A    between atoms: N_4  and  C_5
REMARK    5  A    between atoms: C_5  and  C_6
REMARK    6  A    between atoms: C_6  and  O_7
REMARK    7  A    between atoms: C_6  and  C_8
REMARK    8  A    between atoms: C_8  and  O_9
REMARK    9  A    between atoms: O_9  and  C_10
REMARK   10  A    between atoms: C_10  and  C_11
REMARK   11  A    between atoms: C_11  and  O_12
REMARK   12  A    between atoms: O_12  and  C_13
REMARK   13  A    between atoms: C_16  and  C_17
REMARK   14  A    between atoms: C_17  and  C_18
REMARK   15  A    between atoms: C_17  and  C_19
REMARK   16  A    between atoms: C_17  and  C_20
REMARK                            x       y       z     vdW  Elec       q    Type
REMARK                         _______ _______ _______ _____ _____    ______ ____
ROOT
ATOM      1  C   UNL     1       5.733   5.638  18.051  0.00  0.00    +0.000 C 
ENDROOT
BRANCH   1   2
ATOM      2  O   UNL     1       4.888   4.528  18.266  0.00  0.00    +0.000 OA
BRANCH   2   3
ATOM      3  C   UNL     1       5.186   3.909  19.497  0.00  0.00    +0.000 C 
BRANCH   3   4
ATOM      4  C   UNL     1       4.397   2.589  19.589  0.00  0.00    +0.000 C 
BRANCH   4   5
ATOM      5  O   UNL     1       5.179   1.592  20.197  0.00  0.00    +0.000 OA
ATOM      6  H   UNL     1       4.995   1.621  21.172  0.00  0.00    +0.000 HD
ENDBRANCH   4   5
BRANCH   4   7
ATOM      7  C   UNL     1       3.894   2.133  18.201  0.00  0.00    +0.000 C 
BRANCH   7   8
ATOM      8  N   UNL     1       2.426   2.033  18.165  0.00  0.00    +0.000 NA
ATOM      9  H   UNL     1       2.138   1.924  17.164  0.00  0.00    +0.000 HD
BRANCH   8  11
ATOM     10  C   UNL     1       1.276   4.112  17.527  0.00  0.00    +0.000 C 
ATOM     11  C   UNL     1       1.756   3.241  18.697  0.00  0.00    +0.000 C 
ATOM     12  C   UNL     1       0.544   2.893  19.580  0.00  0.00    +0.000 C 
ENDBRANCH   8  11
ENDBRANCH   7   8
ENDBRANCH   4   7
ENDBRANCH   3   4
ENDBRANCH   2   3
ENDBRANCH   1   2
BRANCH   1  13
ATOM     13  C   UNL     1       4.890   6.708  17.378  0.00  0.00    +0.000 C 
BRANCH  13  14
ATOM     14  O   UNL     1       3.536   6.512  17.586  0.00  0.00    +0.000 OA
BRANCH  14  15
ATOM     15  C   UNL     1       2.750   7.384  18.276  0.00  0.00    +0.000 A 
ATOM     16  C   UNL     1       2.341   7.128  19.597  0.00  0.00    +0.000 A 
ATOM     17  C   UNL     1       1.573   8.047  20.299  0.00  0.00    +0.000 A 
ATOM     18  C   UNL     1       1.177   9.269  19.714  0.00  0.00    +0.000 A 
ATOM     19  C   UNL     1       1.573   9.512  18.377  0.00  0.00    +0.000 A 
ATOM     20  C   UNL     1       2.348   8.581  17.670  0.00  0.00    +0.000 A 
BRANCH  18  21
ATOM     21  C   UNL     1       0.368  10.325  20.499  0.00  0.00    +0.000 C 
ATOM     22  C   UNL     1      -1.022  10.597  19.871  0.00  0.00    +0.000 C 
ATOM     23  C   UNL     1       0.140   9.814  21.937  0.00  0.00    +0.000 C 
ATOM     24  C   UNL     1       1.133  11.664  20.543  0.00  0.00    +0.000 C 
ENDBRANCH  18  21
ENDBRANCH  14  15
ENDBRANCH  13  14
ENDBRANCH   1  13
TORSDOF 11
ENDMDL
MODEL 6
REMARK VINA RESULT:      -6.0      2.073      3.574
REMARK  Name = 
REMARK  16 active torsions:
REMARK  status: ('A' for Active; 'I' for Inactive)
REMARK    1  A    between atoms: C_1  and  C_2
REMARK    2  A    between atoms: C_2  and  C_3
REMARK    3  A    between atoms: C_2  and  N_4
REMARK    4  A    between atoms: N_4  and  C_5
REMARK    5  A    between atoms: C_5  and  C_6
REMARK    6  A    between atoms: C_6  and  O_7
REMARK    7  A    between atoms: C_6  and  C_8
REMARK    8  A    between atoms: C_8  and  O_9
REMARK    9  A    between atoms: O_9  and  C_10
REMARK   10  A    between atoms: C_10  and  C_11
REMARK   11  A    between atoms: C_11  and  O_12
REMARK   12  A    between atoms: O_12  and  C_13
REMARK   13  A    between atoms: C_16  and  C_17
REMARK   14  A    between atoms: C_17  and  C_18
REMARK   15  A    between atoms: C_17  and  C_19
REMARK   16  A    between atoms: C_17  and  C_20
REMARK                            x       y       z     vdW  Elec       q    Type
REMARK                         _______ _______ _______ _____ _____    ______ ____
ROOT
ATOM      1  C   UNL     1       2.394   4.545  18.206  0.00  0.00    +0.000 C 
ENDROOT
BRANCH   1   2
ATOM      2  O   UNL     1       3.719   4.735  17.759  0.00  0.00    +0.000 OA
BRANCH   2   3
ATOM      3  C   UNL     1       4.575   3.766  18.320  0.00  0.00    +0.000 C 
BRANCH   3   4
ATOM      4  C   UNL     1       5.897   4.448  18.721  0.00  0.00    +0.000 C 
BRANCH   4   5
ATOM      5  O   UNL     1       5.654   5.749  19.192  0.00  0.00    +0.000 OA
ATOM      6  H   UNL     1       4.916   6.131  18.648  0.00  0.00    +0.000 HD
ENDBRANCH   4   5
BRANCH   4   7
ATOM      7  C   UNL     1       6.903   4.461  17.548  0.00  0.00    +0.000 C 
BRANCH   7   8
ATOM      8  N   UNL     1       6.328   3.852  16.337  0.00  0.00    +0.000 NA
ATOM      9  H   UNL     1       6.876   2.985  16.124  0.00  0.00    +0.000 HD
BRANCH   8  11
ATOM     10  C   UNL     1       6.038   3.942  13.897  0.00  0.00    +0.000 C 
ATOM     11  C   UNL     1       6.409   4.738  15.155  0.00  0.00    +0.000 C 
ATOM     12  C   UNL     1       5.464   5.948  15.268  0.00  0.00    +0.000 C 
ENDBRANCH   8  11
ENDBRANCH   7   8
ENDBRANCH   4   7
ENDBRANCH   3   4
ENDBRANCH   2   3
ENDBRANCH   1   2
BRANCH   1  13
ATOM     13  C   UNL     1       2.315   5.124  19.608  0.00  0.00    +0.000 C 
BRANCH  13  14
ATOM     14  O   UNL     1       2.861   6.394  19.678  0.00  0.00    +0.000 OA
BRANCH  14  15
ATOM     15  C   UNL     1       2.122   7.534  19.580  0.00  0.00    +0.000 A 
ATOM     16  C   UNL     1       1.411   8.052  20.677  0.00  0.00    +0.000 A 
ATOM     17  C   UNL     1       0.695   9.237  20.570  0.00  0.00    +0.000 A 
ATOM     18  C   UNL     1       0.655   9.962  19.360  0.00  0.00    +0.000 A 
ATOM     19  C   UNL     1       1.354   9.423  18.252  0.00  0.00    +0.000 A 
ATOM     20  C   UNL     1       2.075   8.226  18.364  0.00  0.00    +0.000 A 
BRANCH  18  21
ATOM     21  C   UNL     1      -0.092  11.308  19.239  0.00  0.00    +0.000 C 
ATOM     22  C   UNL     1      -1.235  11.261  18.194  0.00  0.00    +0.000 C 
ATOM     23  C   UNL     1      -0.721  11.657  20.604  0.00  0.00    +0.000 C 
ATOM     24  C   UNL     1       0.882  12.428  18.819  0.00  0.00    +0.000 C 
ENDBRANCH  18  21
ENDBRANCH  14  15
ENDBRANCH  13  14
ENDBRANCH   1  13
TORSDOF 11
ENDMDL
MODEL 7
REMARK VINA RESULT:      -6.0      2.532      6.952
REMARK  Name = 
REMARK  16 active torsions:
REMARK  status: ('A' for Active; 'I' for Inactive)
REMARK    1  A    between atoms: C_1  and  C_2
REMARK    2  A    between atoms: C_2  and  C_3
REMARK    3  A    between atoms: C_2  and  N_4
REMARK    4  A    between atoms: N_4  and  C_5
REMARK    5  A    between atoms: C_5  and  C_6
REMARK    6  A    between atoms: C_6  and  O_7
REMARK    7  A    between atoms: C_6  and  C_8
REMARK    8  A    between atoms: C_8  and  O_9
REMARK    9  A    between atoms: O_9  and  C_10
REMARK   10  A    between atoms: C_10  and  C_11
REMARK   11  A    between atoms: C_11  and  O_12
REMARK   12  A    between atoms: O_12  and  C_13
REMARK   13  A    between atoms: C_16  and  C_17
REMARK   14  A    between atoms: C_17  and  C_18
REMARK   15  A    between atoms: C_17  and  C_19
REMARK   16  A    between atoms: C_17  and  C_20
REMARK                            x       y       z     vdW  Elec       q    Type
REMARK                         _______ _______ _______ _____ _____    ______ ____
ROOT
ATOM      1  C   UNL     1       1.441   3.257  21.447  0.00  0.00    +0.000 C 
ENDROOT
BRANCH   1   2
ATOM      2  O   UNL     1       2.014   4.545  21.378  0.00  0.00    +0.000 OA
BRANCH   2   3
ATOM      3  C   UNL     1       1.264   5.376  20.521  0.00  0.00    +0.000 C 
BRANCH   3   4
ATOM      4  C   UNL     1       2.225   6.350  19.813  0.00  0.00    +0.000 C 
BRANCH   4   5
ATOM      5  O   UNL     1       3.553   6.093  20.197  0.00  0.00    +0.000 OA
ATOM      6  H   UNL     1       3.977   5.566  19.470  0.00  0.00    +0.000 HD
ENDBRANCH   4   5
BRANCH   4   7
ATOM      7  C   UNL     1       1.841   7.821  20.087  0.00  0.00    +0.000 C 
BRANCH   7   8
ATOM      8  N   UNL     1       1.400   8.012  21.478  0.00  0.00    +0.000 NA
ATOM      9  H   UNL     1       1.048   7.091  21.832  0.00  0.00    +0.000 HD
BRANCH   8  11
ATOM     10  C   UNL     1       0.103   9.357  23.079  0.00  0.00    +0.000 C 
ATOM     11  C   UNL     1       0.297   8.991  21.600  0.00  0.00    +0.000 C 
ATOM     12  C   UNL     1       0.572  10.282  20.807  0.00  0.00    +0.000 C 
ENDBRANCH   8  11
ENDBRANCH   7   8
ENDBRANCH   4   7
ENDBRANCH   3   4
ENDBRANCH   2   3
ENDBRANCH   1   2
BRANCH   1  13
ATOM     13  C   UNL     1       0.937   2.925  20.053  0.00  0.00    +0.000 C 
BRANCH  13  14
ATOM     14  O   UNL     1       1.879   2.236  19.309  0.00  0.00    +0.000 OA
BRANCH  14  15
ATOM     15  C   UNL     1       2.872   2.849  18.605  0.00  0.00    +0.000 A 
ATOM     16  C   UNL     1       4.166   3.005  19.134  0.00  0.00    +0.000 A 
ATOM     17  C   UNL     1       5.177   3.595  18.387  0.00  0.00    +0.000 A 
ATOM     18  C   UNL     1       4.943   4.059  17.075  0.00  0.00    +0.000 A 
ATOM     19  C   UNL     1       3.632   3.920  16.557  0.00  0.00    +0.000 A 
ATOM     20  C   UNL     1       2.614   3.324  17.314  0.00  0.00    +0.000 A 
BRANCH  18  21
ATOM     21  C   UNL     1       6.068   4.670  16.212  0.00  0.00    +0.000 C 
ATOM     22  C   UNL     1       5.854   6.180  15.937  0.00  0.00    +0.000 C 
ATOM     23  C   UNL     1       7.411   4.517  16.958  0.00  0.00    +0.000 C 
ATOM     24  C   UNL     1       6.151   3.952  14.849  0.00  0.00    +0.000 C 
ENDBRANCH  18  21
ENDBRANCH  14  15
ENDBRANCH  13  14
ENDBRANCH   1  13
TORSDOF 11
ENDMDL
MODEL 8
REMARK VINA RESULT:      -6.0      1.342      1.941
REMARK  Name = 
REMARK  16 active torsions:
REMARK  status: ('A' for Active; 'I' for Inactive)
REMARK    1  A    between atoms: C_1  and  C_2
REMARK    2  A    between atoms: C_2  and  C_3
REMARK    3  A    between atoms: C_2  and  N_4
REMARK    4  A    between atoms: N_4  and  C_5
REMARK    5  A    between atoms: C_5  and  C_6
REMARK    6  A    between atoms: C_6  and  O_7
REMARK    7  A    between atoms: C_6  and  C_8
REMARK    8  A    between atoms: C_8  and  O_9
REMARK    9  A    between atoms: O_9  and  C_10
REMARK   10  A    between atoms: C_10  and  C_11
REMARK   11  A    between atoms: C_11  and  O_12
REMARK   12  A    between atoms: O_12  and  C_13
REMARK   13  A    between atoms: C_16  and  C_17
REMARK   14  A    between atoms: C_17  and  C_18
REMARK   15  A    between atoms: C_17  and  C_19
REMARK   16  A    between atoms: C_17  and  C_20
REMARK                            x       y       z     vdW  Elec       q    Type
REMARK                         _______ _______ _______ _____ _____    ______ ____
ROOT
ATOM      1  C   UNL     1       3.403   5.985  18.188  0.00  0.00    +0.000 C 
ENDROOT
BRANCH   1   2
ATOM      2  O   UNL     1       3.098   4.770  17.539  0.00  0.00    +0.000 OA
BRANCH   2   3
ATOM      3  C   UNL     1       4.241   3.947  17.466  0.00  0.00    +0.000 C 
BRANCH   3   4
ATOM      4  C   UNL     1       4.909   3.906  18.854  0.00  0.00    +0.000 C 
BRANCH   4   5
ATOM      5  O   UNL     1       6.306   3.824  18.723  0.00  0.00    +0.000 OA
ATOM      6  H   UNL     1       6.547   2.860  18.697  0.00  0.00    +0.000 HD
ENDBRANCH   4   5
BRANCH   4   7
ATOM      7  C   UNL     1       4.361   2.743  19.710  0.00  0.00    +0.000 C 
BRANCH   7   8
ATOM      8  N   UNL     1       3.121   2.192  19.140  0.00  0.00    +0.000 NA
ATOM      9  H   UNL     1       2.873   2.766  18.300  0.00  0.00    +0.000 HD
BRANCH   8  11
ATOM     10  C   UNL     1       2.385   3.069  21.317  0.00  0.00    +0.000 C 
ATOM     11  C   UNL     1       1.980   2.254  20.080  0.00  0.00    +0.000 C 
ATOM     12  C   UNL     1       0.738   2.907  19.447  0.00  0.00    +0.000 C 
ENDBRANCH   8  11
ENDBRANCH   7   8
ENDBRANCH   4   7
ENDBRANCH   3   4
ENDBRANCH   2   3
ENDBRANCH   1   2
BRANCH   1  13
ATOM     13  C   UNL     1       2.309   6.220  19.217  0.00  0.00    +0.000 C 
BRANCH  13  14
ATOM     14  O   UNL     1       2.442   7.446  19.846  0.00  0.00    +0.000 OA
BRANCH  14  15
ATOM     15  C   UNL     1       1.575   8.480  19.662  0.00  0.00    +0.000 A 
ATOM     16  C   UNL     1       1.440   9.122  18.418  0.00  0.00    +0.000 A 
ATOM     17  C   UNL     1       0.522  10.148  18.238  0.00  0.00    +0.000 A 
ATOM     18  C   UNL     1      -0.308  10.582  19.294  0.00  0.00    +0.000 A 
ATOM     19  C   UNL     1      -0.152   9.947  20.550  0.00  0.00    +0.000 A 
ATOM     20  C   UNL     1       0.777   8.912  20.728  0.00  0.00    +0.000 A 
BRANCH  18  21
ATOM     21  C   UNL     1      -1.371  11.684  19.096  0.00  0.00    +0.000 C 
ATOM     22  C   UNL     1      -1.933  12.216  20.439  0.00  0.00    +0.000 C 
ATOM     23  C   UNL     1      -0.727  12.875  18.356  0.00  0.00    +0.000 C 
ATOM     24  C   UNL     1      -2.557  11.145  18.271  0.00  0.00    +0.000 C 
ENDBRANCH  18  21
ENDBRANCH  14  15
ENDBRANCH  13  14
ENDBRANCH   1  13
TORSDOF 11
ENDMDL
MODEL 9
REMARK VINA RESULT:      -5.9      3.351      7.774
REMARK  Name = 
REMARK  16 active torsions:
REMARK  status: ('A' for Active; 'I' for Inactive)
REMARK    1  A    between atoms: C_1  and  C_2
REMARK    2  A    between atoms: C_2  and  C_3
REMARK    3  A    between atoms: C_2  and  N_4
REMARK    4  A    between atoms: N_4  and  C_5
REMARK    5  A    between atoms: C_5  and  C_6
REMARK    6  A    between atoms: C_6  and  O_7
REMARK    7  A    between atoms: C_6  and  C_8
REMARK    8  A    between atoms: C_8  and  O_9
REMARK    9  A    between atoms: O_9  and  C_10
REMARK   10  A    between atoms: C_10  and  C_11
REMARK   11  A    between atoms: C_11  and  O_12
REMARK   12  A    between atoms: O_12  and  C_13
REMARK   13  A    between atoms: C_16  and  C_17
REMARK   14  A    between atoms: C_17  and  C_18
REMARK   15  A    between atoms: C_17  and  C_19
REMARK   16  A    between atoms: C_17  and  C_20
REMARK                            x       y       z     vdW  Elec       q    Type
REMARK                         _______ _______ _______ _____ _____    ______ ____
ROOT
ATOM      1  C   UNL     1       2.166  10.828  18.208  0.00  0.00    +0.000 C 
ENDROOT
BRANCH   1   2
ATOM      2  O   UNL     1       1.031  11.633  18.442  0.00  0.00    +0.000 OA
BRANCH   2   3
ATOM      3  C   UNL     1       0.100  10.953  19.254  0.00  0.00    +0.000 C 
BRANCH   3   4
ATOM      4  C   UNL     1      -1.080  11.900  19.550  0.00  0.00    +0.000 C 
BRANCH   4   5
ATOM      5  O   UNL     1      -1.616  11.631  20.821  0.00  0.00    +0.000 OA
ATOM      6  H   UNL     1      -1.725  10.647  20.898  0.00  0.00    +0.000 HD
ENDBRANCH   4   5
BRANCH   4   7
ATOM      7  C   UNL     1      -2.168  11.805  18.457  0.00  0.00    +0.000 C 
BRANCH   7   8
ATOM      8  N   UNL     1      -1.600  11.381  17.167  0.00  0.00    +0.000 NA
ATOM      9  H   UNL     1      -1.752  12.158  16.480  0.00  0.00    +0.000 HD
BRANCH   8  11
ATOM     10  C   UNL     1      -3.362   9.716  17.582  0.00  0.00    +0.000 C 
ATOM     11  C   UNL     1      -2.251  10.168  16.624  0.00  0.00    +0.000 C 
ATOM     12  C   UNL     1      -2.869  10.410  15.235  0.00  0.00    +0.000 C 
ENDBRANCH   8  11
ENDBRANCH   7   8
ENDBRANCH   4   7
ENDBRANCH   3   4
ENDBRANCH   2   3
ENDBRANCH   1   2
BRANCH   1  13
ATOM     13  C   UNL     1       1.675   9.393  18.113  0.00  0.00    +0.000 C 
BRANCH  13  14
ATOM     14  O   UNL     1       2.715   8.482  18.177  0.00  0.00    +0.000 OA
BRANCH  14  15
ATOM     15  C   UNL     1       2.557   7.194  18.590  0.00  0.00    +0.000 A 
ATOM     16  C   UNL     1       2.843   6.105  17.746  0.00  0.00    +0.000 A 
ATOM     17  C   UNL     1       2.716   4.798  18.197  0.00  0.00    +0.000 A 
ATOM     18  C   UNL     1       2.296   4.516  19.515  0.00  0.00    +0.000 A 
ATOM     19  C   UNL     1       1.988   5.615  20.352  0.00  0.00    +0.000 A 
ATOM     20  C   UNL     1       2.118   6.934  19.893  0.00  0.00    +0.000 A 
BRANCH  18  21
ATOM     21  C   UNL     1       2.201   3.070  20.048  0.00  0.00    +0.000 C 
ATOM     22  C   UNL     1       1.430   2.131  19.086  0.00  0.00    +0.000 C 
ATOM     23  C   UNL     1       3.626   2.501  20.214  0.00  0.00    +0.000 C 
ATOM     24  C   UNL     1       1.475   3.046  21.409  0.00  0.00    +0.000 C 
ENDBRANCH  18  21
ENDBRANCH  14  15
ENDBRANCH  13  14
ENDBRANCH   1  13
TORSDOF 11
ENDMDL
