MODEL 1
REMARK VINA RESULT:      -8.5      0.000      0.000
REMARK  Name = 
REMARK  8 active torsions:
REMARK  status: ('A' for Active; 'I' for Inactive)
REMARK    1  A    between atoms: C_1  and  C_2
REMARK    2  A    between atoms: C_2  and  C_3
REMARK    3  A    between atoms: C_2  and  C_4
REMARK    4  A    between atoms: C_9  and  C_10
REMARK    5  A    between atoms: C_13  and  C_14
REMARK    6  A    between atoms: C_14  and  N_15
REMARK    7  A    between atoms: CA_22  and  C_23
REMARK    8  A    between atoms: C_23  and  OXT_25
REMARK                            x       y       z     vdW  Elec       q    Type
REMARK                         _______ _______ _______ _____ _____    ______ ____
ROOT
ATOM      1  C   UNL     1       1.486   8.199  20.244  0.00  0.00    +0.000 A 
ATOM      2  C   UNL     1       1.237   9.282  19.369  0.00  0.00    +0.000 A 
ATOM      3  C   UNL     1       1.700   9.295  18.059  0.00  0.00    +0.000 A 
ATOM      4  C   UNL     1       2.441   8.224  17.568  0.00  0.00    +0.000 A 
ATOM      5  C   UNL     1       2.748   7.130  18.405  0.00  0.00    +0.000 A 
ATOM      6  C   UNL     1       3.524   5.925  18.243  0.00  0.00    +0.000 A 
ATOM      7  CA  UNL     1       3.452   5.211  19.429  0.00  0.00    +0.000 A 
ATOM      8  N   UNL     1       2.670   5.961  20.283  0.00  0.00    +0.000 N 
ATOM      9  C   UNL     1       2.245   7.135  19.705  0.00  0.00    +0.000 A 
ATOM     10  H   UNL     1       2.495   5.722  21.249  0.00  0.00    +0.000 HD
ENDROOT
BRANCH   6  11
ATOM     11  C   UNL     1       4.293   5.524  17.062  0.00  0.00    +0.000 A 
ATOM     12  C   UNL     1       4.370   4.173  16.700  0.00  0.00    +0.000 A 
ATOM     13  C   UNL     1       5.158   3.762  15.624  0.00  0.00    +0.000 A 
ATOM     14  C   UNL     1       5.862   4.703  14.857  0.00  0.00    +0.000 A 
ATOM     15  C   UNL     1       5.742   6.058  15.182  0.00  0.00    +0.000 A 
ATOM     16  C   UNL     1       4.993   6.460  16.290  0.00  0.00    +0.000 A 
BRANCH  14  17
ATOM     17  C   UNL     1       6.717   4.258  13.701  0.00  0.00    +0.000 C 
BRANCH  17  18
ATOM     18  N   UNL     1       5.957   3.525  12.702  0.00  0.00    +0.000 N 
ATOM     19  C   UNL     1       4.735   3.862  12.186  0.00  0.00    +0.000 A 
ATOM     20  C   UNL     1       4.429   2.884  11.267  0.00  0.00    +0.000 A 
ATOM     21  C   UNL     1       5.547   2.033  11.266  0.00  0.00    +0.000 A 
ATOM     22  N   UNL     1       6.489   2.427  12.125  0.00  0.00    +0.000 NA
ENDBRANCH  17  18
ENDBRANCH  14  17
ENDBRANCH   6  11
BRANCH   1  24
ATOM     23  C   UNL     1       1.698   9.334  22.485  0.00  0.00    +0.000 C 
ATOM     24  C   UNL     1       0.956   8.280  21.664  0.00  0.00    +0.000 C 
ATOM     25  C   UNL     1      -0.557   8.504  21.683  0.00  0.00    +0.000 C 
ENDBRANCH   1  24
BRANCH   7  26
ATOM     26  C   UNL     1       4.111   3.986  19.836  0.00  0.00    +0.000 C 
ATOM     27  O   UNL     1       5.306   3.739  19.756  0.00  0.00    +0.000 OA
BRANCH  26  28
ATOM     28  OXT UNL     1       3.238   3.072  20.329  0.00  0.00    +0.000 OA
ATOM     29  HXT UNL     1       2.895   2.451  19.662  0.00  0.00    +0.000 HD
ENDBRANCH  26  28
ENDBRANCH   7  26
TORSDOF 6
ENDMDL
MODEL 2
REMARK VINA RESULT:      -7.9      4.947      7.584
REMARK  Name = 
REMARK  8 active torsions:
REMARK  status: ('A' for Active; 'I' for Inactive)
REMARK    1  A    between atoms: C_1  and  C_2
REMARK    2  A    between atoms: C_2  and  C_3
REMARK    3  A    between atoms: C_2  and  C_4
REMARK    4  A    between atoms: C_9  and  C_10
REMARK    5  A    between atoms: C_13  and  C_14
REMARK    6  A    between atoms: C_14  and  N_15
REMARK    7  A    between atoms: CA_22  and  C_23
REMARK    8  A    between atoms: C_23  and  OXT_25
REMARK                            x       y       z     vdW  Elec       q    Type
REMARK                         _______ _______ _______ _____ _____    ______ ____
ROOT
ATOM      1  C   UNL     1       0.107  14.960  19.282  0.00  0.00    +0.000 A 
ATOM      2  C   UNL     1       1.312  15.300  19.940  0.00  0.00    +0.000 A 
ATOM      3  C   UNL     1       2.299  14.359  20.207  0.00  0.00    +0.000 A 
ATOM      4  C   UNL     1       2.120  13.031  19.832  0.00  0.00    +0.000 A 
ATOM      5  C   UNL     1       0.924  12.627  19.199  0.00  0.00    +0.000 A 
ATOM      6  C   UNL     1       0.402  11.360  18.751  0.00  0.00    +0.000 A 
ATOM      7  CA  UNL     1      -0.842  11.592  18.182  0.00  0.00    +0.000 A 
ATOM      8  N   UNL     1      -1.070  12.948  18.294  0.00  0.00    +0.000 N 
ATOM      9  C   UNL     1      -0.034  13.600  18.921  0.00  0.00    +0.000 A 
ATOM     10  H   UNL     1      -1.931  13.402  18.024  0.00  0.00    +0.000 HD
ENDROOT
BRANCH   6  11
ATOM     11  C   UNL     1       1.033  10.046  18.893  0.00  0.00    +0.000 A 
ATOM     12  C   UNL     1       0.957   9.359  20.111  0.00  0.00    +0.000 A 
ATOM     13  C   UNL     1       1.615   8.141  20.291  0.00  0.00    +0.000 A 
ATOM     14  C   UNL     1       2.338   7.561  19.236  0.00  0.00    +0.000 A 
ATOM     15  C   UNL     1       2.369   8.217  18.002  0.00  0.00    +0.000 A 
ATOM     16  C   UNL     1       1.751   9.460  17.842  0.00  0.00    +0.000 A 
BRANCH  14  17
ATOM     17  C   UNL     1       3.053   6.251  19.433  0.00  0.00    +0.000 C 
BRANCH  17  18
ATOM     18  N   UNL     1       2.153   5.112  19.347  0.00  0.00    +0.000 N 
ATOM     19  C   UNL     1       1.899   4.345  18.243  0.00  0.00    +0.000 A 
ATOM     20  C   UNL     1       1.002   3.383  18.648  0.00  0.00    +0.000 A 
ATOM     21  C   UNL     1       0.816   3.624  20.019  0.00  0.00    +0.000 A 
ATOM     22  N   UNL     1       1.528   4.664  20.456  0.00  0.00    +0.000 NA
ENDBRANCH  17  18
ENDBRANCH  14  17
ENDBRANCH   6  11
BRANCH   1  24
ATOM     23  C   UNL     1      -1.456  16.616  20.364  0.00  0.00    +0.000 C 
ATOM     24  C   UNL     1      -0.922  16.051  19.048  0.00  0.00    +0.000 C 
ATOM     25  C   UNL     1      -0.373  17.151  18.137  0.00  0.00    +0.000 C 
ENDBRANCH   1  24
BRANCH   7  26
ATOM     26  C   UNL     1      -1.828  10.668  17.660  0.00  0.00    +0.000 C 
ATOM     27  O   UNL     1      -2.466   9.842  18.298  0.00  0.00    +0.000 OA
BRANCH  26  28
ATOM     28  OXT UNL     1      -1.986  10.790  16.318  0.00  0.00    +0.000 OA
ATOM     29  HXT UNL     1      -1.475  10.144  15.798  0.00  0.00    +0.000 HD
ENDBRANCH  26  28
ENDBRANCH   7  26
TORSDOF 6
ENDMDL
MODEL 3
REMARK VINA RESULT:      -7.7      5.026      9.415
REMARK  Name = 
REMARK  8 active torsions:
REMARK  status: ('A' for Active; 'I' for Inactive)
REMARK    1  A    between atoms: C_1  and  C_2
REMARK    2  A    between atoms: C_2  and  C_3
REMARK    3  A    between atoms: C_2  and  C_4
REMARK    4  A    between atoms: C_9  and  C_10
REMARK    5  A    between atoms: C_13  and  C_14
REMARK    6  A    between atoms: C_14  and  N_15
REMARK    7  A    between atoms: CA_22  and  C_23
REMARK    8  A    between atoms: C_23  and  OXT_25
REMARK                            x       y       z     vdW  Elec       q    Type
REMARK                         _______ _______ _______ _____ _____    ______ ____
ROOT
ATOM      1  C   UNL     1       2.504   6.163  19.512  0.00  0.00    +0.000 A 
ATOM      2  C   UNL     1       2.985   6.304  18.190  0.00  0.00    +0.000 A 
ATOM      3  C   UNL     1       2.912   7.509  17.501  0.00  0.00    +0.000 A 
ATOM      4  C   UNL     1       2.344   8.627  18.105  0.00  0.00    +0.000 A 
ATOM      5  C   UNL     1       1.818   8.537  19.413  0.00  0.00    +0.000 A 
ATOM      6  C   UNL     1       1.126   9.454  20.283  0.00  0.00    +0.000 A 
ATOM      7  CA  UNL     1       0.863   8.793  21.474  0.00  0.00    +0.000 A 
ATOM      8  N   UNL     1       1.368   7.518  21.324  0.00  0.00    +0.000 N 
ATOM      9  C   UNL     1       1.933   7.322  20.086  0.00  0.00    +0.000 A 
ATOM     10  H   UNL     1       1.264   6.783  22.010  0.00  0.00    +0.000 HD
ENDROOT
BRANCH   6  11
ATOM     11  C   UNL     1       0.724  10.829  19.976  0.00  0.00    +0.000 A 
ATOM     12  C   UNL     1      -0.223  11.076  18.974  0.00  0.00    +0.000 A 
ATOM     13  C   UNL     1      -0.563  12.381  18.613  0.00  0.00    +0.000 A 
ATOM     14  C   UNL     1       0.012  13.476  19.278  0.00  0.00    +0.000 A 
ATOM     15  C   UNL     1       0.916  13.231  20.316  0.00  0.00    +0.000 A 
ATOM     16  C   UNL     1       1.292  11.924  20.639  0.00  0.00    +0.000 A 
BRANCH  14  17
ATOM     17  C   UNL     1      -0.349  14.883  18.884  0.00  0.00    +0.000 C 
BRANCH  17  18
ATOM     18  N   UNL     1       0.717  15.829  19.174  0.00  0.00    +0.000 N 
ATOM     19  C   UNL     1       1.850  16.044  18.439  0.00  0.00    +0.000 A 
ATOM     20  C   UNL     1       2.543  17.037  19.092  0.00  0.00    +0.000 A 
ATOM     21  C   UNL     1       1.725  17.387  20.179  0.00  0.00    +0.000 A 
ATOM     22  N   UNL     1       0.602  16.668  20.226  0.00  0.00    +0.000 NA
ENDBRANCH  17  18
ENDBRANCH  14  17
ENDBRANCH   6  11
BRANCH   1  24
ATOM     23  C   UNL     1       1.251   4.110  20.270  0.00  0.00    +0.000 C 
ATOM     24  C   UNL     1       2.611   4.804  20.179  0.00  0.00    +0.000 C 
ATOM     25  C   UNL     1       3.654   3.924  19.490  0.00  0.00    +0.000 C 
ENDBRANCH   1  24
BRANCH   7  26
ATOM     26  C   UNL     1       0.121   9.215  22.645  0.00  0.00    +0.000 C 
ATOM     27  O   UNL     1       0.465  10.055  23.464  0.00  0.00    +0.000 OA
BRANCH  26  28
ATOM     28  OXT UNL     1      -1.053   8.548  22.776  0.00  0.00    +0.000 OA
ATOM     29  HXT UNL     1      -1.082   7.941  23.536  0.00  0.00    +0.000 HD
ENDBRANCH  26  28
ENDBRANCH   7  26
TORSDOF 6
ENDMDL
MODEL 4
REMARK VINA RESULT:      -7.6      4.868      7.424
REMARK  Name = 
REMARK  8 active torsions:
REMARK  status: ('A' for Active; 'I' for Inactive)
REMARK    1  A    between atoms: C_1  and  C_2
REMARK    2  A    between atoms: C_2  and  C_3
REMARK    3  A    between atoms: C_2  and  C_4
REMARK    4  A    between atoms: C_9  and  C_10
REMARK    5  A    between atoms: C_13  and  C_14
REMARK    6  A    between atoms: C_14  and  N_15
REMARK    7  A    between atoms: CA_22  and  C_23
REMARK    8  A    between atoms: C_23  and  OXT_25
REMARK                            x       y       z     vdW  Elec       q    Type
REMARK                         _______ _______ _______ _____ _____    ______ ____
ROOT
ATOM      1  C   UNL     1       0.550  15.097  18.819  0.00  0.00    +0.000 A 
ATOM      2  C   UNL     1       1.785  15.388  19.444  0.00  0.00    +0.000 A 
ATOM      3  C   UNL     1       2.672  14.390  19.830  0.00  0.00    +0.000 A 
ATOM      4  C   UNL     1       2.357  13.052  19.612  0.00  0.00    +0.000 A 
ATOM      5  C   UNL     1       1.124  12.699  19.020  0.00  0.00    +0.000 A 
ATOM      6  C   UNL     1       0.474  11.448  18.719  0.00  0.00    +0.000 A 
ATOM      7  CA  UNL     1      -0.741  11.736  18.115  0.00  0.00    +0.000 A 
ATOM      8  N   UNL     1      -0.828  13.112  18.064  0.00  0.00    +0.000 N 
ATOM      9  C   UNL     1       0.270  13.725  18.619  0.00  0.00    +0.000 A 
ATOM     10  H   UNL     1      -1.639  13.616  17.734  0.00  0.00    +0.000 HD
ENDROOT
BRANCH   6  11
ATOM     11  C   UNL     1       0.968  10.103  19.021  0.00  0.00    +0.000 A 
ATOM     12  C   UNL     1       0.737   9.537  20.281  0.00  0.00    +0.000 A 
ATOM     13  C   UNL     1       1.263   8.288  20.615  0.00  0.00    +0.000 A 
ATOM     14  C   UNL     1       2.007   7.555  19.677  0.00  0.00    +0.000 A 
ATOM     15  C   UNL     1       2.193   8.093  18.400  0.00  0.00    +0.000 A 
ATOM     16  C   UNL     1       1.707   9.366  18.087  0.00  0.00    +0.000 A 
BRANCH  14  17
ATOM     17  C   UNL     1       2.581   6.212  20.040  0.00  0.00    +0.000 C 
BRANCH  17  18
ATOM     18  N   UNL     1       2.786   5.366  18.875  0.00  0.00    +0.000 N 
ATOM     19  C   UNL     1       3.954   5.178  18.189  0.00  0.00    +0.000 A 
ATOM     20  C   UNL     1       3.664   4.285  17.182  0.00  0.00    +0.000 A 
ATOM     21  C   UNL     1       2.312   3.957  17.377  0.00  0.00    +0.000 A 
ATOM     22  N   UNL     1       1.774   4.598  18.416  0.00  0.00    +0.000 NA
ENDBRANCH  17  18
ENDBRANCH  14  17
ENDBRANCH   6  11
BRANCH   1  24
ATOM     23  C   UNL     1      -1.328  16.596  19.582  0.00  0.00    +0.000 C 
ATOM     24  C   UNL     1      -0.362  16.251  18.448  0.00  0.00    +0.000 C 
ATOM     25  C   UNL     1       0.438  17.472  17.991  0.00  0.00    +0.000 C 
ENDBRANCH   1  24
BRANCH   7  26
ATOM     26  C   UNL     1      -1.818  10.862  17.696  0.00  0.00    +0.000 C 
ATOM     27  O   UNL     1      -2.524  10.173  18.420  0.00  0.00    +0.000 OA
BRANCH  26  28
ATOM     28  OXT UNL     1      -1.979  10.856  16.349  0.00  0.00    +0.000 OA
ATOM     29  HXT UNL     1      -1.297  10.353  15.870  0.00  0.00    +0.000 HD
ENDBRANCH  26  28
ENDBRANCH   7  26
TORSDOF 6
ENDMDL
MODEL 5
REMARK VINA RESULT:      -7.6      3.956      6.038
REMARK  Name = 
REMARK  8 active torsions:
REMARK  status: ('A' for Active; 'I' for Inactive)
REMARK    1  A    between atoms: C_1  and  C_2
REMARK    2  A    between atoms: C_2  and  C_3
REMARK    3  A    between atoms: C_2  and  C_4
REMARK    4  A    between atoms: C_9  and  C_10
REMARK    5  A    between atoms: C_13  and  C_14
REMARK    6  A    between atoms: C_14  and  N_15
REMARK    7  A    between atoms: CA_22  and  C_23
REMARK    8  A    between atoms: C_23  and  OXT_25
REMARK                            x       y       z     vdW  Elec       q    Type
REMARK                         _______ _______ _______ _____ _____    ______ ____
ROOT
ATOM      1  C   UNL     1      -2.112  11.947  19.745  0.00  0.00    +0.000 A 
ATOM      2  C   UNL     1      -2.439  11.850  18.372  0.00  0.00    +0.000 A 
ATOM      3  C   UNL     1      -1.849  10.909  17.536  0.00  0.00    +0.000 A 
ATOM      4  C   UNL     1      -0.897  10.027  18.038  0.00  0.00    +0.000 A 
ATOM      5  C   UNL     1      -0.507  10.098  19.394  0.00  0.00    +0.000 A 
ATOM      6  C   UNL     1       0.466   9.402  20.198  0.00  0.00    +0.000 A 
ATOM      7  CA  UNL     1       0.385   9.903  21.489  0.00  0.00    +0.000 A 
ATOM      8  N   UNL     1      -0.593  10.875  21.464  0.00  0.00    +0.000 N 
ATOM      9  C   UNL     1      -1.138  11.034  20.211  0.00  0.00    +0.000 A 
ATOM     10  H   UNL     1      -0.828  11.463  22.251  0.00  0.00    +0.000 HD
ENDROOT
BRANCH   6  11
ATOM     11  C   UNL     1       1.409   8.376  19.750  0.00  0.00    +0.000 A 
ATOM     12  C   UNL     1       2.175   8.582  18.595  0.00  0.00    +0.000 A 
ATOM     13  C   UNL     1       3.023   7.586  18.108  0.00  0.00    +0.000 A 
ATOM     14  C   UNL     1       3.155   6.367  18.791  0.00  0.00    +0.000 A 
ATOM     15  C   UNL     1       2.434   6.179  19.974  0.00  0.00    +0.000 A 
ATOM     16  C   UNL     1       1.548   7.159  20.430  0.00  0.00    +0.000 A 
BRANCH  14  17
ATOM     17  C   UNL     1       4.064   5.291  18.261  0.00  0.00    +0.000 C 
BRANCH  17  18
ATOM     18  N   UNL     1       5.470   5.634  18.408  0.00  0.00    +0.000 N 
ATOM     19  C   UNL     1       6.203   6.462  17.604  0.00  0.00    +0.000 A 
ATOM     20  C   UNL     1       7.469   6.493  18.145  0.00  0.00    +0.000 A 
ATOM     21  C   UNL     1       7.383   5.693  19.297  0.00  0.00    +0.000 A 
ATOM     22  N   UNL     1       6.164   5.181  19.474  0.00  0.00    +0.000 NA
ENDBRANCH  17  18
ENDBRANCH  14  17
ENDBRANCH   6  11
BRANCH   1  24
ATOM     23  C   UNL     1      -2.067  14.357  20.483  0.00  0.00    +0.000 C 
ATOM     24  C   UNL     1      -2.795  13.016  20.577  0.00  0.00    +0.000 C 
ATOM     25  C   UNL     1      -4.275  13.146  20.214  0.00  0.00    +0.000 C 
ENDBRANCH   1  24
BRANCH   7  26
ATOM     26  C   UNL     1       1.187   9.622  22.663  0.00  0.00    +0.000 C 
ATOM     27  O   UNL     1       2.393   9.416  22.692  0.00  0.00    +0.000 OA
BRANCH  26  28
ATOM     28  OXT UNL     1       0.443   9.589  23.797  0.00  0.00    +0.000 OA
ATOM     29  HXT UNL     1      -0.255  10.267  23.834  0.00  0.00    +0.000 HD
ENDBRANCH  26  28
ENDBRANCH   7  26
TORSDOF 6
ENDMDL
MODEL 6
REMARK VINA RESULT:      -7.5      5.054      9.831
REMARK  Name = 
REMARK  8 active torsions:
REMARK  status: ('A' for Active; 'I' for Inactive)
REMARK    1  A    between atoms: C_1  and  C_2
REMARK    2  A    between atoms: C_2  and  C_3
REMARK    3  A    between atoms: C_2  and  C_4
REMARK    4  A    between atoms: C_9  and  C_10
REMARK    5  A    between atoms: C_13  and  C_14
REMARK    6  A    between atoms: C_14  and  N_15
REMARK    7  A    between atoms: CA_22  and  C_23
REMARK    8  A    between atoms: C_23  and  OXT_25
REMARK                            x       y       z     vdW  Elec       q    Type
REMARK                         _______ _______ _______ _____ _____    ______ ____
ROOT
ATOM      1  C   UNL     1       2.494   6.207  19.550  0.00  0.00    +0.000 A 
ATOM      2  C   UNL     1       2.984   6.334  18.230  0.00  0.00    +0.000 A 
ATOM      3  C   UNL     1       2.910   7.529  17.525  0.00  0.00    +0.000 A 
ATOM      4  C   UNL     1       2.332   8.652  18.111  0.00  0.00    +0.000 A 
ATOM      5  C   UNL     1       1.798   8.577  19.416  0.00  0.00    +0.000 A 
ATOM      6  C   UNL     1       1.095   9.502  20.270  0.00  0.00    +0.000 A 
ATOM      7  CA  UNL     1       0.828   8.855  21.467  0.00  0.00    +0.000 A 
ATOM      8  N   UNL     1       1.340   7.580  21.337  0.00  0.00    +0.000 N 
ATOM      9  C   UNL     1       1.914   7.371  20.105  0.00  0.00    +0.000 A 
ATOM     10  H   UNL     1       1.235   6.854  22.032  0.00  0.00    +0.000 HD
ENDROOT
BRANCH   6  11
ATOM     11  C   UNL     1       0.690  10.870  19.942  0.00  0.00    +0.000 A 
ATOM     12  C   UNL     1      -0.366  11.095  19.050  0.00  0.00    +0.000 A 
ATOM     13  C   UNL     1      -0.719  12.390  18.666  0.00  0.00    +0.000 A 
ATOM     14  C   UNL     1      -0.044  13.499  19.198  0.00  0.00    +0.000 A 
ATOM     15  C   UNL     1       0.974  13.280  20.131  0.00  0.00    +0.000 A 
ATOM     16  C   UNL     1       1.357  11.981  20.474  0.00  0.00    +0.000 A 
BRANCH  14  17
ATOM     17  C   UNL     1      -0.420  14.894  18.778  0.00  0.00    +0.000 C 
BRANCH  17  18
ATOM     18  N   UNL     1      -0.918  15.690  19.889  0.00  0.00    +0.000 N 
ATOM     19  C   UNL     1      -0.428  16.890  20.327  0.00  0.00    +0.000 A 
ATOM     20  C   UNL     1      -1.228  17.263  21.384  0.00  0.00    +0.000 A 
ATOM     21  C   UNL     1      -2.197  16.250  21.471  0.00  0.00    +0.000 A 
ATOM     22  N   UNL     1      -2.026  15.297  20.553  0.00  0.00    +0.000 NA
ENDBRANCH  17  18
ENDBRANCH  14  17
ENDBRANCH   6  11
BRANCH   1  24
ATOM     23  C   UNL     1       1.248   4.154  20.318  0.00  0.00    +0.000 C 
ATOM     24  C   UNL     1       2.603   4.858  20.236  0.00  0.00    +0.000 C 
ATOM     25  C   UNL     1       3.662   3.977  19.571  0.00  0.00    +0.000 C 
ENDBRANCH   1  24
BRANCH   7  26
ATOM     26  C   UNL     1       0.076   9.288  22.627  0.00  0.00    +0.000 C 
ATOM     27  O   UNL     1       0.385  10.179  23.406  0.00  0.00    +0.000 OA
BRANCH  26  28
ATOM     28  OXT UNL     1      -1.062   8.569  22.799  0.00  0.00    +0.000 OA
ATOM     29  HXT UNL     1      -1.332   8.471  23.729  0.00  0.00    +0.000 HD
ENDBRANCH  26  28
ENDBRANCH   7  26
TORSDOF 6
ENDMDL
MODEL 7
REMARK VINA RESULT:      -7.5      5.047      9.421
REMARK  Name = 
REMARK  8 active torsions:
REMARK  status: ('A' for Active; 'I' for Inactive)
REMARK    1  A    between atoms: C_1  and  C_2
REMARK    2  A    between atoms: C_2  and  C_3
REMARK    3  A    between atoms: C_2  and  C_4
REMARK    4  A    between atoms: C_9  and  C_10
REMARK    5  A    between atoms: C_13  and  C_14
REMARK    6  A    between atoms: C_14  and  N_15
REMARK    7  A    between atoms: CA_22  and  C_23
REMARK    8  A    between atoms: C_23  and  OXT_25
REMARK                            x       y       z     vdW  Elec       q    Type
REMARK                         _______ _______ _______ _____ _____    ______ ____
ROOT
ATOM      1  C   UNL     1       2.449   6.117  19.552  0.00  0.00    +0.000 A 
ATOM      2  C   UNL     1       2.932   6.243  18.228  0.00  0.00    +0.000 A 
ATOM      3  C   UNL     1       2.876   7.445  17.532  0.00  0.00    +0.000 A 
ATOM      4  C   UNL     1       2.325   8.575  18.131  0.00  0.00    +0.000 A 
ATOM      5  C   UNL     1       1.799   8.501  19.439  0.00  0.00    +0.000 A 
ATOM      6  C   UNL     1       1.121   9.434  20.305  0.00  0.00    +0.000 A 
ATOM      7  CA  UNL     1       0.850   8.783  21.499  0.00  0.00    +0.000 A 
ATOM      8  N   UNL     1       1.336   7.500  21.357  0.00  0.00    +0.000 N 
ATOM      9  C   UNL     1       1.897   7.288  20.119  0.00  0.00    +0.000 A 
ATOM     10  H   UNL     1       1.221   6.771  22.047  0.00  0.00    +0.000 HD
ENDROOT
BRANCH   6  11
ATOM     11  C   UNL     1       0.740  10.812  19.990  0.00  0.00    +0.000 A 
ATOM     12  C   UNL     1       1.331  11.879  20.679  0.00  0.00    +0.000 A 
ATOM     13  C   UNL     1       0.928  13.195  20.447  0.00  0.00    +0.000 A 
ATOM     14  C   UNL     1      -0.057  13.479  19.487  0.00  0.00    +0.000 A 
ATOM     15  C   UNL     1      -0.608  12.422  18.759  0.00  0.00    +0.000 A 
ATOM     16  C   UNL     1      -0.238  11.101  19.029  0.00  0.00    +0.000 A 
BRANCH  14  17
ATOM     17  C   UNL     1      -0.496  14.898  19.244  0.00  0.00    +0.000 C 
BRANCH  17  18
ATOM     18  N   UNL     1       0.602  15.844  19.360  0.00  0.00    +0.000 N 
ATOM     19  C   UNL     1       0.772  16.794  20.329  0.00  0.00    +0.000 A 
ATOM     20  C   UNL     1       1.956  17.431  20.032  0.00  0.00    +0.000 A 
ATOM     21  C   UNL     1       2.446  16.761  18.899  0.00  0.00    +0.000 A 
ATOM     22  N   UNL     1       1.636  15.782  18.494  0.00  0.00    +0.000 NA
ENDBRANCH  17  18
ENDBRANCH  14  17
ENDBRANCH   6  11
BRANCH   1  24
ATOM     23  C   UNL     1       1.184   4.047  20.238  0.00  0.00    +0.000 C 
ATOM     24  C   UNL     1       2.536   4.761  20.227  0.00  0.00    +0.000 C 
ATOM     25  C   UNL     1       3.632   3.895  19.603  0.00  0.00    +0.000 C 
ENDBRANCH   1  24
BRANCH   7  26
ATOM     26  C   UNL     1       0.115   9.223  22.668  0.00  0.00    +0.000 C 
ATOM     27  O   UNL     1       0.467  10.072  23.475  0.00  0.00    +0.000 OA
BRANCH  26  28
ATOM     28  OXT UNL     1      -1.061   8.562  22.813  0.00  0.00    +0.000 OA
ATOM     29  HXT UNL     1      -0.963   7.605  22.960  0.00  0.00    +0.000 HD
ENDBRANCH  26  28
ENDBRANCH   7  26
TORSDOF 6
ENDMDL
MODEL 8
REMARK VINA RESULT:      -7.5      1.783      2.275
REMARK  Name = 
REMARK  8 active torsions:
REMARK  status: ('A' for Active; 'I' for Inactive)
REMARK    1  A    between atoms: C_1  and  C_2
REMARK    2  A    between atoms: C_2  and  C_3
REMARK    3  A    between atoms: C_2  and  C_4
REMARK    4  A    between atoms: C_9  and  C_10
REMARK    5  A    between atoms: C_13  and  C_14
REMARK    6  A    between atoms: C_14  and  N_15
REMARK    7  A    between atoms: CA_22  and  C_23
REMARK    8  A    between atoms: C_23  and  OXT_25
REMARK                            x       y       z     vdW  Elec       q    Type
REMARK                         _______ _______ _______ _____ _____    ______ ____
ROOT
ATOM      1  C   UNL     1       0.730   9.525  20.129  0.00  0.00    +0.000 A 
ATOM      2  C   UNL     1       1.107  10.503  19.180  0.00  0.00    +0.000 A 
ATOM      3  C   UNL     1       1.933  10.207  18.102  0.00  0.00    +0.000 A 
ATOM      4  C   UNL     1       2.426   8.917  17.932  0.00  0.00    +0.000 A 
ATOM      5  C   UNL     1       2.108   7.906  18.865  0.00  0.00    +0.000 A 
ATOM      6  C   UNL     1       2.489   6.524  19.020  0.00  0.00    +0.000 A 
ATOM      7  CA  UNL     1       1.838   6.028  20.140  0.00  0.00    +0.000 A 
ATOM      8  N   UNL     1       1.099   7.075  20.651  0.00  0.00    +0.000 N 
ATOM      9  C   UNL     1       1.255   8.229  19.919  0.00  0.00    +0.000 A 
ATOM     10  H   UNL     1       0.569   7.029  21.510  0.00  0.00    +0.000 HD
ENDROOT
BRANCH   6  11
ATOM     11  C   UNL     1       3.423   5.768  18.184  0.00  0.00    +0.000 A 
ATOM     12  C   UNL     1       2.997   4.605  17.530  0.00  0.00    +0.000 A 
ATOM     13  C   UNL     1       3.891   3.828  16.790  0.00  0.00    +0.000 A 
ATOM     14  C   UNL     1       5.232   4.221  16.656  0.00  0.00    +0.000 A 
ATOM     15  C   UNL     1       5.647   5.410  17.261  0.00  0.00    +0.000 A 
ATOM     16  C   UNL     1       4.761   6.158  18.043  0.00  0.00    +0.000 A 
BRANCH  14  17
ATOM     17  C   UNL     1       6.196   3.379  15.864  0.00  0.00    +0.000 C 
BRANCH  17  18
ATOM     18  N   UNL     1       6.621   4.033  14.637  0.00  0.00    +0.000 N 
ATOM     19  C   UNL     1       6.153   3.798  13.373  0.00  0.00    +0.000 A 
ATOM     20  C   UNL     1       6.837   4.662  12.548  0.00  0.00    +0.000 A 
ATOM     21  C   UNL     1       7.655   5.407  13.413  0.00  0.00    +0.000 A 
ATOM     22  N   UNL     1       7.517   5.042  14.689  0.00  0.00    +0.000 NA
ENDBRANCH  17  18
ENDBRANCH  14  17
ENDBRANCH   6  11
BRANCH   1  24
ATOM     23  C   UNL     1       0.451   9.576  22.634  0.00  0.00    +0.000 C 
ATOM     24  C   UNL     1      -0.163   9.944  21.283  0.00  0.00    +0.000 C 
ATOM     25  C   UNL     1      -0.517  11.430  21.204  0.00  0.00    +0.000 C 
ENDBRANCH   1  24
BRANCH   7  26
ATOM     26  C   UNL     1       1.931   4.738  20.792  0.00  0.00    +0.000 C 
ATOM     27  O   UNL     1       1.351   3.711  20.468  0.00  0.00    +0.000 OA
BRANCH  26  28
ATOM     28  OXT UNL     1       2.754   4.766  21.871  0.00  0.00    +0.000 OA
ATOM     29  HXT UNL     1       3.414   5.482  21.848  0.00  0.00    +0.000 HD
ENDBRANCH  26  28
ENDBRANCH   7  26
TORSDOF 6
ENDMDL
MODEL 9
REMARK VINA RESULT:      -7.5      5.042      7.678
REMARK  Name = 
REMARK  8 active torsions:
REMARK  status: ('A' for Active; 'I' for Inactive)
REMARK    1  A    between atoms: C_1  and  C_2
REMARK    2  A    between atoms: C_2  and  C_3
REMARK    3  A    between atoms: C_2  and  C_4
REMARK    4  A    between atoms: C_9  and  C_10
REMARK    5  A    between atoms: C_13  and  C_14
REMARK    6  A    between atoms: C_14  and  N_15
REMARK    7  A    between atoms: CA_22  and  C_23
REMARK    8  A    between atoms: C_23  and  OXT_25
REMARK                            x       y       z     vdW  Elec       q    Type
REMARK                         _______ _______ _______ _____ _____    ______ ____
ROOT
ATOM      1  C   UNL     1      -0.533  14.816  20.225  0.00  0.00    +0.000 A 
ATOM      2  C   UNL     1       0.545  15.070  21.104  0.00  0.00    +0.000 A 
ATOM      3  C   UNL     1       1.558  14.142  21.319  0.00  0.00    +0.000 A 
ATOM      4  C   UNL     1       1.530  12.913  20.667  0.00  0.00    +0.000 A 
ATOM      5  C   UNL     1       0.462  12.592  19.801  0.00  0.00    +0.000 A 
ATOM      6  C   UNL     1       0.101  11.421  19.041  0.00  0.00    +0.000 A 
ATOM      7  CA  UNL     1      -1.072  11.706  18.356  0.00  0.00    +0.000 A 
ATOM      8  N   UNL     1      -1.414  12.997  18.700  0.00  0.00    +0.000 N 
ATOM      9  C   UNL     1      -0.522  13.555  19.585  0.00  0.00    +0.000 A 
ATOM     10  H   UNL     1      -2.264  13.456  18.403  0.00  0.00    +0.000 HD
ENDROOT
BRANCH   6  11
ATOM     11  C   UNL     1       0.805  10.138  19.010  0.00  0.00    +0.000 A 
ATOM     12  C   UNL     1       0.892   9.356  20.168  0.00  0.00    +0.000 A 
ATOM     13  C   UNL     1       1.622   8.167  20.180  0.00  0.00    +0.000 A 
ATOM     14  C   UNL     1       2.257   7.710  19.014  0.00  0.00    +0.000 A 
ATOM     15  C   UNL     1       2.126   8.460  17.842  0.00  0.00    +0.000 A 
ATOM     16  C   UNL     1       1.436   9.676  17.847  0.00  0.00    +0.000 A 
BRANCH  14  17
ATOM     17  C   UNL     1       3.051   6.432  19.029  0.00  0.00    +0.000 C 
BRANCH  17  18
ATOM     18  N   UNL     1       2.237   5.281  19.389  0.00  0.00    +0.000 N 
ATOM     19  C   UNL     1       1.768   4.961  20.634  0.00  0.00    +0.000 A 
ATOM     20  C   UNL     1       1.039   3.804  20.478  0.00  0.00    +0.000 A 
ATOM     21  C   UNL     1       1.088   3.535  19.100  0.00  0.00    +0.000 A 
ATOM     22  N   UNL     1       1.801   4.440  18.428  0.00  0.00    +0.000 NA
ENDBRANCH  17  18
ENDBRANCH  14  17
ENDBRANCH   6  11
BRANCH   1  24
ATOM     23  C   UNL     1      -2.720  15.720  21.095  0.00  0.00    +0.000 C 
ATOM     24  C   UNL     1      -1.602  15.882  20.065  0.00  0.00    +0.000 C 
ATOM     25  C   UNL     1      -0.999  17.287  20.095  0.00  0.00    +0.000 C 
ENDBRANCH   1  24
BRANCH   7  26
ATOM     26  C   UNL     1      -1.908  10.864  17.525  0.00  0.00    +0.000 C 
ATOM     27  O   UNL     1      -2.284   9.728  17.780  0.00  0.00    +0.000 OA
BRANCH  26  28
ATOM     28  OXT UNL     1      -2.248  11.469  16.359  0.00  0.00    +0.000 OA
ATOM     29  HXT UNL     1      -3.171  11.777  16.327  0.00  0.00    +0.000 HD
ENDBRANCH  26  28
ENDBRANCH   7  26
TORSDOF 6
ENDMDL
