MODEL 1
REMARK VINA RESULT:      -6.9      0.000      0.000
REMARK  Name = 
REMARK  4 active torsions:
REMARK  status: ('A' for Active; 'I' for Inactive)
REMARK    1  A    between atoms: C_1  and  C_2
REMARK    2  A    between atoms: C_2  and  C_3
REMARK    3  A    between atoms: C_3  and  C_4
REMARK    4  A    between atoms: C_5  and  C_6
REMARK                            x       y       z     vdW  Elec       q    Type
REMARK                         _______ _______ _______ _____ _____    ______ ____
ROOT
ATOM      1  C   UNL     1       6.900   5.673  16.485  0.00  0.00    +0.000 A 
ATOM      2  C   UNL     1       5.720   4.982  16.712  0.00  0.00    +0.000 A 
ATOM      3  C   UNL     1       5.167   4.259  15.662  0.00  0.00    +0.000 A 
ATOM      4  C   UNL     1       5.809   4.238  14.420  0.00  0.00    +0.000 A 
ATOM      5  C   UNL     1       5.286   3.516  13.332  0.00  0.00    +0.000 A 
ATOM      6  C   UNL     1       5.956   3.505  12.110  0.00  0.00    +0.000 A 
ATOM      7  C   UNL     1       7.143   4.212  11.971  0.00  0.00    +0.000 A 
ATOM      8  C   UNL     1       7.656   4.934  13.054  0.00  0.00    +0.000 A 
ATOM      9  C   UNL     1       7.008   4.964  14.281  0.00  0.00    +0.000 A 
ATOM     10  N   UNL     1       7.538   5.670  15.291  0.00  0.00    +0.000 NA
ENDROOT
BRANCH   1  12
ATOM     11  C   UNL     1       7.789   7.770  17.461  0.00  0.00    +0.000 C 
ATOM     12  C   UNL     1       7.497   6.462  17.569  0.00  0.00    +0.000 C 
BRANCH  11  13
ATOM     13  C   UNL     1       8.391   8.570  18.575  0.00  0.00    +0.000 C 
BRANCH  13  15
ATOM     14  C   UNL     1       9.526  10.730  19.183  0.00  0.00    +0.000 C 
ATOM     15  C   UNL     1       8.695  10.001  18.138  0.00  0.00    +0.000 C 
ENDBRANCH  13  15
ENDBRANCH  11  13
ENDBRANCH   1  12
TORSDOF 3
ENDMDL
MODEL 2
REMARK VINA RESULT:      -6.9      3.441      6.778
REMARK  Name = 
REMARK  4 active torsions:
REMARK  status: ('A' for Active; 'I' for Inactive)
REMARK    1  A    between atoms: C_1  and  C_2
REMARK    2  A    between atoms: C_2  and  C_3
REMARK    3  A    between atoms: C_3  and  C_4
REMARK    4  A    between atoms: C_5  and  C_6
REMARK                            x       y       z     vdW  Elec       q    Type
REMARK                         _______ _______ _______ _____ _____    ______ ____
ROOT
ATOM      1  C   UNL     1       4.397   5.170  16.827  0.00  0.00    +0.000 A 
ATOM      2  C   UNL     1       4.309   6.195  17.755  0.00  0.00    +0.000 A 
ATOM      3  C   UNL     1       3.408   6.059  18.805  0.00  0.00    +0.000 A 
ATOM      4  C   UNL     1       2.627   4.904  18.903  0.00  0.00    +0.000 A 
ATOM      5  C   UNL     1       1.706   4.724  19.950  0.00  0.00    +0.000 A 
ATOM      6  C   UNL     1       0.951   3.555  20.028  0.00  0.00    +0.000 A 
ATOM      7  C   UNL     1       1.112   2.568  19.064  0.00  0.00    +0.000 A 
ATOM      8  C   UNL     1       2.024   2.754  18.020  0.00  0.00    +0.000 A 
ATOM      9  C   UNL     1       2.787   3.909  17.918  0.00  0.00    +0.000 A 
ATOM     10  N   UNL     1       3.650   4.043  16.900  0.00  0.00    +0.000 NA
ENDROOT
BRANCH   1  12
ATOM     11  C   UNL     1       5.602   4.287  14.849  0.00  0.00    +0.000 C 
ATOM     12  C   UNL     1       5.325   5.295  15.697  0.00  0.00    +0.000 C 
BRANCH  11  13
ATOM     13  C   UNL     1       6.545   4.424  13.694  0.00  0.00    +0.000 C 
BRANCH  13  15
ATOM     14  C   UNL     1       4.832   3.512  12.096  0.00  0.00    +0.000 C 
ATOM     15  C   UNL     1       6.259   3.389  12.610  0.00  0.00    +0.000 C 
ENDBRANCH  13  15
ENDBRANCH  11  13
ENDBRANCH   1  12
TORSDOF 3
ENDMDL
MODEL 3
REMARK VINA RESULT:      -6.9      3.722      5.566
REMARK  Name = 
REMARK  4 active torsions:
REMARK  status: ('A' for Active; 'I' for Inactive)
REMARK    1  A    between atoms: C_1  and  C_2
REMARK    2  A    between atoms: C_2  and  C_3
REMARK    3  A    between atoms: C_3  and  C_4
REMARK    4  A    between atoms: C_5  and  C_6
REMARK                            x       y       z     vdW  Elec       q    Type
REMARK                         _______ _______ _______ _____ _____    ______ ____
ROOT
ATOM      1  C   UNL     1       4.644   5.250  18.052  0.00  0.00    +0.000 A 
ATOM      2  C   UNL     1       4.280   4.450  16.981  0.00  0.00    +0.000 A 
ATOM      3  C   UNL     1       3.189   3.602  17.132  0.00  0.00    +0.000 A 
ATOM      4  C   UNL     1       2.489   3.582  18.341  0.00  0.00    +0.000 A 
ATOM      5  C   UNL     1       1.377   2.743  18.536  0.00  0.00    +0.000 A 
ATOM      6  C   UNL     1       0.693   2.754  19.750  0.00  0.00    +0.000 A 
ATOM      7  C   UNL     1       1.114   3.599  20.768  0.00  0.00    +0.000 A 
ATOM      8  C   UNL     1       2.224   4.427  20.573  0.00  0.00    +0.000 A 
ATOM      9  C   UNL     1       2.926   4.434  19.375  0.00  0.00    +0.000 A 
ATOM     10  N   UNL     1       3.984   5.246  19.234  0.00  0.00    +0.000 NA
ENDROOT
BRANCH   1  12
ATOM     11  C   UNL     1       6.940   5.982  18.632  0.00  0.00    +0.000 C 
ATOM     12  C   UNL     1       5.804   6.141  17.929  0.00  0.00    +0.000 C 
BRANCH  11  13
ATOM     13  C   UNL     1       8.122   6.892  18.495  0.00  0.00    +0.000 C 
BRANCH  13  15
ATOM     14  C   UNL     1       8.426   9.367  18.175  0.00  0.00    +0.000 C 
ATOM     15  C   UNL     1       7.803   8.098  17.614  0.00  0.00    +0.000 C 
ENDBRANCH  13  15
ENDBRANCH  11  13
ENDBRANCH   1  12
TORSDOF 3
ENDMDL
MODEL 4
REMARK VINA RESULT:      -6.9      3.196      6.891
REMARK  Name = 
REMARK  4 active torsions:
REMARK  status: ('A' for Active; 'I' for Inactive)
REMARK    1  A    between atoms: C_1  and  C_2
REMARK    2  A    between atoms: C_2  and  C_3
REMARK    3  A    between atoms: C_3  and  C_4
REMARK    4  A    between atoms: C_5  and  C_6
REMARK                            x       y       z     vdW  Elec       q    Type
REMARK                         _______ _______ _______ _____ _____    ______ ____
ROOT
ATOM      1  C   UNL     1       4.994   4.579  16.269  0.00  0.00    +0.000 A 
ATOM      2  C   UNL     1       5.091   5.890  16.709  0.00  0.00    +0.000 A 
ATOM      3  C   UNL     1       4.254   6.305  17.737  0.00  0.00    +0.000 A 
ATOM      4  C   UNL     1       3.350   5.401  18.303  0.00  0.00    +0.000 A 
ATOM      5  C   UNL     1       2.487   5.777  19.347  0.00  0.00    +0.000 A 
ATOM      6  C   UNL     1       1.605   4.849  19.898  0.00  0.00    +0.000 A 
ATOM      7  C   UNL     1       1.582   3.549  19.409  0.00  0.00    +0.000 A 
ATOM      8  C   UNL     1       2.437   3.181  18.366  0.00  0.00    +0.000 A 
ATOM      9  C   UNL     1       3.324   4.085  17.797  0.00  0.00    +0.000 A 
ATOM     10  N   UNL     1       4.125   3.686  16.799  0.00  0.00    +0.000 NA
ENDROOT
BRANCH   1  12
ATOM     11  C   UNL     1       5.462   4.095  13.884  0.00  0.00    +0.000 C 
ATOM     12  C   UNL     1       5.852   4.118  15.171  0.00  0.00    +0.000 C 
BRANCH  11  13
ATOM     13  C   UNL     1       6.346   3.629  12.768  0.00  0.00    +0.000 C 
BRANCH  13  15
ATOM     14  C   UNL     1       4.237   3.284  11.443  0.00  0.00    +0.000 C 
ATOM     15  C   UNL     1       5.598   2.709  11.806  0.00  0.00    +0.000 C 
ENDBRANCH  13  15
ENDBRANCH  11  13
ENDBRANCH   1  12
TORSDOF 3
ENDMDL
MODEL 5
REMARK VINA RESULT:      -6.8      3.537      7.090
REMARK  Name = 
REMARK  4 active torsions:
REMARK  status: ('A' for Active; 'I' for Inactive)
REMARK    1  A    between atoms: C_1  and  C_2
REMARK    2  A    between atoms: C_2  and  C_3
REMARK    3  A    between atoms: C_3  and  C_4
REMARK    4  A    between atoms: C_5  and  C_6
REMARK                            x       y       z     vdW  Elec       q    Type
REMARK                         _______ _______ _______ _____ _____    ______ ____
ROOT
ATOM      1  C   UNL     1       4.762   4.051  17.187  0.00  0.00    +0.000 A 
ATOM      2  C   UNL     1       5.187   5.059  18.039  0.00  0.00    +0.000 A 
ATOM      3  C   UNL     1       4.397   5.369  19.140  0.00  0.00    +0.000 A 
ATOM      4  C   UNL     1       3.213   4.661  19.365  0.00  0.00    +0.000 A 
ATOM      5  C   UNL     1       2.386   4.940  20.467  0.00  0.00    +0.000 A 
ATOM      6  C   UNL     1       1.217   4.208  20.671  0.00  0.00    +0.000 A 
ATOM      7  C   UNL     1       0.872   3.202  19.777  0.00  0.00    +0.000 A 
ATOM      8  C   UNL     1       1.693   2.933  18.678  0.00  0.00    +0.000 A 
ATOM      9  C   UNL     1       2.862   3.648  18.450  0.00  0.00    +0.000 A 
ATOM     10  N   UNL     1       3.619   3.354  17.383  0.00  0.00    +0.000 NA
ENDROOT
BRANCH   1  12
ATOM     11  C   UNL     1       5.477   4.374  14.837  0.00  0.00    +0.000 C 
ATOM     12  C   UNL     1       5.565   3.716  16.006  0.00  0.00    +0.000 C 
BRANCH  11  13
ATOM     13  C   UNL     1       6.306   4.030  13.638  0.00  0.00    +0.000 C 
BRANCH  13  15
ATOM     14  C   UNL     1       6.153   2.422  11.710  0.00  0.00    +0.000 C 
ATOM     15  C   UNL     1       5.442   3.521  12.486  0.00  0.00    +0.000 C 
ENDBRANCH  13  15
ENDBRANCH  11  13
ENDBRANCH   1  12
TORSDOF 3
ENDMDL
MODEL 6
REMARK VINA RESULT:      -6.7      3.065      6.907
REMARK  Name = 
REMARK  4 active torsions:
REMARK  status: ('A' for Active; 'I' for Inactive)
REMARK    1  A    between atoms: C_1  and  C_2
REMARK    2  A    between atoms: C_2  and  C_3
REMARK    3  A    between atoms: C_3  and  C_4
REMARK    4  A    between atoms: C_5  and  C_6
REMARK                            x       y       z     vdW  Elec       q    Type
REMARK                         _______ _______ _______ _____ _____    ______ ____
ROOT
ATOM      1  C   UNL     1       5.307   4.715  15.680  0.00  0.00    +0.000 A 
ATOM      2  C   UNL     1       5.381   6.090  15.835  0.00  0.00    +0.000 A 
ATOM      3  C   UNL     1       4.642   6.680  16.855  0.00  0.00    +0.000 A 
ATOM      4  C   UNL     1       3.858   5.882  17.693  0.00  0.00    +0.000 A 
ATOM      5  C   UNL     1       3.098   6.435  18.738  0.00  0.00    +0.000 A 
ATOM      6  C   UNL     1       2.336   5.612  19.565  0.00  0.00    +0.000 A 
ATOM      7  C   UNL     1       2.330   4.239  19.351  0.00  0.00    +0.000 A 
ATOM      8  C   UNL     1       3.082   3.694  18.306  0.00  0.00    +0.000 A 
ATOM      9  C   UNL     1       3.848   4.491  17.466  0.00  0.00    +0.000 A 
ATOM     10  N   UNL     1       4.554   3.922  16.477  0.00  0.00    +0.000 NA
ENDROOT
BRANCH   1  12
ATOM     11  C   UNL     1       5.608   3.962  13.338  0.00  0.00    +0.000 C 
ATOM     12  C   UNL     1       6.061   4.068  14.600  0.00  0.00    +0.000 C 
BRANCH  11  13
ATOM     13  C   UNL     1       6.386   3.306  12.240  0.00  0.00    +0.000 C 
BRANCH  13  15
ATOM     14  C   UNL     1       6.347   1.077  11.075  0.00  0.00    +0.000 C 
ATOM     15  C   UNL     1       5.533   2.301  11.470  0.00  0.00    +0.000 C 
ENDBRANCH  13  15
ENDBRANCH  11  13
ENDBRANCH   1  12
TORSDOF 3
ENDMDL
MODEL 7
REMARK VINA RESULT:      -6.6      3.811      7.016
REMARK  Name = 
REMARK  4 active torsions:
REMARK  status: ('A' for Active; 'I' for Inactive)
REMARK    1  A    between atoms: C_1  and  C_2
REMARK    2  A    between atoms: C_2  and  C_3
REMARK    3  A    between atoms: C_3  and  C_4
REMARK    4  A    between atoms: C_5  and  C_6
REMARK                            x       y       z     vdW  Elec       q    Type
REMARK                         _______ _______ _______ _____ _____    ______ ____
ROOT
ATOM      1  C   UNL     1       4.450   4.773  17.629  0.00  0.00    +0.000 A 
ATOM      2  C   UNL     1       3.469   5.752  17.615  0.00  0.00    +0.000 A 
ATOM      3  C   UNL     1       2.448   5.676  18.555  0.00  0.00    +0.000 A 
ATOM      4  C   UNL     1       2.439   4.633  19.486  0.00  0.00    +0.000 A 
ATOM      5  C   UNL     1       1.427   4.520  20.456  0.00  0.00    +0.000 A 
ATOM      6  C   UNL     1       1.452   3.475  21.377  0.00  0.00    +0.000 A 
ATOM      7  C   UNL     1       2.482   2.544  21.333  0.00  0.00    +0.000 A 
ATOM      8  C   UNL     1       3.482   2.656  20.362  0.00  0.00    +0.000 A 
ATOM      9  C   UNL     1       3.480   3.685  19.430  0.00  0.00    +0.000 A 
ATOM     10  N   UNL     1       4.461   3.752  18.518  0.00  0.00    +0.000 NA
ENDROOT
BRANCH   1  12
ATOM     11  C   UNL     1       5.413   4.321  15.391  0.00  0.00    +0.000 C 
ATOM     12  C   UNL     1       5.530   4.816  16.636  0.00  0.00    +0.000 C 
BRANCH  11  13
ATOM     13  C   UNL     1       6.518   4.375  14.380  0.00  0.00    +0.000 C 
BRANCH  13  15
ATOM     14  C   UNL     1       7.093   3.998  11.962  0.00  0.00    +0.000 C 
ATOM     15  C   UNL     1       6.136   3.650  13.092  0.00  0.00    +0.000 C 
ENDBRANCH  13  15
ENDBRANCH  11  13
ENDBRANCH   1  12
TORSDOF 3
ENDMDL
MODEL 8
REMARK VINA RESULT:      -6.6      3.575      6.882
REMARK  Name = 
REMARK  4 active torsions:
REMARK  status: ('A' for Active; 'I' for Inactive)
REMARK    1  A    between atoms: C_1  and  C_2
REMARK    2  A    between atoms: C_2  and  C_3
REMARK    3  A    between atoms: C_3  and  C_4
REMARK    4  A    between atoms: C_5  and  C_6
REMARK                            x       y       z     vdW  Elec       q    Type
REMARK                         _______ _______ _______ _____ _____    ______ ____
ROOT
ATOM      1  C   UNL     1       4.350   4.416  16.816  0.00  0.00    +0.000 A 
ATOM      2  C   UNL     1       3.697   3.202  16.670  0.00  0.00    +0.000 A 
ATOM      3  C   UNL     1       2.699   2.876  17.580  0.00  0.00    +0.000 A 
ATOM      4  C   UNL     1       2.374   3.771  18.603  0.00  0.00    +0.000 A 
ATOM      5  C   UNL     1       1.369   3.482  19.543  0.00  0.00    +0.000 A 
ATOM      6  C   UNL     1       1.060   4.401  20.545  0.00  0.00    +0.000 A 
ATOM      7  C   UNL     1       1.752   5.603  20.612  0.00  0.00    +0.000 A 
ATOM      8  C   UNL     1       2.756   5.883  19.679  0.00  0.00    +0.000 A 
ATOM      9  C   UNL     1       3.085   4.986  18.673  0.00  0.00    +0.000 A 
ATOM     10  N   UNL     1       4.055   5.298  17.800  0.00  0.00    +0.000 NA
ENDROOT
BRANCH   1  12
ATOM     11  C   UNL     1       5.625   4.156  14.707  0.00  0.00    +0.000 C 
ATOM     12  C   UNL     1       5.422   4.779  15.882  0.00  0.00    +0.000 C 
BRANCH  11  13
ATOM     13  C   UNL     1       6.717   4.537  13.756  0.00  0.00    +0.000 C 
BRANCH  13  15
ATOM     14  C   UNL     1       5.209   3.316  12.157  0.00  0.00    +0.000 C 
ATOM     15  C   UNL     1       6.641   3.730  12.462  0.00  0.00    +0.000 C 
ENDBRANCH  13  15
ENDBRANCH  11  13
ENDBRANCH   1  12
TORSDOF 3
ENDMDL
MODEL 9
REMARK VINA RESULT:      -6.6      2.886      6.888
REMARK  Name = 
REMARK  4 active torsions:
REMARK  status: ('A' for Active; 'I' for Inactive)
REMARK    1  A    between atoms: C_1  and  C_2
REMARK    2  A    between atoms: C_2  and  C_3
REMARK    3  A    between atoms: C_3  and  C_4
REMARK    4  A    between atoms: C_5  and  C_6
REMARK                            x       y       z     vdW  Elec       q    Type
REMARK                         _______ _______ _______ _____ _____    ______ ____
ROOT
ATOM      1  C   UNL     1       5.978   4.299  14.752  0.00  0.00    +0.000 A 
ATOM      2  C   UNL     1       7.194   4.608  15.341  0.00  0.00    +0.000 A 
ATOM      3  C   UNL     1       7.210   4.930  16.693  0.00  0.00    +0.000 A 
ATOM      4  C   UNL     1       6.016   4.926  17.420  0.00  0.00    +0.000 A 
ATOM      5  C   UNL     1       5.987   5.242  18.790  0.00  0.00    +0.000 A 
ATOM      6  C   UNL     1       4.783   5.218  19.491  0.00  0.00    +0.000 A 
ATOM      7  C   UNL     1       3.609   4.881  18.828  0.00  0.00    +0.000 A 
ATOM      8  C   UNL     1       3.642   4.575  17.464  0.00  0.00    +0.000 A 
ATOM      9  C   UNL     1       4.827   4.593  16.742  0.00  0.00    +0.000 A 
ATOM     10  N   UNL     1       4.809   4.291  15.435  0.00  0.00    +0.000 NA
ENDROOT
BRANCH   1  12
ATOM     11  C   UNL     1       4.831   3.499  12.707  0.00  0.00    +0.000 C 
ATOM     12  C   UNL     1       5.928   3.975  13.322  0.00  0.00    +0.000 C 
BRANCH  11  13
ATOM     13  C   UNL     1       4.786   3.177  11.245  0.00  0.00    +0.000 C 
BRANCH  13  15
ATOM     14  C   UNL     1       3.076   4.148   9.677  0.00  0.00    +0.000 C 
ATOM     15  C   UNL     1       3.350   3.088  10.734  0.00  0.00    +0.000 C 
ENDBRANCH  13  15
ENDBRANCH  11  13
ENDBRANCH   1  12
TORSDOF 3
ENDMDL
