MODEL 1
REMARK VINA RESULT:      -8.1      0.000      0.000
REMARK  Name = 
REMARK  4 active torsions:
REMARK  status: ('A' for Active; 'I' for Inactive)
REMARK    1  A    between atoms: C_1  and  C_2
REMARK    2  A    between atoms: C_4  and  N_5
REMARK    3  A    between atoms: C_11  and  N_12
REMARK    4  A    between atoms: C_21  and  N_22
REMARK                            x       y       z     vdW  Elec       q    Type
REMARK                         _______ _______ _______ _____ _____    ______ ____
ROOT
ATOM      1  N   UNL     1       1.127   9.633  20.614  0.00  0.00    +0.000 N 
ATOM      2  C   UNL     1       0.082   9.756  21.499  0.00  0.00    +0.000 C 
ATOM      3  O   UNL     1      -0.538   8.809  21.976  0.00  0.00    +0.000 OA
ATOM      4  N   UNL     1      -0.224  11.065  21.867  0.00  0.00    +0.000 N 
ATOM      5  C   UNL     1      -1.077  11.265  23.034  0.00  0.00    +0.000 C 
ATOM      6  C   UNL     1      -2.278  12.130  22.683  0.00  0.00    +0.000 C 
ATOM      7  C   UNL     1      -1.831  13.483  22.105  0.00  0.00    +0.000 C 
ATOM      8  C   UNL     1      -0.894  13.244  20.906  0.00  0.00    +0.000 C 
ATOM      9  C   UNL     1       0.255  12.278  21.212  0.00  0.00    +0.000 C 
ATOM     10  H   UNL     1       1.798  10.383  20.626  0.00  0.00    +0.000 HD
ENDROOT
BRANCH   1  14
ATOM     11  C   UNL     1       2.238   4.806  20.934  0.00  0.00    +0.000 C 
ATOM     12  C   UNL     1       2.107   6.043  20.088  0.00  0.00    +0.000 A 
ATOM     13  C   UNL     1       1.622   7.212  20.701  0.00  0.00    +0.000 A 
ATOM     14  C   UNL     1       1.569   8.431  20.019  0.00  0.00    +0.000 A 
ATOM     15  C   UNL     1       1.972   8.474  18.683  0.00  0.00    +0.000 A 
ATOM     16  C   UNL     1       2.460   7.324  18.059  0.00  0.00    +0.000 A 
ATOM     17  C   UNL     1       2.517   6.103  18.746  0.00  0.00    +0.000 A 
BRANCH  17  18
ATOM     18  N   UNL     1       3.007   4.987  18.047  0.00  0.00    +0.000 N 
ATOM     19  C   UNL     1       4.412   4.672  18.039  0.00  0.00    +0.000 C 
ATOM     20  C   UNL     1       4.517   3.564  17.011  0.00  0.00    +0.000 C 
ATOM     21  C   UNL     1       3.177   2.848  17.110  0.00  0.00    +0.000 C 
ATOM     22  C   UNL     1       2.231   3.936  17.560  0.00  0.00    +0.000 C 
ATOM     23  O   UNL     1       1.015   3.860  17.485  0.00  0.00    +0.000 OA
ENDBRANCH  17  18
ENDBRANCH   1  14
BRANCH   7  24
ATOM     24  N   UNL     1      -1.320  14.379  23.135  0.00  0.00    +0.000 N 
ATOM     25  C   UNL     1      -1.679  14.492  24.442  0.00  0.00    +0.000 A 
ATOM     26  N   UNL     1      -0.960  15.426  25.021  0.00  0.00    +0.000 NA
ATOM     27  N   UNL     1      -0.083  15.916  24.086  0.00  0.00    +0.000 NA
ATOM     28  C   UNL     1      -0.295  15.269  22.966  0.00  0.00    +0.000 A 
ENDBRANCH   7  24
TORSDOF 3
ENDMDL
MODEL 2
REMARK VINA RESULT:      -7.9      2.474      3.175
REMARK  Name = 
REMARK  4 active torsions:
REMARK  status: ('A' for Active; 'I' for Inactive)
REMARK    1  A    between atoms: C_1  and  C_2
REMARK    2  A    between atoms: C_4  and  N_5
REMARK    3  A    between atoms: C_11  and  N_12
REMARK    4  A    between atoms: C_21  and  N_22
REMARK                            x       y       z     vdW  Elec       q    Type
REMARK                         _______ _______ _______ _____ _____    ______ ____
ROOT
ATOM      1  N   UNL     1       1.280   8.646  19.743  0.00  0.00    +0.000 N 
ATOM      2  C   UNL     1       0.437   9.528  19.110  0.00  0.00    +0.000 C 
ATOM      3  O   UNL     1       0.304   9.607  17.891  0.00  0.00    +0.000 OA
ATOM      4  N   UNL     1      -0.315  10.336  19.962  0.00  0.00    +0.000 N 
ATOM      5  C   UNL     1      -1.457  11.048  19.396  0.00  0.00    +0.000 C 
ATOM      6  C   UNL     1      -1.356  12.538  19.681  0.00  0.00    +0.000 C 
ATOM      7  C   UNL     1      -1.251  12.804  21.192  0.00  0.00    +0.000 C 
ATOM      8  C   UNL     1      -0.070  12.003  21.772  0.00  0.00    +0.000 C 
ATOM      9  C   UNL     1      -0.093  10.519  21.392  0.00  0.00    +0.000 C 
ATOM     10  H   UNL     1       1.009   8.378  20.674  0.00  0.00    +0.000 HD
ENDROOT
BRANCH   1  14
ATOM     11  C   UNL     1       3.851   4.402  19.607  0.00  0.00    +0.000 C 
ATOM     12  C   UNL     1       3.489   5.709  18.956  0.00  0.00    +0.000 A 
ATOM     13  C   UNL     1       2.527   6.517  19.589  0.00  0.00    +0.000 A 
ATOM     14  C   UNL     1       2.209   7.791  19.111  0.00  0.00    +0.000 A 
ATOM     15  C   UNL     1       2.837   8.252  17.953  0.00  0.00    +0.000 A 
ATOM     16  C   UNL     1       3.797   7.465  17.312  0.00  0.00    +0.000 A 
ATOM     17  C   UNL     1       4.118   6.190  17.796  0.00  0.00    +0.000 A 
BRANCH  17  18
ATOM     18  N   UNL     1       5.085   5.452  17.090  0.00  0.00    +0.000 N 
ATOM     19  C   UNL     1       4.706   4.549  16.034  0.00  0.00    +0.000 C 
ATOM     20  C   UNL     1       5.996   3.820  15.718  0.00  0.00    +0.000 C 
ATOM     21  C   UNL     1       7.078   4.847  16.021  0.00  0.00    +0.000 C 
ATOM     22  C   UNL     1       6.456   5.703  17.099  0.00  0.00    +0.000 C 
ATOM     23  O   UNL     1       7.086   6.457  17.823  0.00  0.00    +0.000 OA
ENDBRANCH  17  18
ENDBRANCH   1  14
BRANCH   7  24
ATOM     24  N   UNL     1      -2.527  12.625  21.873  0.00  0.00    +0.000 N 
ATOM     25  C   UNL     1      -2.780  12.285  23.165  0.00  0.00    +0.000 A 
ATOM     26  N   UNL     1      -4.076  12.237  23.368  0.00  0.00    +0.000 NA
ATOM     27  N   UNL     1      -4.694  12.588  22.193  0.00  0.00    +0.000 NA
ATOM     28  C   UNL     1      -3.755  12.836  21.311  0.00  0.00    +0.000 A 
ENDBRANCH   7  24
TORSDOF 3
ENDMDL
MODEL 3
REMARK VINA RESULT:      -7.9      0.972      1.417
REMARK  Name = 
REMARK  4 active torsions:
REMARK  status: ('A' for Active; 'I' for Inactive)
REMARK    1  A    between atoms: C_1  and  C_2
REMARK    2  A    between atoms: C_4  and  N_5
REMARK    3  A    between atoms: C_11  and  N_12
REMARK    4  A    between atoms: C_21  and  N_22
REMARK                            x       y       z     vdW  Elec       q    Type
REMARK                         _______ _______ _______ _____ _____    ______ ____
ROOT
ATOM      1  N   UNL     1       1.256   9.308  20.641  0.00  0.00    +0.000 N 
ATOM      2  C   UNL     1       0.178   9.543  21.462  0.00  0.00    +0.000 C 
ATOM      3  O   UNL     1      -0.528   8.663  21.948  0.00  0.00    +0.000 OA
ATOM      4  N   UNL     1      -0.057  10.885  21.752  0.00  0.00    +0.000 N 
ATOM      5  C   UNL     1      -0.953  11.198  22.862  0.00  0.00    +0.000 C 
ATOM      6  C   UNL     1      -2.072  12.121  22.406  0.00  0.00    +0.000 C 
ATOM      7  C   UNL     1      -1.506  13.412  21.792  0.00  0.00    +0.000 C 
ATOM      8  C   UNL     1      -0.528  13.053  20.657  0.00  0.00    +0.000 C 
ATOM      9  C   UNL     1       0.536  12.030  21.069  0.00  0.00    +0.000 C 
ATOM     10  H   UNL     1       1.974  10.012  20.655  0.00  0.00    +0.000 HD
ENDROOT
BRANCH   1  14
ATOM     11  C   UNL     1       2.072   4.450  21.257  0.00  0.00    +0.000 C 
ATOM     12  C   UNL     1       2.040   5.644  20.342  0.00  0.00    +0.000 A 
ATOM     13  C   UNL     1       1.606   6.871  20.875  0.00  0.00    +0.000 A 
ATOM     14  C   UNL     1       1.645   8.052  20.126  0.00  0.00    +0.000 A 
ATOM     15  C   UNL     1       2.090   7.997  18.805  0.00  0.00    +0.000 A 
ATOM     16  C   UNL     1       2.529   6.788  18.260  0.00  0.00    +0.000 A 
ATOM     17  C   UNL     1       2.494   5.606  19.014  0.00  0.00    +0.000 A 
BRANCH  17  18
ATOM     18  N   UNL     1       2.939   4.427  18.392  0.00  0.00    +0.000 N 
ATOM     19  C   UNL     1       2.036   3.597  17.637  0.00  0.00    +0.000 C 
ATOM     20  C   UNL     1       2.857   2.357  17.349  0.00  0.00    +0.000 C 
ATOM     21  C   UNL     1       4.285   2.879  17.265  0.00  0.00    +0.000 C 
ATOM     22  C   UNL     1       4.272   4.084  18.174  0.00  0.00    +0.000 C 
ATOM     23  O   UNL     1       5.277   4.620  18.615  0.00  0.00    +0.000 OA
ENDBRANCH  17  18
ENDBRANCH   1  14
BRANCH   7  24
ATOM     24  N   UNL     1      -0.988  14.323  22.805  0.00  0.00    +0.000 N 
ATOM     25  C   UNL     1       0.019  15.233  22.718  0.00  0.00    +0.000 A 
ATOM     26  N   UNL     1       0.159  15.852  23.868  0.00  0.00    +0.000 NA
ATOM     27  N   UNL     1      -0.799  15.366  24.721  0.00  0.00    +0.000 NA
ATOM     28  C   UNL     1      -1.492  14.464  24.068  0.00  0.00    +0.000 A 
ENDBRANCH   7  24
TORSDOF 3
ENDMDL
MODEL 4
REMARK VINA RESULT:      -7.7      2.267     10.084
REMARK  Name = 
REMARK  4 active torsions:
REMARK  status: ('A' for Active; 'I' for Inactive)
REMARK    1  A    between atoms: C_1  and  C_2
REMARK    2  A    between atoms: C_4  and  N_5
REMARK    3  A    between atoms: C_11  and  N_12
REMARK    4  A    between atoms: C_21  and  N_22
REMARK                            x       y       z     vdW  Elec       q    Type
REMARK                         _______ _______ _______ _____ _____    ______ ____
ROOT
ATOM      1  N   UNL     1       0.818   7.656  21.162  0.00  0.00    +0.000 N 
ATOM      2  C   UNL     1       1.589   7.391  20.055  0.00  0.00    +0.000 C 
ATOM      3  O   UNL     1       1.958   8.241  19.248  0.00  0.00    +0.000 OA
ATOM      4  N   UNL     1       1.974   6.059  19.912  0.00  0.00    +0.000 N 
ATOM      5  C   UNL     1       3.049   5.756  18.973  0.00  0.00    +0.000 C 
ATOM      6  C   UNL     1       2.604   4.706  17.967  0.00  0.00    +0.000 C 
ATOM      7  C   UNL     1       2.133   3.426  18.677  0.00  0.00    +0.000 C 
ATOM      8  C   UNL     1       1.034   3.782  19.697  0.00  0.00    +0.000 C 
ATOM      9  C   UNL     1       1.423   4.922  20.642  0.00  0.00    +0.000 C 
ATOM     10  H   UNL     1       0.933   7.021  21.934  0.00  0.00    +0.000 HD
ENDROOT
BRANCH   1  14
ATOM     11  C   UNL     1      -0.956  12.079  19.772  0.00  0.00    +0.000 C 
ATOM     12  C   UNL     1      -0.694  11.085  20.871  0.00  0.00    +0.000 A 
ATOM     13  C   UNL     1      -0.146   9.839  20.515  0.00  0.00    +0.000 A 
ATOM     14  C   UNL     1       0.227   8.899  21.480  0.00  0.00    +0.000 A 
ATOM     15  C   UNL     1       0.009   9.193  22.826  0.00  0.00    +0.000 A 
ATOM     16  C   UNL     1      -0.531  10.426  23.198  0.00  0.00    +0.000 A 
ATOM     17  C   UNL     1      -0.900  11.370  22.230  0.00  0.00    +0.000 A 
BRANCH  17  18
ATOM     18  N   UNL     1      -1.450  12.582  22.682  0.00  0.00    +0.000 N 
ATOM     19  C   UNL     1      -2.756  12.626  23.286  0.00  0.00    +0.000 C 
ATOM     20  C   UNL     1      -3.035  14.110  23.407  0.00  0.00    +0.000 C 
ATOM     21  C   UNL     1      -1.656  14.726  23.599  0.00  0.00    +0.000 C 
ATOM     22  C   UNL     1      -0.741  13.766  22.876  0.00  0.00    +0.000 C 
ATOM     23  O   UNL     1       0.403  14.031  22.541  0.00  0.00    +0.000 OA
ENDBRANCH  17  18
ENDBRANCH   1  14
BRANCH   7  24
ATOM     24  N   UNL     1       3.247   2.645  19.200  0.00  0.00    +0.000 N 
ATOM     25  C   UNL     1       3.931   2.784  20.367  0.00  0.00    +0.000 A 
ATOM     26  N   UNL     1       4.862   1.862  20.450  0.00  0.00    +0.000 NA
ATOM     27  N   UNL     1       4.768   1.074  19.330  0.00  0.00    +0.000 NA
ATOM     28  C   UNL     1       3.785   1.541  18.598  0.00  0.00    +0.000 A 
ENDBRANCH   7  24
TORSDOF 3
ENDMDL
MODEL 5
REMARK VINA RESULT:      -7.6      2.106      9.958
REMARK  Name = 
REMARK  4 active torsions:
REMARK  status: ('A' for Active; 'I' for Inactive)
REMARK    1  A    between atoms: C_1  and  C_2
REMARK    2  A    between atoms: C_4  and  N_5
REMARK    3  A    between atoms: C_11  and  N_12
REMARK    4  A    between atoms: C_21  and  N_22
REMARK                            x       y       z     vdW  Elec       q    Type
REMARK                         _______ _______ _______ _____ _____    ______ ____
ROOT
ATOM      1  N   UNL     1       0.662   8.280  21.283  0.00  0.00    +0.000 N 
ATOM      2  C   UNL     1       1.350   8.067  20.113  0.00  0.00    +0.000 C 
ATOM      3  O   UNL     1       1.536   8.923  19.252  0.00  0.00    +0.000 OA
ATOM      4  N   UNL     1       1.876   6.784  19.966  0.00  0.00    +0.000 N 
ATOM      5  C   UNL     1       2.886   6.574  18.933  0.00  0.00    +0.000 C 
ATOM      6  C   UNL     1       2.476   5.444  18.002  0.00  0.00    +0.000 C 
ATOM      7  C   UNL     1       2.232   4.144  18.787  0.00  0.00    +0.000 C 
ATOM      8  C   UNL     1       1.199   4.406  19.900  0.00  0.00    +0.000 C 
ATOM      9  C   UNL     1       1.538   5.618  20.775  0.00  0.00    +0.000 C 
ATOM     10  H   UNL     1       0.924   7.691  22.056  0.00  0.00    +0.000 HD
ENDROOT
BRANCH   1  14
ATOM     11  C   UNL     1      -1.267  12.681  20.039  0.00  0.00    +0.000 C 
ATOM     12  C   UNL     1      -1.046  11.622  21.085  0.00  0.00    +0.000 A 
ATOM     13  C   UNL     1      -0.382  10.444  20.699  0.00  0.00    +0.000 A 
ATOM     14  C   UNL     1      -0.041   9.455  21.627  0.00  0.00    +0.000 A 
ATOM     15  C   UNL     1      -0.409   9.629  22.962  0.00  0.00    +0.000 A 
ATOM     16  C   UNL     1      -1.066  10.794  23.364  0.00  0.00    +0.000 A 
ATOM     17  C   UNL     1      -1.402  11.787  22.433  0.00  0.00    +0.000 A 
BRANCH  17  18
ATOM     18  N   UNL     1      -2.075  12.925  22.911  0.00  0.00    +0.000 N 
ATOM     19  C   UNL     1      -1.354  14.113  23.285  0.00  0.00    +0.000 C 
ATOM     20  C   UNL     1      -2.415  14.976  23.938  0.00  0.00    +0.000 C 
ATOM     21  C   UNL     1      -3.696  14.586  23.214  0.00  0.00    +0.000 C 
ATOM     22  C   UNL     1      -3.446  13.154  22.805  0.00  0.00    +0.000 C 
ATOM     23  O   UNL     1      -4.322  12.378  22.458  0.00  0.00    +0.000 OA
ENDBRANCH  17  18
ENDBRANCH   1  14
BRANCH   7  24
ATOM     24  N   UNL     1       3.475   3.518  19.216  0.00  0.00    +0.000 N 
ATOM     25  C   UNL     1       4.759   3.823  18.885  0.00  0.00    +0.000 A 
ATOM     26  N   UNL     1       5.583   3.008  19.501  0.00  0.00    +0.000 NA
ATOM     27  N   UNL     1       4.831   2.169  20.284  0.00  0.00    +0.000 NA
ATOM     28  C   UNL     1       3.571   2.496  20.119  0.00  0.00    +0.000 A 
ENDBRANCH   7  24
TORSDOF 3
ENDMDL
MODEL 6
REMARK VINA RESULT:      -7.6      2.206      2.831
REMARK  Name = 
REMARK  4 active torsions:
REMARK  status: ('A' for Active; 'I' for Inactive)
REMARK    1  A    between atoms: C_1  and  C_2
REMARK    2  A    between atoms: C_4  and  N_5
REMARK    3  A    between atoms: C_11  and  N_12
REMARK    4  A    between atoms: C_21  and  N_22
REMARK                            x       y       z     vdW  Elec       q    Type
REMARK                         _______ _______ _______ _____ _____    ______ ____
ROOT
ATOM      1  N   UNL     1       0.984   8.902  19.898  0.00  0.00    +0.000 N 
ATOM      2  C   UNL     1       0.153   9.808  19.283  0.00  0.00    +0.000 C 
ATOM      3  O   UNL     1       0.052   9.942  18.066  0.00  0.00    +0.000 OA
ATOM      4  N   UNL     1      -0.625  10.574  20.149  0.00  0.00    +0.000 N 
ATOM      5  C   UNL     1      -1.755  11.306  19.586  0.00  0.00    +0.000 C 
ATOM      6  C   UNL     1      -1.670  12.783  19.940  0.00  0.00    +0.000 C 
ATOM      7  C   UNL     1      -1.607  12.981  21.464  0.00  0.00    +0.000 C 
ATOM      8  C   UNL     1      -0.437  12.159  22.038  0.00  0.00    +0.000 C 
ATOM      9  C   UNL     1      -0.442  10.694  21.592  0.00  0.00    +0.000 C 
ATOM     10  H   UNL     1       0.690   8.592  20.809  0.00  0.00    +0.000 HD
ENDROOT
BRANCH   1  14
ATOM     11  C   UNL     1       3.844   4.846  19.817  0.00  0.00    +0.000 C 
ATOM     12  C   UNL     1       3.351   6.087  19.124  0.00  0.00    +0.000 A 
ATOM     13  C   UNL     1       2.371   6.859  19.775  0.00  0.00    +0.000 A 
ATOM     14  C   UNL     1       1.934   8.081  19.253  0.00  0.00    +0.000 A 
ATOM     15  C   UNL     1       2.457   8.519  18.036  0.00  0.00    +0.000 A 
ATOM     16  C   UNL     1       3.432   7.767  17.378  0.00  0.00    +0.000 A 
ATOM     17  C   UNL     1       3.874   6.545  17.904  0.00  0.00    +0.000 A 
BRANCH  17  18
ATOM     18  N   UNL     1       4.848   5.839  17.178  0.00  0.00    +0.000 N 
ATOM     19  C   UNL     1       6.231   6.238  17.205  0.00  0.00    +0.000 C 
ATOM     20  C   UNL     1       6.866   5.371  16.137  0.00  0.00    +0.000 C 
ATOM     21  C   UNL     1       6.035   4.096  16.162  0.00  0.00    +0.000 C 
ATOM     22  C   UNL     1       4.678   4.571  16.623  0.00  0.00    +0.000 C 
ATOM     23  O   UNL     1       3.649   3.925  16.504  0.00  0.00    +0.000 OA
ENDBRANCH  17  18
ENDBRANCH   1  14
BRANCH   7  24
ATOM     24  N   UNL     1      -2.899  12.766  22.101  0.00  0.00    +0.000 N 
ATOM     25  C   UNL     1      -4.151  12.863  21.578  0.00  0.00    +0.000 A 
ATOM     26  N   UNL     1      -5.042  12.581  22.499  0.00  0.00    +0.000 NA
ATOM     27  N   UNL     1      -4.364  12.256  23.648  0.00  0.00    +0.000 NA
ATOM     28  C   UNL     1      -3.082  12.352  23.391  0.00  0.00    +0.000 A 
ENDBRANCH   7  24
TORSDOF 3
ENDMDL
MODEL 7
REMARK VINA RESULT:      -7.6      2.140     10.003
REMARK  Name = 
REMARK  4 active torsions:
REMARK  status: ('A' for Active; 'I' for Inactive)
REMARK    1  A    between atoms: C_1  and  C_2
REMARK    2  A    between atoms: C_4  and  N_5
REMARK    3  A    between atoms: C_11  and  N_12
REMARK    4  A    between atoms: C_21  and  N_22
REMARK                            x       y       z     vdW  Elec       q    Type
REMARK                         _______ _______ _______ _____ _____    ______ ____
ROOT
ATOM      1  N   UNL     1       0.654   8.420  21.277  0.00  0.00    +0.000 N 
ATOM      2  C   UNL     1       1.305   8.180  20.091  0.00  0.00    +0.000 C 
ATOM      3  O   UNL     1       1.449   9.012  19.198  0.00  0.00    +0.000 OA
ATOM      4  N   UNL     1       1.846   6.902  19.965  0.00  0.00    +0.000 N 
ATOM      5  C   UNL     1       2.823   6.674  18.905  0.00  0.00    +0.000 C 
ATOM      6  C   UNL     1       2.400   5.510  18.024  0.00  0.00    +0.000 C 
ATOM      7  C   UNL     1       2.202   4.232  18.856  0.00  0.00    +0.000 C 
ATOM      8  C   UNL     1       1.204   4.513  19.996  0.00  0.00    +0.000 C 
ATOM      9  C   UNL     1       1.553   5.756  20.821  0.00  0.00    +0.000 C 
ATOM     10  H   UNL     1       0.952   7.859  22.058  0.00  0.00    +0.000 HD
ENDROOT
BRANCH   1  14
ATOM     11  C   UNL     1      -1.091  12.903  20.055  0.00  0.00    +0.000 C 
ATOM     12  C   UNL     1      -0.975  11.801  21.072  0.00  0.00    +0.000 A 
ATOM     13  C   UNL     1      -0.301  10.625  20.695  0.00  0.00    +0.000 A 
ATOM     14  C   UNL     1      -0.055   9.595  21.609  0.00  0.00    +0.000 A 
ATOM     15  C   UNL     1      -0.528   9.726  22.915  0.00  0.00    +0.000 A 
ATOM     16  C   UNL     1      -1.196  10.888  23.308  0.00  0.00    +0.000 A 
ATOM     17  C   UNL     1      -1.438  11.922  22.392  0.00  0.00    +0.000 A 
BRANCH  17  18
ATOM     18  N   UNL     1      -2.129  13.054  22.859  0.00  0.00    +0.000 N 
ATOM     19  C   UNL     1      -3.553  13.021  23.070  0.00  0.00    +0.000 C 
ATOM     20  C   UNL     1      -3.899  14.470  23.344  0.00  0.00    +0.000 C 
ATOM     21  C   UNL     1      -2.648  15.023  24.012  0.00  0.00    +0.000 C 
ATOM     22  C   UNL     1      -1.538  14.179  23.433  0.00  0.00    +0.000 C 
ATOM     23  O   UNL     1      -0.355  14.475  23.480  0.00  0.00    +0.000 OA
ENDBRANCH  17  18
ENDBRANCH   1  14
BRANCH   7  24
ATOM     24  N   UNL     1       3.469   3.637  19.262  0.00  0.00    +0.000 N 
ATOM     25  C   UNL     1       3.705   2.570  20.072  0.00  0.00    +0.000 A 
ATOM     26  N   UNL     1       4.998   2.364  20.171  0.00  0.00    +0.000 NA
ATOM     27  N   UNL     1       5.628   3.292  19.380  0.00  0.00    +0.000 NA
ATOM     28  C   UNL     1       4.701   4.036  18.826  0.00  0.00    +0.000 A 
ENDBRANCH   7  24
TORSDOF 3
ENDMDL
MODEL 8
REMARK VINA RESULT:      -7.5      1.047      1.730
REMARK  Name = 
REMARK  4 active torsions:
REMARK  status: ('A' for Active; 'I' for Inactive)
REMARK    1  A    between atoms: C_1  and  C_2
REMARK    2  A    between atoms: C_4  and  N_5
REMARK    3  A    between atoms: C_11  and  N_12
REMARK    4  A    between atoms: C_21  and  N_22
REMARK                            x       y       z     vdW  Elec       q    Type
REMARK                         _______ _______ _______ _____ _____    ______ ____
ROOT
ATOM      1  N   UNL     1       1.397   9.133  20.686  0.00  0.00    +0.000 N 
ATOM      2  C   UNL     1       0.301   9.410  21.468  0.00  0.00    +0.000 C 
ATOM      3  O   UNL     1      -0.422   8.557  21.977  0.00  0.00    +0.000 OA
ATOM      4  N   UNL     1       0.066  10.766  21.691  0.00  0.00    +0.000 N 
ATOM      5  C   UNL     1      -0.855  11.132  22.762  0.00  0.00    +0.000 C 
ATOM      6  C   UNL     1      -1.958  12.038  22.238  0.00  0.00    +0.000 C 
ATOM      7  C   UNL     1      -1.370  13.298  21.579  0.00  0.00    +0.000 C 
ATOM      8  C   UNL     1      -0.366  12.883  20.487  0.00  0.00    +0.000 C 
ATOM      9  C   UNL     1       0.682  11.875  20.971  0.00  0.00    +0.000 C 
ATOM     10  H   UNL     1       2.119   9.834  20.686  0.00  0.00    +0.000 HD
ENDROOT
BRANCH   1  14
ATOM     11  C   UNL     1       3.737   6.232  17.407  0.00  0.00    +0.000 C 
ATOM     12  C   UNL     1       2.949   6.358  18.683  0.00  0.00    +0.000 A 
ATOM     13  C   UNL     1       2.610   7.649  19.124  0.00  0.00    +0.000 A 
ATOM     14  C   UNL     1       1.792   7.853  20.240  0.00  0.00    +0.000 A 
ATOM     15  C   UNL     1       1.337   6.744  20.952  0.00  0.00    +0.000 A 
ATOM     16  C   UNL     1       1.661   5.453  20.528  0.00  0.00    +0.000 A 
ATOM     17  C   UNL     1       2.477   5.250  19.406  0.00  0.00    +0.000 A 
BRANCH  17  18
ATOM     18  N   UNL     1       2.770   3.923  19.048  0.00  0.00    +0.000 N 
ATOM     19  C   UNL     1       3.739   3.151  19.783  0.00  0.00    +0.000 C 
ATOM     20  C   UNL     1       3.901   1.902  18.942  0.00  0.00    +0.000 C 
ATOM     21  C   UNL     1       2.535   1.719  18.294  0.00  0.00    +0.000 C 
ATOM     22  C   UNL     1       2.003   3.129  18.198  0.00  0.00    +0.000 C 
ATOM     23  O   UNL     1       1.069   3.461  17.484  0.00  0.00    +0.000 OA
ENDBRANCH  17  18
ENDBRANCH   1  14
BRANCH   7  24
ATOM     24  N   UNL     1      -0.872  14.252  22.562  0.00  0.00    +0.000 N 
ATOM     25  C   UNL     1       0.145  15.150  22.460  0.00  0.00    +0.000 A 
ATOM     26  N   UNL     1       0.259  15.822  23.582  0.00  0.00    +0.000 NA
ATOM     27  N   UNL     1      -0.727  15.384  24.431  0.00  0.00    +0.000 NA
ATOM     28  C   UNL     1      -1.409  14.457  23.802  0.00  0.00    +0.000 A 
ENDBRANCH   7  24
TORSDOF 3
ENDMDL
MODEL 9
REMARK VINA RESULT:      -7.5      1.292      1.572
REMARK  Name = 
REMARK  4 active torsions:
REMARK  status: ('A' for Active; 'I' for Inactive)
REMARK    1  A    between atoms: C_1  and  C_2
REMARK    2  A    between atoms: C_4  and  N_5
REMARK    3  A    between atoms: C_11  and  N_12
REMARK    4  A    between atoms: C_21  and  N_22
REMARK                            x       y       z     vdW  Elec       q    Type
REMARK                         _______ _______ _______ _____ _____    ______ ____
ROOT
ATOM      1  N   UNL     1       0.677   9.671  20.651  0.00  0.00    +0.000 N 
ATOM      2  C   UNL     1      -0.405  10.355  20.150  0.00  0.00    +0.000 C 
ATOM      3  O   UNL     1      -1.049  10.008  19.164  0.00  0.00    +0.000 OA
ATOM      4  N   UNL     1      -0.766  11.492  20.872  0.00  0.00    +0.000 N 
ATOM      5  C   UNL     1      -2.079  12.075  20.614  0.00  0.00    +0.000 C 
ATOM      6  C   UNL     1      -1.953  13.549  20.258  0.00  0.00    +0.000 C 
ATOM      7  C   UNL     1      -1.228  14.324  21.371  0.00  0.00    +0.000 C 
ATOM      8  C   UNL     1       0.132  13.659  21.657  0.00  0.00    +0.000 C 
ATOM      9  C   UNL     1       0.034  12.149  21.900  0.00  0.00    +0.000 C 
ATOM     10  H   UNL     1       0.846   9.786  21.637  0.00  0.00    +0.000 HD
ENDROOT
BRANCH   1  14
ATOM     11  C   UNL     1       2.208   4.954  20.872  0.00  0.00    +0.000 C 
ATOM     12  C   UNL     1       2.051   6.221  20.075  0.00  0.00    +0.000 A 
ATOM     13  C   UNL     1       1.391   7.304  20.682  0.00  0.00    +0.000 A 
ATOM     14  C   UNL     1       1.295   8.550  20.055  0.00  0.00    +0.000 A 
ATOM     15  C   UNL     1       1.834   8.704  18.777  0.00  0.00    +0.000 A 
ATOM     16  C   UNL     1       2.495   7.640  18.160  0.00  0.00    +0.000 A 
ATOM     17  C   UNL     1       2.596   6.394  18.792  0.00  0.00    +0.000 A 
BRANCH  17  18
ATOM     18  N   UNL     1       3.264   5.367  18.102  0.00  0.00    +0.000 N 
ATOM     19  C   UNL     1       4.699   5.252  18.147  0.00  0.00    +0.000 C 
ATOM     20  C   UNL     1       4.998   4.186  17.113  0.00  0.00    +0.000 C 
ATOM     21  C   UNL     1       3.768   3.289  17.151  0.00  0.00    +0.000 C 
ATOM     22  C   UNL     1       2.663   4.226  17.574  0.00  0.00    +0.000 C 
ATOM     23  O   UNL     1       1.473   3.983  17.449  0.00  0.00    +0.000 OA
ENDBRANCH  17  18
ENDBRANCH   1  14
BRANCH   7  24
ATOM     24  N   UNL     1      -2.079  14.542  22.534  0.00  0.00    +0.000 N 
ATOM     25  C   UNL     1      -1.764  14.509  23.856  0.00  0.00    +0.000 A 
ATOM     26  N   UNL     1      -2.832  14.768  24.575  0.00  0.00    +0.000 NA
ATOM     27  N   UNL     1      -3.867  15.012  23.708  0.00  0.00    +0.000 NA
ATOM     28  C   UNL     1      -3.399  14.893  22.488  0.00  0.00    +0.000 A 
ENDBRANCH   7  24
TORSDOF 3
ENDMDL
