MODEL 1
REMARK VINA RESULT:      -8.4      0.000      0.000
REMARK  Name = 
REMARK  6 active torsions:
REMARK  status: ('A' for Active; 'I' for Inactive)
REMARK    1  A    between atoms: CB_1  and  CA_2
REMARK    2  A    between atoms: CA_2  and  N_3
REMARK    3  A    between atoms: CA_2  and  C_23
REMARK    4  A    between atoms: C_4  and  C_6
REMARK    5  A    between atoms: C_13  and  C_14
REMARK    6  A    between atoms: C_23  and  OXT_25
REMARK                            x       y       z     vdW  Elec       q    Type
REMARK                         _______ _______ _______ _____ _____    ______ ____
ROOT
ATOM      1  C   UNK A   0       4.442   4.082  17.265  0.00  0.00    +0.000 A 
ATOM      2  C   UNK A   0       5.523   3.741  16.433  0.00  0.00    +0.000 A 
ATOM      3  C   UNK A   0       6.231   4.722  15.747  0.00  0.00    +0.000 A 
ATOM      4  F   UNK A   0       7.257   4.362  14.966  0.00  0.00    +0.000 F 
ATOM      5  C   UNK A   0       5.903   6.073  15.845  0.00  0.00    +0.000 A 
ATOM      6  C   UNK A   0       4.824   6.437  16.665  0.00  0.00    +0.000 A 
ATOM      7  C   UNK A   0       4.196   7.660  17.002  0.00  0.00    +0.000 A 
ATOM      8  C   UNK A   0       3.176   7.364  17.881  0.00  0.00    +0.000 A 
ATOM      9  O   UNK A   0       3.139   6.018  18.109  0.00  0.00    +0.000 OA
ATOM     10  C   UNK A   0       4.131   5.445  17.357  0.00  0.00    +0.000 A 
ENDROOT
BRANCH   8  11
ATOM     11  C   UNK A   0       2.189   8.190  18.562  0.00  0.00    +0.000 A 
ATOM     12  C   UNK A   0       1.579   9.247  17.867  0.00  0.00    +0.000 A 
ATOM     13  C   UNK A   0       0.697  10.116  18.513  0.00  0.00    +0.000 A 
ATOM     14  C   UNK A   0       0.419   9.936  19.864  0.00  0.00    +0.000 A 
ATOM     15 CL   UNK A   0      -0.629  11.036  20.670  0.00  0.00    +0.000 Cl
ATOM     16  C   UNK A   0       0.995   8.878  20.565  0.00  0.00    +0.000 A 
ATOM     17  C   UNK A   0       1.870   8.001  19.914  0.00  0.00    +0.000 A 
ENDBRANCH   8  11
BRANCH   1  19
ATOM     18  N   ALA A   1       3.067   3.373  19.143  0.00  0.00    +0.000 N 
ATOM     19  C   UNK A   0       3.705   3.015  17.983  0.00  0.00    +0.000 C 
ATOM     20  O   UNK A   0       3.679   1.873  17.537  0.00  0.00    +0.000 OA
ATOM     21  H   ALA A   1       3.104   4.338  19.471  0.00  0.00    +0.000 HD
BRANCH  18  23
ATOM     22  CB  ALA A   1       2.596   2.665  21.448  0.00  0.00    +0.000 C 
ATOM     23  CA  ALA A   1       2.340   2.420  19.968  0.00  0.00    +0.000 C 
BRANCH  23  24
ATOM     24  C   ALA A   1       0.848   2.580  19.675  0.00  0.00    +0.000 C 
ATOM     25  O   ALA A   1       0.252   1.957  18.804  0.00  0.00    +0.000 OA
BRANCH  24  26
ATOM     26  OXT ALA A   1       0.232   3.508  20.444  0.00  0.00    +0.000 OA
ATOM     27  HXT ALA A   1      -0.654   3.243  20.760  0.00  0.00    +0.000 HD
ENDBRANCH  24  26
ENDBRANCH  23  24
ENDBRANCH  18  23
ENDBRANCH   1  19
TORSDOF 5
ENDMDL
MODEL 2
REMARK VINA RESULT:      -8.1      4.026      6.961
REMARK  Name = 
REMARK  6 active torsions:
REMARK  status: ('A' for Active; 'I' for Inactive)
REMARK    1  A    between atoms: CB_1  and  CA_2
REMARK    2  A    between atoms: CA_2  and  N_3
REMARK    3  A    between atoms: CA_2  and  C_23
REMARK    4  A    between atoms: C_4  and  C_6
REMARK    5  A    between atoms: C_13  and  C_14
REMARK    6  A    between atoms: C_23  and  OXT_25
REMARK                            x       y       z     vdW  Elec       q    Type
REMARK                         _______ _______ _______ _____ _____    ______ ____
ROOT
ATOM      1  C   UNK A   0       2.242   5.369  19.930  0.00  0.00    +0.000 A 
ATOM      2  C   UNK A   0       1.509   4.656  20.896  0.00  0.00    +0.000 A 
ATOM      3  C   UNK A   0       1.597   3.271  20.977  0.00  0.00    +0.000 A 
ATOM      4  F   UNK A   0       0.887   2.625  21.912  0.00  0.00    +0.000 F 
ATOM      5  C   UNK A   0       2.401   2.530  20.113  0.00  0.00    +0.000 A 
ATOM      6  C   UNK A   0       3.138   3.219  19.138  0.00  0.00    +0.000 A 
ATOM      7  C   UNK A   0       4.027   2.836  18.104  0.00  0.00    +0.000 A 
ATOM      8  C   UNK A   0       4.445   3.992  17.480  0.00  0.00    +0.000 A 
ATOM      9  O   UNK A   0       3.862   5.074  18.073  0.00  0.00    +0.000 OA
ATOM     10  C   UNK A   0       3.051   4.608  19.075  0.00  0.00    +0.000 A 
ENDROOT
BRANCH   8  11
ATOM     11  C   UNK A   0       5.342   4.239  16.360  0.00  0.00    +0.000 A 
ATOM     12  C   UNK A   0       6.554   4.913  16.585  0.00  0.00    +0.000 A 
ATOM     13  C   UNK A   0       7.396   5.249  15.523  0.00  0.00    +0.000 A 
ATOM     14  C   UNK A   0       7.031   4.914  14.222  0.00  0.00    +0.000 A 
ATOM     15 CL   UNK A   0       8.044   5.371  12.910  0.00  0.00    +0.000 Cl
ATOM     16  C   UNK A   0       5.844   4.224  13.982  0.00  0.00    +0.000 A 
ATOM     17  C   UNK A   0       5.006   3.878  15.048  0.00  0.00    +0.000 A 
ENDBRANCH   8  11
BRANCH   1  19
ATOM     18  N   ALA A   1       1.565   7.473  20.948  0.00  0.00    +0.000 N 
ATOM     19  C   UNK A   0       2.128   6.845  19.866  0.00  0.00    +0.000 C 
ATOM     20  O   UNK A   0       2.529   7.454  18.881  0.00  0.00    +0.000 OA
ATOM     21  H   ALA A   1       1.256   6.928  21.753  0.00  0.00    +0.000 HD
BRANCH  18  23
ATOM     22  CB  ALA A   1       0.021   9.298  20.384  0.00  0.00    +0.000 C 
ATOM     23  CA  ALA A   1       1.357   8.911  21.003  0.00  0.00    +0.000 C 
BRANCH  23  24
ATOM     24  C   ALA A   1       1.382   9.340  22.470  0.00  0.00    +0.000 C 
ATOM     25  O   ALA A   1       0.391   9.701  23.094  0.00  0.00    +0.000 OA
BRANCH  24  26
ATOM     26  OXT ALA A   1       2.616   9.325  23.026  0.00  0.00    +0.000 OA
ATOM     27  HXT ALA A   1       3.348   9.331  22.379  0.00  0.00    +0.000 HD
ENDBRANCH  24  26
ENDBRANCH  23  24
ENDBRANCH  18  23
ENDBRANCH   1  19
TORSDOF 5
ENDMDL
MODEL 3
REMARK VINA RESULT:      -8.0      0.957      1.223
REMARK  Name = 
REMARK  6 active torsions:
REMARK  status: ('A' for Active; 'I' for Inactive)
REMARK    1  A    between atoms: CB_1  and  CA_2
REMARK    2  A    between atoms: CA_2  and  N_3
REMARK    3  A    between atoms: CA_2  and  C_23
REMARK    4  A    between atoms: C_4  and  C_6
REMARK    5  A    between atoms: C_13  and  C_14
REMARK    6  A    between atoms: C_23  and  OXT_25
REMARK                            x       y       z     vdW  Elec       q    Type
REMARK                         _______ _______ _______ _____ _____    ______ ____
ROOT
ATOM      1  C   UNK A   0       4.237   4.350  17.275  0.00  0.00    +0.000 A 
ATOM      2  C   UNK A   0       5.146   4.159  16.220  0.00  0.00    +0.000 A 
ATOM      3  C   UNK A   0       5.609   5.237  15.473  0.00  0.00    +0.000 A 
ATOM      4  F   UNK A   0       6.477   5.018  14.477  0.00  0.00    +0.000 F 
ATOM      5  C   UNK A   0       5.194   6.543  15.728  0.00  0.00    +0.000 A 
ATOM      6  C   UNK A   0       4.283   6.759  16.773  0.00  0.00    +0.000 A 
ATOM      7  C   UNK A   0       3.637   7.897  17.314  0.00  0.00    +0.000 A 
ATOM      8  C   UNK A   0       2.852   7.458  18.359  0.00  0.00    +0.000 A 
ATOM      9  O   UNK A   0       2.978   6.106  18.496  0.00  0.00    +0.000 OA
ATOM     10  C   UNK A   0       3.837   5.671  17.521  0.00  0.00    +0.000 A 
ENDROOT
BRANCH   8  11
ATOM     11  C   UNK A   0       1.961   8.149  19.281  0.00  0.00    +0.000 A 
ATOM     12  C   UNK A   0       1.377   9.366  18.892  0.00  0.00    +0.000 A 
ATOM     13  C   UNK A   0       0.592  10.102  19.782  0.00  0.00    +0.000 A 
ATOM     14  C   UNK A   0       0.386   9.627  21.073  0.00  0.00    +0.000 A 
ATOM     15 CL   UNK A   0      -0.540  10.558  22.184  0.00  0.00    +0.000 Cl
ATOM     16  C   UNK A   0       0.937   8.409  21.470  0.00  0.00    +0.000 A 
ATOM     17  C   UNK A   0       1.715   7.668  20.574  0.00  0.00    +0.000 A 
ENDBRANCH   8  11
BRANCH   1  19
ATOM     18  N   ALA A   1       3.352   3.418  19.341  0.00  0.00    +0.000 N 
ATOM     19  C   UNK A   0       3.761   3.182  18.052  0.00  0.00    +0.000 C 
ATOM     20  O   UNK A   0       3.738   2.068  17.544  0.00  0.00    +0.000 OA
ATOM     21  H   ALA A   1       3.375   4.365  19.720  0.00  0.00    +0.000 HD
BRANCH  18  23
ATOM     22  CB  ALA A   1       4.039   1.832  21.086  0.00  0.00    +0.000 C 
ATOM     23  CA  ALA A   1       2.898   2.360  20.228  0.00  0.00    +0.000 C 
BRANCH  23  24
ATOM     24  C   ALA A   1       1.804   2.932  21.131  0.00  0.00    +0.000 C 
ATOM     25  O   ALA A   1       1.946   3.137  22.331  0.00  0.00    +0.000 OA
BRANCH  24  26
ATOM     26  OXT ALA A   1       0.632   3.165  20.495  0.00  0.00    +0.000 OA
ATOM     27  HXT ALA A   1       0.651   3.929  19.887  0.00  0.00    +0.000 HD
ENDBRANCH  24  26
ENDBRANCH  23  24
ENDBRANCH  18  23
ENDBRANCH   1  19
TORSDOF 5
ENDMDL
MODEL 4
REMARK VINA RESULT:      -7.8      2.684      4.865
REMARK  Name = 
REMARK  6 active torsions:
REMARK  status: ('A' for Active; 'I' for Inactive)
REMARK    1  A    between atoms: CB_1  and  CA_2
REMARK    2  A    between atoms: CA_2  and  N_3
REMARK    3  A    between atoms: CA_2  and  C_23
REMARK    4  A    between atoms: C_4  and  C_6
REMARK    5  A    between atoms: C_13  and  C_14
REMARK    6  A    between atoms: C_23  and  OXT_25
REMARK                            x       y       z     vdW  Elec       q    Type
REMARK                         _______ _______ _______ _____ _____    ______ ____
ROOT
ATOM      1  C   UNK A   0       3.489   3.998  19.116  0.00  0.00    +0.000 A 
ATOM      2  C   UNK A   0       3.456   2.826  19.892  0.00  0.00    +0.000 A 
ATOM      3  C   UNK A   0       2.748   2.784  21.089  0.00  0.00    +0.000 A 
ATOM      4  F   UNK A   0       2.736   1.650  21.801  0.00  0.00    +0.000 F 
ATOM      5  C   UNK A   0       2.051   3.889  21.573  0.00  0.00    +0.000 A 
ATOM      6  C   UNK A   0       2.074   5.072  20.818  0.00  0.00    +0.000 A 
ATOM      7  C   UNK A   0       1.522   6.366  20.975  0.00  0.00    +0.000 A 
ATOM      8  C   UNK A   0       1.895   7.103  19.871  0.00  0.00    +0.000 A 
ATOM      9  O   UNK A   0       2.650   6.332  19.035  0.00  0.00    +0.000 OA
ATOM     10  C   UNK A   0       2.777   5.097  19.615  0.00  0.00    +0.000 A 
ENDROOT
BRANCH   8  11
ATOM     11  C   UNK A   0       1.640   8.480  19.472  0.00  0.00    +0.000 A 
ATOM     12  C   UNK A   0       2.142   8.945  18.245  0.00  0.00    +0.000 A 
ATOM     13  C   UNK A   0       1.998  10.283  17.871  0.00  0.00    +0.000 A 
ATOM     14  C   UNK A   0       1.350  11.170  18.726  0.00  0.00    +0.000 A 
ATOM     15 CL   UNK A   0       1.216  12.827  18.287  0.00  0.00    +0.000 Cl
ATOM     16  C   UNK A   0       0.824  10.722  19.936  0.00  0.00    +0.000 A 
ATOM     17  C   UNK A   0       0.960   9.379  20.304  0.00  0.00    +0.000 A 
ENDBRANCH   8  11
BRANCH   1  19
ATOM     18  N   ALA A   1       4.883   5.186  17.514  0.00  0.00    +0.000 N 
ATOM     19  C   UNK A   0       4.253   4.014  17.846  0.00  0.00    +0.000 C 
ATOM     20  O   UNK A   0       4.307   3.011  17.144  0.00  0.00    +0.000 OA
ATOM     21  H   ALA A   1       4.822   5.993  18.135  0.00  0.00    +0.000 HD
BRANCH  18  23
ATOM     22  CB  ALA A   1       5.190   6.603  15.531  0.00  0.00    +0.000 C 
ATOM     23  CA  ALA A   1       5.633   5.354  16.280  0.00  0.00    +0.000 C 
BRANCH  23  24
ATOM     24  C   ALA A   1       7.115   5.472  16.637  0.00  0.00    +0.000 C 
ATOM     25  O   ALA A   1       7.774   4.564  17.131  0.00  0.00    +0.000 OA
BRANCH  24  26
ATOM     26  OXT ALA A   1       7.644   6.695  16.394  0.00  0.00    +0.000 OA
ATOM     27  HXT ALA A   1       8.557   6.675  16.047  0.00  0.00    +0.000 HD
ENDBRANCH  24  26
ENDBRANCH  23  24
ENDBRANCH  18  23
ENDBRANCH   1  19
TORSDOF 5
ENDMDL
MODEL 5
REMARK VINA RESULT:      -7.8      1.037      1.510
REMARK  Name = 
REMARK  6 active torsions:
REMARK  status: ('A' for Active; 'I' for Inactive)
REMARK    1  A    between atoms: CB_1  and  CA_2
REMARK    2  A    between atoms: CA_2  and  N_3
REMARK    3  A    between atoms: CA_2  and  C_23
REMARK    4  A    between atoms: C_4  and  C_6
REMARK    5  A    between atoms: C_13  and  C_14
REMARK    6  A    between atoms: C_23  and  OXT_25
REMARK                            x       y       z     vdW  Elec       q    Type
REMARK                         _______ _______ _______ _____ _____    ______ ____
ROOT
ATOM      1  C   UNK A   0       4.471   3.954  17.183  0.00  0.00    +0.000 A 
ATOM      2  C   UNK A   0       5.409   3.553  16.215  0.00  0.00    +0.000 A 
ATOM      3  C   UNK A   0       5.982   4.480  15.351  0.00  0.00    +0.000 A 
ATOM      4  F   UNK A   0       6.874   4.062  14.443  0.00  0.00    +0.000 F 
ATOM      5  C   UNK A   0       5.655   5.833  15.398  0.00  0.00    +0.000 A 
ATOM      6  C   UNK A   0       4.718   6.257  16.353  0.00  0.00    +0.000 A 
ATOM      7  C   UNK A   0       4.135   7.502  16.694  0.00  0.00    +0.000 A 
ATOM      8  C   UNK A   0       3.275   7.271  17.747  0.00  0.00    +0.000 A 
ATOM      9  O   UNK A   0       3.295   5.947  18.078  0.00  0.00    +0.000 OA
ATOM     10  C   UNK A   0       4.160   5.320  17.221  0.00  0.00    +0.000 A 
ENDROOT
BRANCH   8  11
ATOM     11  C   UNK A   0       2.399   8.146  18.514  0.00  0.00    +0.000 A 
ATOM     12  C   UNK A   0       2.067   7.799  19.835  0.00  0.00    +0.000 A 
ATOM     13  C   UNK A   0       1.158   8.564  20.569  0.00  0.00    +0.000 A 
ATOM     14  C   UNK A   0       0.570   9.682  19.987  0.00  0.00    +0.000 A 
ATOM     15 CL   UNK A   0      -0.586  10.595  20.875  0.00  0.00    +0.000 Cl
ATOM     16  C   UNK A   0       0.906  10.056  18.686  0.00  0.00    +0.000 A 
ATOM     17  C   UNK A   0       1.825   9.295  17.955  0.00  0.00    +0.000 A 
ENDBRANCH   8  11
BRANCH   1  19
ATOM     18  N   ALA A   1       3.595   3.348  19.370  0.00  0.00    +0.000 N 
ATOM     19  C   UNK A   0       3.876   2.944  18.089  0.00  0.00    +0.000 C 
ATOM     20  O   UNK A   0       3.651   1.808  17.687  0.00  0.00    +0.000 OA
ATOM     21  H   ALA A   1       3.786   4.307  19.658  0.00  0.00    +0.000 HD
BRANCH  18  23
ATOM     22  CB  ALA A   1       4.150   1.752  21.153  0.00  0.00    +0.000 C 
ATOM     23  CA  ALA A   1       3.045   2.451  20.374  0.00  0.00    +0.000 C 
BRANCH  23  24
ATOM     24  C   ALA A   1       2.189   3.278  21.334  0.00  0.00    +0.000 C 
ATOM     25  O   ALA A   1       2.077   4.497  21.271  0.00  0.00    +0.000 OA
BRANCH  24  26
ATOM     26  OXT ALA A   1       1.583   2.549  22.299  0.00  0.00    +0.000 OA
ATOM     27  HXT ALA A   1       0.631   2.740  22.408  0.00  0.00    +0.000 HD
ENDBRANCH  24  26
ENDBRANCH  23  24
ENDBRANCH  18  23
ENDBRANCH   1  19
TORSDOF 5
ENDMDL
MODEL 6
REMARK VINA RESULT:      -7.8      2.793      4.889
REMARK  Name = 
REMARK  6 active torsions:
REMARK  status: ('A' for Active; 'I' for Inactive)
REMARK    1  A    between atoms: CB_1  and  CA_2
REMARK    2  A    between atoms: CA_2  and  N_3
REMARK    3  A    between atoms: CA_2  and  C_23
REMARK    4  A    between atoms: C_4  and  C_6
REMARK    5  A    between atoms: C_13  and  C_14
REMARK    6  A    between atoms: C_23  and  OXT_25
REMARK                            x       y       z     vdW  Elec       q    Type
REMARK                         _______ _______ _______ _____ _____    ______ ____
ROOT
ATOM      1  C   UNK A   0       4.149   4.201  19.595  0.00  0.00    +0.000 A 
ATOM      2  C   UNK A   0       3.977   2.951  20.215  0.00  0.00    +0.000 A 
ATOM      3  C   UNK A   0       2.891   2.713  21.050  0.00  0.00    +0.000 A 
ATOM      4  F   UNK A   0       2.758   1.509  21.622  0.00  0.00    +0.000 F 
ATOM      5  C   UNK A   0       1.934   3.691  21.314  0.00  0.00    +0.000 A 
ATOM      6  C   UNK A   0       2.087   4.949  20.711  0.00  0.00    +0.000 A 
ATOM      7  C   UNK A   0       1.360   6.164  20.740  0.00  0.00    +0.000 A 
ATOM      8  C   UNK A   0       2.018   7.050  19.914  0.00  0.00    +0.000 A 
ATOM      9  O   UNK A   0       3.116   6.447  19.371  0.00  0.00    +0.000 OA
ATOM     10  C   UNK A   0       3.173   5.170  19.866  0.00  0.00    +0.000 A 
ENDROOT
BRANCH   8  11
ATOM     11  C   UNK A   0       1.760   8.436  19.548  0.00  0.00    +0.000 A 
ATOM     12  C   UNK A   0       1.070   9.267  20.446  0.00  0.00    +0.000 A 
ATOM     13  C   UNK A   0       0.724  10.573  20.093  0.00  0.00    +0.000 A 
ATOM     14  C   UNK A   0       1.065  11.059  18.835  0.00  0.00    +0.000 A 
ATOM     15 CL   UNK A   0       0.596  12.651  18.383  0.00  0.00    +0.000 Cl
ATOM     16  C   UNK A   0       1.772  10.258  17.940  0.00  0.00    +0.000 A 
ATOM     17  C   UNK A   0       2.127   8.953  18.299  0.00  0.00    +0.000 A 
ENDBRANCH   8  11
BRANCH   1  19
ATOM     18  N   ALA A   1       5.116   4.266  17.364  0.00  0.00    +0.000 N 
ATOM     19  C   UNK A   0       5.316   4.427  18.711  0.00  0.00    +0.000 C 
ATOM     20  O   UNK A   0       6.400   4.746  19.187  0.00  0.00    +0.000 OA
ATOM     21  H   ALA A   1       4.194   4.012  17.010  0.00  0.00    +0.000 HD
BRANCH  18  23
ATOM     22  CB  ALA A   1       5.848   3.696  15.090  0.00  0.00    +0.000 C 
ATOM     23  CA  ALA A   1       6.182   4.418  16.387  0.00  0.00    +0.000 C 
BRANCH  23  24
ATOM     24  C   ALA A   1       6.362   5.911  16.107  0.00  0.00    +0.000 C 
ATOM     25  O   ALA A   1       5.576   6.582  15.449  0.00  0.00    +0.000 OA
BRANCH  24  26
ATOM     26  OXT ALA A   1       7.499   6.434  16.622  0.00  0.00    +0.000 OA
ATOM     27  HXT ALA A   1       8.206   5.778  16.783  0.00  0.00    +0.000 HD
ENDBRANCH  24  26
ENDBRANCH  23  24
ENDBRANCH  18  23
ENDBRANCH   1  19
TORSDOF 5
ENDMDL
MODEL 7
REMARK VINA RESULT:      -7.8      2.793      4.858
REMARK  Name = 
REMARK  6 active torsions:
REMARK  status: ('A' for Active; 'I' for Inactive)
REMARK    1  A    between atoms: CB_1  and  CA_2
REMARK    2  A    between atoms: CA_2  and  N_3
REMARK    3  A    between atoms: CA_2  and  C_23
REMARK    4  A    between atoms: C_4  and  C_6
REMARK    5  A    between atoms: C_13  and  C_14
REMARK    6  A    between atoms: C_23  and  OXT_25
REMARK                            x       y       z     vdW  Elec       q    Type
REMARK                         _______ _______ _______ _____ _____    ______ ____
ROOT
ATOM      1  C   UNK A   0       3.830   4.540  19.095  0.00  0.00    +0.000 A 
ATOM      2  C   UNK A   0       3.808   3.293  19.745  0.00  0.00    +0.000 A 
ATOM      3  C   UNK A   0       2.951   3.063  20.815  0.00  0.00    +0.000 A 
ATOM      4  F   UNK A   0       2.955   1.862  21.409  0.00  0.00    +0.000 F 
ATOM      5  C   UNK A   0       2.085   4.045  21.292  0.00  0.00    +0.000 A 
ATOM      6  C   UNK A   0       2.092   5.299  20.662  0.00  0.00    +0.000 A 
ATOM      7  C   UNK A   0       1.394   6.516  20.856  0.00  0.00    +0.000 A 
ATOM      8  C   UNK A   0       1.839   7.396  19.892  0.00  0.00    +0.000 A 
ATOM      9  O   UNK A   0       2.777   6.787  19.108  0.00  0.00    +0.000 OA
ATOM     10  C   UNK A   0       2.947   5.513  19.583  0.00  0.00    +0.000 A 
ENDROOT
BRANCH   8  11
ATOM     11  C   UNK A   0       1.504   8.781  19.590  0.00  0.00    +0.000 A 
ATOM     12  C   UNK A   0       1.899   9.331  18.359  0.00  0.00    +0.000 A 
ATOM     13  C   UNK A   0       1.677  10.680  18.073  0.00  0.00    +0.000 A 
ATOM     14  C   UNK A   0       1.057  11.491  19.018  0.00  0.00    +0.000 A 
ATOM     15 CL   UNK A   0       0.828  13.163  18.684  0.00  0.00    +0.000 Cl
ATOM     16  C   UNK A   0       0.636  10.957  20.235  0.00  0.00    +0.000 A 
ATOM     17  C   UNK A   0       0.850   9.603  20.517  0.00  0.00    +0.000 A 
ENDBRANCH   8  11
BRANCH   1  19
ATOM     18  N   ALA A   1       5.702   5.739  18.107  0.00  0.00    +0.000 N 
ATOM     19  C   UNK A   0       4.755   4.757  17.958  0.00  0.00    +0.000 C 
ATOM     20  O   UNK A   0       4.661   4.076  16.944  0.00  0.00    +0.000 OA
ATOM     21  H   ALA A   1       5.753   6.274  18.974  0.00  0.00    +0.000 HD
BRANCH  18  23
ATOM     22  CB  ALA A   1       7.592   7.189  17.510  0.00  0.00    +0.000 C 
ATOM     23  CA  ALA A   1       6.648   6.084  17.058  0.00  0.00    +0.000 C 
BRANCH  23  24
ATOM     24  C   ALA A   1       7.456   4.833  16.714  0.00  0.00    +0.000 C 
ATOM     25  O   ALA A   1       8.172   4.240  17.514  0.00  0.00    +0.000 OA
BRANCH  24  26
ATOM     26  OXT ALA A   1       7.346   4.444  15.423  0.00  0.00    +0.000 OA
ATOM     27  HXT ALA A   1       7.481   5.163  14.775  0.00  0.00    +0.000 HD
ENDBRANCH  24  26
ENDBRANCH  23  24
ENDBRANCH  18  23
ENDBRANCH   1  19
TORSDOF 5
ENDMDL
MODEL 8
REMARK VINA RESULT:      -7.7      2.664      4.932
REMARK  Name = 
REMARK  6 active torsions:
REMARK  status: ('A' for Active; 'I' for Inactive)
REMARK    1  A    between atoms: CB_1  and  CA_2
REMARK    2  A    between atoms: CA_2  and  N_3
REMARK    3  A    between atoms: CA_2  and  C_23
REMARK    4  A    between atoms: C_4  and  C_6
REMARK    5  A    between atoms: C_13  and  C_14
REMARK    6  A    between atoms: C_23  and  OXT_25
REMARK                            x       y       z     vdW  Elec       q    Type
REMARK                         _______ _______ _______ _____ _____    ______ ____
ROOT
ATOM      1  C   UNK A   0       3.420   4.022  19.047  0.00  0.00    +0.000 A 
ATOM      2  C   UNK A   0       3.383   2.839  19.806  0.00  0.00    +0.000 A 
ATOM      3  C   UNK A   0       2.708   2.792  21.020  0.00  0.00    +0.000 A 
ATOM      4  F   UNK A   0       2.691   1.647  21.715  0.00  0.00    +0.000 F 
ATOM      5  C   UNK A   0       2.049   3.904  21.542  0.00  0.00    +0.000 A 
ATOM      6  C   UNK A   0       2.076   5.098  20.805  0.00  0.00    +0.000 A 
ATOM      7  C   UNK A   0       1.557   6.401  20.999  0.00  0.00    +0.000 A 
ATOM      8  C   UNK A   0       1.915   7.148  19.896  0.00  0.00    +0.000 A 
ATOM      9  O   UNK A   0       2.629   6.375  19.027  0.00  0.00    +0.000 OA
ATOM     10  C   UNK A   0       2.746   5.128  19.583  0.00  0.00    +0.000 A 
ENDROOT
BRANCH   8  11
ATOM     11  C   UNK A   0       1.679   8.536  19.526  0.00  0.00    +0.000 A 
ATOM     12  C   UNK A   0       0.977   9.374  20.409  0.00  0.00    +0.000 A 
ATOM     13  C   UNK A   0       0.653  10.684  20.050  0.00  0.00    +0.000 A 
ATOM     14  C   UNK A   0       1.028  11.168  18.800  0.00  0.00    +0.000 A 
ATOM     15 CL   UNK A   0       0.585  12.765  18.339  0.00  0.00    +0.000 Cl
ATOM     16  C   UNK A   0       1.746  10.360  17.920  0.00  0.00    +0.000 A 
ATOM     17  C   UNK A   0       2.080   9.051  18.286  0.00  0.00    +0.000 A 
ENDBRANCH   8  11
BRANCH   1  19
ATOM     18  N   ALA A   1       5.006   5.092  17.544  0.00  0.00    +0.000 N 
ATOM     19  C   UNK A   0       4.148   4.043  17.757  0.00  0.00    +0.000 C 
ATOM     20  O   UNK A   0       3.978   3.150  16.936  0.00  0.00    +0.000 OA
ATOM     21  H   ALA A   1       5.128   5.808  18.260  0.00  0.00    +0.000 HD
BRANCH  18  23
ATOM     22  CB  ALA A   1       5.188   6.396  15.470  0.00  0.00    +0.000 C 
ATOM     23  CA  ALA A   1       5.754   5.259  16.308  0.00  0.00    +0.000 C 
BRANCH  23  24
ATOM     24  C   ALA A   1       7.208   5.566  16.670  0.00  0.00    +0.000 C 
ATOM     25  O   ALA A   1       7.699   6.689  16.631  0.00  0.00    +0.000 OA
BRANCH  24  26
ATOM     26  OXT ALA A   1       7.934   4.475  17.006  0.00  0.00    +0.000 OA
ATOM     27  HXT ALA A   1       8.349   4.019  16.248  0.00  0.00    +0.000 HD
ENDBRANCH  24  26
ENDBRANCH  23  24
ENDBRANCH  18  23
ENDBRANCH   1  19
TORSDOF 5
ENDMDL
MODEL 9
REMARK VINA RESULT:      -7.6      2.626      4.835
REMARK  Name = 
REMARK  6 active torsions:
REMARK  status: ('A' for Active; 'I' for Inactive)
REMARK    1  A    between atoms: CB_1  and  CA_2
REMARK    2  A    between atoms: CA_2  and  N_3
REMARK    3  A    between atoms: CA_2  and  C_23
REMARK    4  A    between atoms: C_4  and  C_6
REMARK    5  A    between atoms: C_13  and  C_14
REMARK    6  A    between atoms: C_23  and  OXT_25
REMARK                            x       y       z     vdW  Elec       q    Type
REMARK                         _______ _______ _______ _____ _____    ______ ____
ROOT
ATOM      1  C   UNK A   0       3.758   4.261  18.129  0.00  0.00    +0.000 A 
ATOM      2  C   UNK A   0       3.721   2.860  18.237  0.00  0.00    +0.000 A 
ATOM      3  C   UNK A   0       2.881   2.238  19.156  0.00  0.00    +0.000 A 
ATOM      4  F   UNK A   0       2.870   0.901  19.230  0.00  0.00    +0.000 F 
ATOM      5  C   UNK A   0       2.051   2.966  20.007  0.00  0.00    +0.000 A 
ATOM      6  C   UNK A   0       2.074   4.366  19.920  0.00  0.00    +0.000 A 
ATOM      7  C   UNK A   0       1.412   5.418  20.598  0.00  0.00    +0.000 A 
ATOM      8  C   UNK A   0       1.856   6.600  20.044  0.00  0.00    +0.000 A 
ATOM      9  O   UNK A   0       2.761   6.336  19.056  0.00  0.00    +0.000 OA
ATOM     10  C   UNK A   0       2.911   4.976  18.987  0.00  0.00    +0.000 A 
ENDROOT
BRANCH   8  11
ATOM     11  C   UNK A   0       1.549   7.996  20.321  0.00  0.00    +0.000 A 
ATOM     12  C   UNK A   0       1.278   8.393  21.641  0.00  0.00    +0.000 A 
ATOM     13  C   UNK A   0       0.889   9.702  21.931  0.00  0.00    +0.000 A 
ATOM     14  C   UNK A   0       0.766  10.628  20.900  0.00  0.00    +0.000 A 
ATOM     15 CL   UNK A   0       0.240  12.228  21.252  0.00  0.00    +0.000 Cl
ATOM     16  C   UNK A   0       1.054  10.260  19.587  0.00  0.00    +0.000 A 
ATOM     17  C   UNK A   0       1.454   8.951  19.299  0.00  0.00    +0.000 A 
ENDBRANCH   8  11
BRANCH   1  19
ATOM     18  N   ALA A   1       5.678   5.673  17.639  0.00  0.00    +0.000 N 
ATOM     19  C   UNK A   0       4.663   4.896  17.142  0.00  0.00    +0.000 C 
ATOM     20  O   UNK A   0       4.493   4.716  15.942  0.00  0.00    +0.000 OA
ATOM     21  H   ALA A   1       5.791   5.785  18.647  0.00  0.00    +0.000 HD
BRANCH  18  23
ATOM     22  CB  ALA A   1       7.509   7.310  17.598  0.00  0.00    +0.000 C 
ATOM     23  CA  ALA A   1       6.615   6.385  16.785  0.00  0.00    +0.000 C 
BRANCH  23  24
ATOM     24  C   ALA A   1       7.477   5.351  16.059  0.00  0.00    +0.000 C 
ATOM     25  O   ALA A   1       7.659   5.343  14.847  0.00  0.00    +0.000 OA
BRANCH  24  26
ATOM     26  OXT ALA A   1       8.003   4.405  16.872  0.00  0.00    +0.000 OA
ATOM     27  HXT ALA A   1       8.899   4.613  17.201  0.00  0.00    +0.000 HD
ENDBRANCH  24  26
ENDBRANCH  23  24
ENDBRANCH  18  23
ENDBRANCH   1  19
TORSDOF 5
ENDMDL
