MODEL 1
REMARK VINA RESULT:      -7.9      0.000      0.000
REMARK  Name = 
REMARK  8 active torsions:
REMARK  status: ('A' for Active; 'I' for Inactive)
REMARK    1  A    between atoms: C_1  and  O_2
REMARK    2  A    between atoms: O_2  and  C_3
REMARK    3  A    between atoms: C_6  and  C_7
REMARK    4  A    between atoms: C_8  and  N_9
REMARK    5  A    between atoms: C_8  and  C_18
REMARK    6  A    between atoms: C_10  and  C_12
REMARK    7  A    between atoms: C_27  and  O_28
REMARK    8  A    between atoms: O_28  and  C_29
REMARK                            x       y       z     vdW  Elec       q    Type
REMARK                         _______ _______ _______ _____ _____    ______ ____
ROOT
ATOM      1  C   UNL     1       3.596   7.907  17.390  0.00  0.00    +0.000 C 
ATOM      2  C   UNL     1       4.059   6.639  17.367  0.00  0.00    +0.000 C 
ENDROOT
BRANCH   2   3
ATOM      3  C   UNL     1       5.477   6.449  16.831  0.00  0.00    +0.000 C 
ATOM      4  O   UNL     1       6.349   7.242  17.200  0.00  0.00    +0.000 OA
ATOM      5  N   UNL     1       5.786   5.392  15.969  0.00  0.00    +0.000 N 
ATOM      6  C   UNL     1       7.198   5.176  15.623  0.00  0.00    +0.000 C 
ATOM      7  C   UNL     1       7.404   4.999  14.118  0.00  0.00    +0.000 C 
ATOM      8  C   UNL     1       6.509   3.901  13.557  0.00  0.00    +0.000 C 
ATOM      9  C   UNL     1       5.058   4.171  13.923  0.00  0.00    +0.000 C 
ATOM     10  C   UNL     1       4.874   4.385  15.423  0.00  0.00    +0.000 C 
ENDBRANCH   2   3
BRANCH   1  14
ATOM     11  C   UNL     1       0.291   9.500  19.636  0.00  0.00    +0.000 A 
ATOM     12  C   UNL     1       0.479   9.852  18.287  0.00  0.00    +0.000 A 
ATOM     13  C   UNL     1       1.541   9.318  17.542  0.00  0.00    +0.000 A 
ATOM     14  C   UNL     1       2.428   8.421  18.124  0.00  0.00    +0.000 A 
ATOM     15  C   UNL     1       2.247   8.084  19.470  0.00  0.00    +0.000 A 
ATOM     16  C   UNL     1       1.212   8.636  20.246  0.00  0.00    +0.000 A 
BRANCH  11  18
ATOM     17  C   UNL     1      -0.824  11.415  20.475  0.00  0.00    +0.000 C 
ATOM     18  O   UNL     1      -0.753   9.995  20.376  0.00  0.00    +0.000 OA
ENDBRANCH  11  18
BRANCH  16  19
ATOM     19  O   UNL     1       1.258   8.194  21.541  0.00  0.00    +0.000 OA
ATOM     20  C   UNL     1       1.358   9.121  22.611  0.00  0.00    +0.000 C 
ENDBRANCH  16  19
ENDBRANCH   1  14
BRANCH   2  21
ATOM     21  N   UNL     1       3.421   5.588  17.992  0.00  0.00    +0.000 N 
ATOM     22  C   UNL     1       3.992   4.868  19.037  0.00  0.00    +0.000 C 
ATOM     23  O   UNL     1       5.121   5.014  19.489  0.00  0.00    +0.000 OA
ATOM     24  H   UNL     1       2.412   5.678  18.035  0.00  0.00    +0.000 HD
BRANCH  22  25
ATOM     25  C   UNL     1       3.007   4.038  19.779  0.00  0.00    +0.000 A 
ATOM     26  C   UNL     1       1.633   4.250  19.612  0.00  0.00    +0.000 A 
ATOM     27  C   UNL     1       0.728   3.608  20.454  0.00  0.00    +0.000 A 
ATOM     28  C   UNL     1       1.192   2.745  21.450  0.00  0.00    +0.000 A 
ATOM     29  C   UNL     1       2.557   2.493  21.587  0.00  0.00    +0.000 A 
ATOM     30  C   UNL     1       3.469   3.137  20.748  0.00  0.00    +0.000 A 
ENDBRANCH  22  25
ENDBRANCH   2  21
TORSDOF 6
ENDMDL
MODEL 2
REMARK VINA RESULT:      -7.7      1.846      6.743
REMARK  Name = 
REMARK  8 active torsions:
REMARK  status: ('A' for Active; 'I' for Inactive)
REMARK    1  A    between atoms: C_1  and  O_2
REMARK    2  A    between atoms: O_2  and  C_3
REMARK    3  A    between atoms: C_6  and  C_7
REMARK    4  A    between atoms: C_8  and  N_9
REMARK    5  A    between atoms: C_8  and  C_18
REMARK    6  A    between atoms: C_10  and  C_12
REMARK    7  A    between atoms: C_27  and  O_28
REMARK    8  A    between atoms: O_28  and  C_29
REMARK                            x       y       z     vdW  Elec       q    Type
REMARK                         _______ _______ _______ _____ _____    ______ ____
ROOT
ATOM      1  C   UNL     1       3.899   8.137  17.506  0.00  0.00    +0.000 C 
ATOM      2  C   UNL     1       2.748   7.813  18.129  0.00  0.00    +0.000 C 
ENDROOT
BRANCH   2   3
ATOM      3  C   UNL     1       1.791   8.968  18.420  0.00  0.00    +0.000 C 
ATOM      4  O   UNL     1       1.598   9.802  17.530  0.00  0.00    +0.000 OA
ATOM      5  N   UNL     1       1.132   9.066  19.650  0.00  0.00    +0.000 N 
ATOM      6  C   UNL     1       0.108  10.109  19.802  0.00  0.00    +0.000 C 
ATOM      7  C   UNL     1       0.284  10.910  21.092  0.00  0.00    +0.000 C 
ATOM      8  C   UNL     1       0.348   9.997  22.311  0.00  0.00    +0.000 C 
ATOM      9  C   UNL     1       1.429   8.944  22.121  0.00  0.00    +0.000 C 
ATOM     10  C   UNL     1       1.263   8.181  20.810  0.00  0.00    +0.000 C 
ENDBRANCH   2   3
BRANCH   1  14
ATOM     11  C   UNL     1       6.604   5.352  15.651  0.00  0.00    +0.000 A 
ATOM     12  C   UNL     1       5.471   5.822  14.961  0.00  0.00    +0.000 A 
ATOM     13  C   UNL     1       4.598   6.748  15.551  0.00  0.00    +0.000 A 
ATOM     14  C   UNL     1       4.840   7.227  16.832  0.00  0.00    +0.000 A 
ATOM     15  C   UNL     1       5.959   6.746  17.522  0.00  0.00    +0.000 A 
ATOM     16  C   UNL     1       6.827   5.790  16.965  0.00  0.00    +0.000 A 
BRANCH  11  18
ATOM     17  C   UNL     1       7.316   4.235  13.686  0.00  0.00    +0.000 C 
ATOM     18  O   UNL     1       7.480   4.462  15.084  0.00  0.00    +0.000 OA
ENDBRANCH  11  18
BRANCH  16  19
ATOM     19  O   UNL     1       7.823   5.440  17.836  0.00  0.00    +0.000 OA
ATOM     20  C   UNL     1       7.745   5.817  19.202  0.00  0.00    +0.000 C 
ENDBRANCH  16  19
ENDBRANCH   1  14
BRANCH   2  21
ATOM     21  N   UNL     1       2.316   6.514  18.298  0.00  0.00    +0.000 N 
ATOM     22  C   UNL     1       2.889   5.639  19.217  0.00  0.00    +0.000 C 
ATOM     23  O   UNL     1       3.860   5.864  19.928  0.00  0.00    +0.000 OA
ATOM     24  H   UNL     1       1.324   6.380  18.141  0.00  0.00    +0.000 HD
BRANCH  22  25
ATOM     25  C   UNL     1       2.050   4.439  19.477  0.00  0.00    +0.000 A 
ATOM     26  C   UNL     1       1.879   3.964  20.783  0.00  0.00    +0.000 A 
ATOM     27  C   UNL     1       1.261   2.733  20.994  0.00  0.00    +0.000 A 
ATOM     28  C   UNL     1       0.803   1.986  19.906  0.00  0.00    +0.000 A 
ATOM     29  C   UNL     1       0.927   2.479  18.607  0.00  0.00    +0.000 A 
ATOM     30  C   UNL     1       1.549   3.710  18.389  0.00  0.00    +0.000 A 
ENDBRANCH  22  25
ENDBRANCH   2  21
TORSDOF 6
ENDMDL
MODEL 3
REMARK VINA RESULT:      -7.7      1.013      1.882
REMARK  Name = 
REMARK  8 active torsions:
REMARK  status: ('A' for Active; 'I' for Inactive)
REMARK    1  A    between atoms: C_1  and  O_2
REMARK    2  A    between atoms: O_2  and  C_3
REMARK    3  A    between atoms: C_6  and  C_7
REMARK    4  A    between atoms: C_8  and  N_9
REMARK    5  A    between atoms: C_8  and  C_18
REMARK    6  A    between atoms: C_10  and  C_12
REMARK    7  A    between atoms: C_27  and  O_28
REMARK    8  A    between atoms: O_28  and  C_29
REMARK                            x       y       z     vdW  Elec       q    Type
REMARK                         _______ _______ _______ _____ _____    ______ ____
ROOT
ATOM      1  C   UNL     1       3.840   7.788  17.367  0.00  0.00    +0.000 C 
ATOM      2  C   UNL     1       4.281   6.527  17.175  0.00  0.00    +0.000 C 
ENDROOT
BRANCH   2   3
ATOM      3  C   UNL     1       5.626   6.386  16.464  0.00  0.00    +0.000 C 
ATOM      4  O   UNL     1       6.490   7.242  16.677  0.00  0.00    +0.000 OA
ATOM      5  N   UNL     1       5.882   5.303  15.615  0.00  0.00    +0.000 N 
ATOM      6  C   UNL     1       7.247   5.145  15.093  0.00  0.00    +0.000 C 
ATOM      7  C   UNL     1       7.265   4.902  13.584  0.00  0.00    +0.000 C 
ATOM      8  C   UNL     1       6.370   3.730  13.197  0.00  0.00    +0.000 C 
ATOM      9  C   UNL     1       4.966   3.940  13.742  0.00  0.00    +0.000 C 
ATOM     10  C   UNL     1       4.968   4.222  15.241  0.00  0.00    +0.000 C 
ENDBRANCH   2   3
BRANCH   1  14
ATOM     11  C   UNL     1       0.596   9.019  19.910  0.00  0.00    +0.000 A 
ATOM     12  C   UNL     1       1.522   8.053  20.343  0.00  0.00    +0.000 A 
ATOM     13  C   UNL     1       2.595   7.663  19.529  0.00  0.00    +0.000 A 
ATOM     14  C   UNL     1       2.769   8.234  18.274  0.00  0.00    +0.000 A 
ATOM     15  C   UNL     1       1.838   9.183  17.839  0.00  0.00    +0.000 A 
ATOM     16  C   UNL     1       0.734   9.561  18.624  0.00  0.00    +0.000 A 
BRANCH  11  18
ATOM     17  C   UNL     1      -0.389   9.024  22.065  0.00  0.00    +0.000 C 
ATOM     18  O   UNL     1      -0.449   9.428  20.699  0.00  0.00    +0.000 OA
ENDBRANCH  11  18
BRANCH  16  19
ATOM     19  O   UNL     1      -0.060  10.470  17.978  0.00  0.00    +0.000 OA
ATOM     20  C   UNL     1      -1.349  10.094  17.515  0.00  0.00    +0.000 C 
ENDBRANCH  16  19
ENDBRANCH   1  14
BRANCH   2  21
ATOM     21  N   UNL     1       3.708   5.424  17.772  0.00  0.00    +0.000 N 
ATOM     22  C   UNL     1       4.242   4.809  18.900  0.00  0.00    +0.000 C 
ATOM     23  O   UNL     1       5.290   5.103  19.462  0.00  0.00    +0.000 OA
ATOM     24  H   UNL     1       2.697   5.391  17.705  0.00  0.00    +0.000 HD
BRANCH  22  25
ATOM     25  C   UNL     1       3.287   3.886  19.567  0.00  0.00    +0.000 A 
ATOM     26  C   UNL     1       2.823   2.744  18.903  0.00  0.00    +0.000 A 
ATOM     27  C   UNL     1       1.783   1.998  19.454  0.00  0.00    +0.000 A 
ATOM     28  C   UNL     1       1.218   2.383  20.672  0.00  0.00    +0.000 A 
ATOM     29  C   UNL     1       1.710   3.492  21.362  0.00  0.00    +0.000 A 
ATOM     30  C   UNL     1       2.750   4.245  20.812  0.00  0.00    +0.000 A 
ENDBRANCH  22  25
ENDBRANCH   2  21
TORSDOF 6
ENDMDL
MODEL 4
REMARK VINA RESULT:      -7.6      1.799      2.664
REMARK  Name = 
REMARK  8 active torsions:
REMARK  status: ('A' for Active; 'I' for Inactive)
REMARK    1  A    between atoms: C_1  and  O_2
REMARK    2  A    between atoms: O_2  and  C_3
REMARK    3  A    between atoms: C_6  and  C_7
REMARK    4  A    between atoms: C_8  and  N_9
REMARK    5  A    between atoms: C_8  and  C_18
REMARK    6  A    between atoms: C_10  and  C_12
REMARK    7  A    between atoms: C_27  and  O_28
REMARK    8  A    between atoms: O_28  and  C_29
REMARK                            x       y       z     vdW  Elec       q    Type
REMARK                         _______ _______ _______ _____ _____    ______ ____
ROOT
ATOM      1  C   UNL     1       2.646   8.392  17.821  0.00  0.00    +0.000 C 
ATOM      2  C   UNL     1       3.177   7.152  17.818  0.00  0.00    +0.000 C 
ENDROOT
BRANCH   2   3
ATOM      3  C   UNL     1       4.358   6.927  16.876  0.00  0.00    +0.000 C 
ATOM      4  O   UNL     1       4.237   7.273  15.697  0.00  0.00    +0.000 OA
ATOM      5  N   UNL     1       5.555   6.369  17.341  0.00  0.00    +0.000 N 
ATOM      6  C   UNL     1       6.700   6.331  16.420  0.00  0.00    +0.000 C 
ATOM      7  C   UNL     1       7.368   4.956  16.384  0.00  0.00    +0.000 C 
ATOM      8  C   UNL     1       7.748   4.484  17.783  0.00  0.00    +0.000 C 
ATOM      9  C   UNL     1       6.534   4.523  18.697  0.00  0.00    +0.000 C 
ATOM     10  C   UNL     1       5.855   5.890  18.691  0.00  0.00    +0.000 C 
ENDBRANCH   2   3
BRANCH   1  14
ATOM     11  C   UNL     1      -0.146  10.035  20.652  0.00  0.00    +0.000 A 
ATOM     12  C   UNL     1       0.718   8.987  21.020  0.00  0.00    +0.000 A 
ATOM     13  C   UNL     1       1.647   8.462  20.109  0.00  0.00    +0.000 A 
ATOM     14  C   UNL     1       1.737   8.975  18.821  0.00  0.00    +0.000 A 
ATOM     15  C   UNL     1       0.866  10.007  18.453  0.00  0.00    +0.000 A 
ATOM     16  C   UNL     1      -0.098  10.523  19.338  0.00  0.00    +0.000 A 
BRANCH  11  18
ATOM     17  C   UNL     1      -0.741  10.403  22.916  0.00  0.00    +0.000 C 
ATOM     18  O   UNL     1      -1.046  10.575  21.534  0.00  0.00    +0.000 OA
ENDBRANCH  11  18
BRANCH  16  19
ATOM     19  O   UNL     1      -0.862  11.494  18.747  0.00  0.00    +0.000 OA
ATOM     20  C   UNL     1      -0.471  12.856  18.822  0.00  0.00    +0.000 C 
ENDBRANCH  16  19
ENDBRANCH   1  14
BRANCH   2  21
ATOM     21  N   UNL     1       2.860   6.189  18.754  0.00  0.00    +0.000 N 
ATOM     22  C   UNL     1       2.052   5.092  18.469  0.00  0.00    +0.000 C 
ATOM     23  O   UNL     1       1.475   4.868  17.413  0.00  0.00    +0.000 OA
ATOM     24  H   UNL     1       3.587   6.018  19.439  0.00  0.00    +0.000 HD
BRANCH  22  25
ATOM     25  C   UNL     1       2.140   4.022  19.498  0.00  0.00    +0.000 A 
ATOM     26  C   UNL     1       1.072   3.791  20.373  0.00  0.00    +0.000 A 
ATOM     27  C   UNL     1       1.240   2.928  21.455  0.00  0.00    +0.000 A 
ATOM     28  C   UNL     1       2.466   2.288  21.653  0.00  0.00    +0.000 A 
ATOM     29  C   UNL     1       3.517   2.477  20.754  0.00  0.00    +0.000 A 
ATOM     30  C   UNL     1       3.355   3.343  19.671  0.00  0.00    +0.000 A 
ENDBRANCH  22  25
ENDBRANCH   2  21
TORSDOF 6
ENDMDL
MODEL 5
REMARK VINA RESULT:      -7.5      1.929      6.784
REMARK  Name = 
REMARK  8 active torsions:
REMARK  status: ('A' for Active; 'I' for Inactive)
REMARK    1  A    between atoms: C_1  and  O_2
REMARK    2  A    between atoms: O_2  and  C_3
REMARK    3  A    between atoms: C_6  and  C_7
REMARK    4  A    between atoms: C_8  and  N_9
REMARK    5  A    between atoms: C_8  and  C_18
REMARK    6  A    between atoms: C_10  and  C_12
REMARK    7  A    between atoms: C_27  and  O_28
REMARK    8  A    between atoms: O_28  and  C_29
REMARK                            x       y       z     vdW  Elec       q    Type
REMARK                         _______ _______ _______ _____ _____    ______ ____
ROOT
ATOM      1  C   UNL     1       3.452   8.083  17.756  0.00  0.00    +0.000 C 
ATOM      2  C   UNL     1       2.540   7.852  18.723  0.00  0.00    +0.000 C 
ENDROOT
BRANCH   2   3
ATOM      3  C   UNL     1       1.437   8.898  18.870  0.00  0.00    +0.000 C 
ATOM      4  O   UNL     1       1.152   9.586  17.885  0.00  0.00    +0.000 OA
ATOM      5  N   UNL     1       0.749   9.055  20.079  0.00  0.00    +0.000 N 
ATOM      6  C   UNL     1      -0.405   9.964  20.101  0.00  0.00    +0.000 C 
ATOM      7  C   UNL     1      -0.358  10.931  21.285  0.00  0.00    +0.000 C 
ATOM      8  C   UNL     1      -0.196  10.187  22.606  0.00  0.00    +0.000 C 
ATOM      9  C   UNL     1       1.016   9.270  22.546  0.00  0.00    +0.000 C 
ATOM     10  C   UNL     1       0.974   8.341  21.337  0.00  0.00    +0.000 C 
ENDBRANCH   2   3
BRANCH   1  14
ATOM     11  C   UNL     1       6.180   5.156  16.174  0.00  0.00    +0.000 A 
ATOM     12  C   UNL     1       5.295   5.845  15.326  0.00  0.00    +0.000 A 
ATOM     13  C   UNL     1       4.418   6.817  15.831  0.00  0.00    +0.000 A 
ATOM     14  C   UNL     1       4.415   7.125  17.185  0.00  0.00    +0.000 A 
ATOM     15  C   UNL     1       5.286   6.427  18.029  0.00  0.00    +0.000 A 
ATOM     16  C   UNL     1       6.146   5.423  17.551  0.00  0.00    +0.000 A 
BRANCH  11  18
ATOM     17  C   UNL     1       6.985   3.954  14.297  0.00  0.00    +0.000 C 
ATOM     18  O   UNL     1       7.059   4.217  15.696  0.00  0.00    +0.000 OA
ENDBRANCH  11  18
BRANCH  16  19
ATOM     19  O   UNL     1       6.872   4.852  18.561  0.00  0.00    +0.000 OA
ATOM     20  C   UNL     1       7.622   5.664  19.452  0.00  0.00    +0.000 C 
ENDBRANCH  16  19
ENDBRANCH   1  14
BRANCH   2  21
ATOM     21  N   UNL     1       2.436   6.654  19.397  0.00  0.00    +0.000 N 
ATOM     22  C   UNL     1       1.947   5.491  18.808  0.00  0.00    +0.000 C 
ATOM     23  O   UNL     1       1.494   5.386  17.675  0.00  0.00    +0.000 OA
ATOM     24  H   UNL     1       3.150   6.507  20.101  0.00  0.00    +0.000 HD
BRANCH  22  25
ATOM     25  C   UNL     1       2.257   4.267  19.591  0.00  0.00    +0.000 A 
ATOM     26  C   UNL     1       1.439   3.884  20.661  0.00  0.00    +0.000 A 
ATOM     27  C   UNL     1       1.847   2.855  21.508  0.00  0.00    +0.000 A 
ATOM     28  C   UNL     1       3.059   2.201  21.278  0.00  0.00    +0.000 A 
ATOM     29  C   UNL     1       3.853   2.546  20.183  0.00  0.00    +0.000 A 
ATOM     30  C   UNL     1       3.451   3.579  19.334  0.00  0.00    +0.000 A 
ENDBRANCH  22  25
ENDBRANCH   2  21
TORSDOF 6
ENDMDL
MODEL 6
REMARK VINA RESULT:      -7.3      1.013      1.098
REMARK  Name = 
REMARK  8 active torsions:
REMARK  status: ('A' for Active; 'I' for Inactive)
REMARK    1  A    between atoms: C_1  and  O_2
REMARK    2  A    between atoms: O_2  and  C_3
REMARK    3  A    between atoms: C_6  and  C_7
REMARK    4  A    between atoms: C_8  and  N_9
REMARK    5  A    between atoms: C_8  and  C_18
REMARK    6  A    between atoms: C_10  and  C_12
REMARK    7  A    between atoms: C_27  and  O_28
REMARK    8  A    between atoms: O_28  and  C_29
REMARK                            x       y       z     vdW  Elec       q    Type
REMARK                         _______ _______ _______ _____ _____    ______ ____
ROOT
ATOM      1  C   UNL     1       4.063   7.630  17.018  0.00  0.00    +0.000 C 
ATOM      2  C   UNL     1       4.440   6.348  16.834  0.00  0.00    +0.000 C 
ENDROOT
BRANCH   2   3
ATOM      3  C   UNL     1       5.824   6.134  16.223  0.00  0.00    +0.000 C 
ATOM      4  O   UNL     1       6.748   6.856  16.609  0.00  0.00    +0.000 OA
ATOM      5  N   UNL     1       6.045   5.132  15.272  0.00  0.00    +0.000 N 
ATOM      6  C   UNL     1       7.429   4.878  14.849  0.00  0.00    +0.000 C 
ATOM      7  C   UNL     1       7.564   4.805  13.327  0.00  0.00    +0.000 C 
ATOM      8  C   UNL     1       6.593   3.794  12.729  0.00  0.00    +0.000 C 
ATOM      9  C   UNL     1       5.173   4.102  13.178  0.00  0.00    +0.000 C 
ATOM     10  C   UNL     1       5.063   4.211  14.696  0.00  0.00    +0.000 C 
ENDBRANCH   2   3
BRANCH   1  14
ATOM     11  C   UNL     1       0.946   9.131  19.576  0.00  0.00    +0.000 A 
ATOM     12  C   UNL     1       1.231   9.755  18.348  0.00  0.00    +0.000 A 
ATOM     13  C   UNL     1       2.230   9.258  17.498  0.00  0.00    +0.000 A 
ATOM     14  C   UNL     1       2.956   8.128  17.852  0.00  0.00    +0.000 A 
ATOM     15  C   UNL     1       2.681   7.518  19.081  0.00  0.00    +0.000 A 
ATOM     16  C   UNL     1       1.710   8.021  19.965  0.00  0.00    +0.000 A 
BRANCH  11  18
ATOM     17  C   UNL     1      -0.895  10.595  19.869  0.00  0.00    +0.000 C 
ATOM     18  O   UNL     1      -0.040   9.591  20.411  0.00  0.00    +0.000 OA
ENDBRANCH  11  18
BRANCH  16  19
ATOM     19  O   UNL     1       1.646   7.288  21.119  0.00  0.00    +0.000 OA
ATOM     20  C   UNL     1       1.358   5.899  21.070  0.00  0.00    +0.000 C 
ENDBRANCH  16  19
ENDBRANCH   1  14
BRANCH   2  21
ATOM     21  N   UNL     1       3.757   5.273  17.363  0.00  0.00    +0.000 N 
ATOM     22  C   UNL     1       4.299   4.430  18.329  0.00  0.00    +0.000 C 
ATOM     23  O   UNL     1       5.437   4.478  18.779  0.00  0.00    +0.000 OA
ATOM     24  H   UNL     1       2.754   5.406  17.427  0.00  0.00    +0.000 HD
BRANCH  22  25
ATOM     25  C   UNL     1       3.280   3.581  18.999  0.00  0.00    +0.000 A 
ATOM     26  C   UNL     1       2.023   3.387  18.413  0.00  0.00    +0.000 A 
ATOM     27  C   UNL     1       1.013   2.758  19.139  0.00  0.00    +0.000 A 
ATOM     28  C   UNL     1       1.261   2.312  20.439  0.00  0.00    +0.000 A 
ATOM     29  C   UNL     1       2.527   2.459  21.008  0.00  0.00    +0.000 A 
ATOM     30  C   UNL     1       3.542   3.091  20.287  0.00  0.00    +0.000 A 
ENDBRANCH  22  25
ENDBRANCH   2  21
TORSDOF 6
ENDMDL
MODEL 7
REMARK VINA RESULT:      -7.3      0.888      1.240
REMARK  Name = 
REMARK  8 active torsions:
REMARK  status: ('A' for Active; 'I' for Inactive)
REMARK    1  A    between atoms: C_1  and  O_2
REMARK    2  A    between atoms: O_2  and  C_3
REMARK    3  A    between atoms: C_6  and  C_7
REMARK    4  A    between atoms: C_8  and  N_9
REMARK    5  A    between atoms: C_8  and  C_18
REMARK    6  A    between atoms: C_10  and  C_12
REMARK    7  A    between atoms: C_27  and  O_28
REMARK    8  A    between atoms: O_28  and  C_29
REMARK                            x       y       z     vdW  Elec       q    Type
REMARK                         _______ _______ _______ _____ _____    ______ ____
ROOT
ATOM      1  C   UNL     1       3.476   7.940  17.536  0.00  0.00    +0.000 C 
ATOM      2  C   UNL     1       4.101   6.799  17.892  0.00  0.00    +0.000 C 
ENDROOT
BRANCH   2   3
ATOM      3  C   UNL     1       5.480   6.567  17.277  0.00  0.00    +0.000 C 
ATOM      4  O   UNL     1       6.382   7.362  17.555  0.00  0.00    +0.000 OA
ATOM      5  N   UNL     1       5.722   5.469  16.443  0.00  0.00    +0.000 N 
ATOM      6  C   UNL     1       7.107   5.219  16.019  0.00  0.00    +0.000 C 
ATOM      7  C   UNL     1       7.215   4.975  14.513  0.00  0.00    +0.000 C 
ATOM      8  C   UNL     1       6.274   3.866  14.059  0.00  0.00    +0.000 C 
ATOM      9  C   UNL     1       4.852   4.171  14.504  0.00  0.00    +0.000 C 
ATOM     10  C   UNL     1       4.766   4.452  16.001  0.00  0.00    +0.000 C 
ENDBRANCH   2   3
BRANCH   1  14
ATOM     11  C   UNL     1       0.199   9.856  19.562  0.00  0.00    +0.000 A 
ATOM     12  C   UNL     1       0.509  10.182  18.229  0.00  0.00    +0.000 A 
ATOM     13  C   UNL     1       1.562   9.546  17.555  0.00  0.00    +0.000 A 
ATOM     14  C   UNL     1       2.316   8.569  18.192  0.00  0.00    +0.000 A 
ATOM     15  C   UNL     1       2.015   8.257  19.522  0.00  0.00    +0.000 A 
ATOM     16  C   UNL     1       0.989   8.909  20.229  0.00  0.00    +0.000 A 
BRANCH  11  18
ATOM     17  C   UNL     1      -1.008  11.849  19.996  0.00  0.00    +0.000 C 
ATOM     18  O   UNL     1      -0.839  10.453  20.231  0.00  0.00    +0.000 OA
ENDBRANCH  11  18
BRANCH  16  19
ATOM     19  O   UNL     1       0.905   8.469  21.523  0.00  0.00    +0.000 OA
ATOM     20  C   UNL     1       1.229   9.340  22.597  0.00  0.00    +0.000 C 
ENDBRANCH  16  19
ENDBRANCH   1  14
BRANCH   2  21
ATOM     21  N   UNL     1       3.667   5.984  18.916  0.00  0.00    +0.000 N 
ATOM     22  C   UNL     1       2.607   5.092  18.779  0.00  0.00    +0.000 C 
ATOM     23  O   UNL     1       1.893   4.958  17.793  0.00  0.00    +0.000 OA
ATOM     24  H   UNL     1       4.399   5.683  19.549  0.00  0.00    +0.000 HD
BRANCH  22  25
ATOM     25  C   UNL     1       2.550   4.084  19.870  0.00  0.00    +0.000 A 
ATOM     26  C   UNL     1       3.620   3.207  20.082  0.00  0.00    +0.000 A 
ATOM     27  C   UNL     1       3.476   2.143  20.970  0.00  0.00    +0.000 A 
ATOM     28  C   UNL     1       2.273   1.964  21.655  0.00  0.00    +0.000 A 
ATOM     29  C   UNL     1       1.220   2.864  21.484  0.00  0.00    +0.000 A 
ATOM     30  C   UNL     1       1.358   3.930  20.593  0.00  0.00    +0.000 A 
ENDBRANCH  22  25
ENDBRANCH   2  21
TORSDOF 6
ENDMDL
MODEL 8
REMARK VINA RESULT:      -7.3      3.839      7.437
REMARK  Name = 
REMARK  8 active torsions:
REMARK  status: ('A' for Active; 'I' for Inactive)
REMARK    1  A    between atoms: C_1  and  O_2
REMARK    2  A    between atoms: O_2  and  C_3
REMARK    3  A    between atoms: C_6  and  C_7
REMARK    4  A    between atoms: C_8  and  N_9
REMARK    5  A    between atoms: C_8  and  C_18
REMARK    6  A    between atoms: C_10  and  C_12
REMARK    7  A    between atoms: C_27  and  O_28
REMARK    8  A    between atoms: O_28  and  C_29
REMARK                            x       y       z     vdW  Elec       q    Type
REMARK                         _______ _______ _______ _____ _____    ______ ____
ROOT
ATOM      1  C   UNL     1      -0.347   9.236  17.896  0.00  0.00    +0.000 C 
ATOM      2  C   UNL     1       0.913   9.660  18.124  0.00  0.00    +0.000 C 
ENDROOT
BRANCH   2   3
ATOM      3  C   UNL     1       2.014   8.613  17.968  0.00  0.00    +0.000 C 
ATOM      4  O   UNL     1       2.647   8.588  16.908  0.00  0.00    +0.000 OA
ATOM      5  N   UNL     1       2.317   7.725  19.006  0.00  0.00    +0.000 N 
ATOM      6  C   UNL     1       3.491   6.855  18.848  0.00  0.00    +0.000 C 
ATOM      7  C   UNL     1       3.179   5.396  19.183  0.00  0.00    +0.000 C 
ATOM      8  C   UNL     1       2.557   5.262  20.568  0.00  0.00    +0.000 C 
ATOM      9  C   UNL     1       1.338   6.165  20.684  0.00  0.00    +0.000 C 
ATOM     10  C   UNL     1       1.656   7.609  20.307  0.00  0.00    +0.000 C 
ENDBRANCH   2   3
BRANCH   1  14
ATOM     11  C   UNL     1      -3.937  11.507  17.213  0.00  0.00    +0.000 A 
ATOM     12  C   UNL     1      -3.257  11.589  18.442  0.00  0.00    +0.000 A 
ATOM     13  C   UNL     1      -2.074  10.869  18.664  0.00  0.00    +0.000 A 
ATOM     14  C   UNL     1      -1.543  10.064  17.665  0.00  0.00    +0.000 A 
ATOM     15  C   UNL     1      -2.230   9.972  16.449  0.00  0.00    +0.000 A 
ATOM     16  C   UNL     1      -3.437  10.655  16.218  0.00  0.00    +0.000 A 
BRANCH  11  18
ATOM     17  C   UNL     1      -5.964  12.375  18.081  0.00  0.00    +0.000 C 
ATOM     18  O   UNL     1      -5.084  12.219  16.971  0.00  0.00    +0.000 OA
ENDBRANCH  11  18
BRANCH  16  19
ATOM     19  O   UNL     1      -3.946  10.382  14.977  0.00  0.00    +0.000 OA
ATOM     20  C   UNL     1      -3.085   9.979  13.922  0.00  0.00    +0.000 C 
ENDBRANCH  16  19
ENDBRANCH   1  14
BRANCH   2  21
ATOM     21  N   UNL     1       1.253  10.990  18.260  0.00  0.00    +0.000 N 
ATOM     22  C   UNL     1       1.336  11.629  19.494  0.00  0.00    +0.000 C 
ATOM     23  O   UNL     1       1.064  11.143  20.584  0.00  0.00    +0.000 OA
ATOM     24  H   UNL     1       1.901  11.329  17.558  0.00  0.00    +0.000 HD
BRANCH  22  25
ATOM     25  C   UNL     1       2.053  12.930  19.428  0.00  0.00    +0.000 A 
ATOM     26  C   UNL     1       2.556  13.401  18.210  0.00  0.00    +0.000 A 
ATOM     27  C   UNL     1       3.394  14.515  18.193  0.00  0.00    +0.000 A 
ATOM     28  C   UNL     1       3.716  15.164  19.387  0.00  0.00    +0.000 A 
ATOM     29  C   UNL     1       3.177  14.727  20.598  0.00  0.00    +0.000 A 
ATOM     30  C   UNL     1       2.340  13.609  20.621  0.00  0.00    +0.000 A 
ENDBRANCH  22  25
ENDBRANCH   2  21
TORSDOF 6
ENDMDL
MODEL 9
REMARK VINA RESULT:      -7.2      1.866      2.248
REMARK  Name = 
REMARK  8 active torsions:
REMARK  status: ('A' for Active; 'I' for Inactive)
REMARK    1  A    between atoms: C_1  and  O_2
REMARK    2  A    between atoms: O_2  and  C_3
REMARK    3  A    between atoms: C_6  and  C_7
REMARK    4  A    between atoms: C_8  and  N_9
REMARK    5  A    between atoms: C_8  and  C_18
REMARK    6  A    between atoms: C_10  and  C_12
REMARK    7  A    between atoms: C_27  and  O_28
REMARK    8  A    between atoms: O_28  and  C_29
REMARK                            x       y       z     vdW  Elec       q    Type
REMARK                         _______ _______ _______ _____ _____    ______ ____
ROOT
ATOM      1  C   UNL     1       2.456   8.556  17.602  0.00  0.00    +0.000 C 
ATOM      2  C   UNL     1       3.014   7.335  17.738  0.00  0.00    +0.000 C 
ENDROOT
BRANCH   2   3
ATOM      3  C   UNL     1       4.305   7.094  16.957  0.00  0.00    +0.000 C 
ATOM      4  O   UNL     1       4.351   7.466  15.781  0.00  0.00    +0.000 OA
ATOM      5  N   UNL     1       5.413   6.493  17.565  0.00  0.00    +0.000 N 
ATOM      6  C   UNL     1       6.670   6.439  16.804  0.00  0.00    +0.000 C 
ATOM      7  C   UNL     1       7.300   5.045  16.827  0.00  0.00    +0.000 C 
ATOM      8  C   UNL     1       7.477   4.536  18.252  0.00  0.00    +0.000 C 
ATOM      9  C   UNL     1       6.153   4.594  18.997  0.00  0.00    +0.000 C 
ATOM     10  C   UNL     1       5.517   5.979  18.932  0.00  0.00    +0.000 C 
ENDBRANCH   2   3
BRANCH   1  14
ATOM     11  C   UNL     1      -0.460  10.475  20.115  0.00  0.00    +0.000 A 
ATOM     12  C   UNL     1      -0.683  10.336  18.734  0.00  0.00    +0.000 A 
ATOM     13  C   UNL     1       0.253   9.691  17.912  0.00  0.00    +0.000 A 
ATOM     14  C   UNL     1       1.420   9.167  18.452  0.00  0.00    +0.000 A 
ATOM     15  C   UNL     1       1.647   9.321  19.824  0.00  0.00    +0.000 A 
ATOM     16  C   UNL     1       0.740   9.996  20.660  0.00  0.00    +0.000 A 
BRANCH  11  18
ATOM     17  C   UNL     1      -1.219  12.493  21.100  0.00  0.00    +0.000 C 
ATOM     18  O   UNL     1      -1.373  11.085  20.939  0.00  0.00    +0.000 OA
ENDBRANCH  11  18
BRANCH  16  19
ATOM     19  O   UNL     1       1.190  10.059  21.952  0.00  0.00    +0.000 OA
ATOM     20  C   UNL     1       0.524   9.338  22.977  0.00  0.00    +0.000 C 
ENDBRANCH  16  19
ENDBRANCH   1  14
BRANCH   2  21
ATOM     21  N   UNL     1       2.612   6.419  18.687  0.00  0.00    +0.000 N 
ATOM     22  C   UNL     1       1.906   5.261  18.372  0.00  0.00    +0.000 C 
ATOM     23  O   UNL     1       1.498   4.937  17.264  0.00  0.00    +0.000 OA
ATOM     24  H   UNL     1       3.239   6.335  19.479  0.00  0.00    +0.000 HD
BRANCH  22  25
ATOM     25  C   UNL     1       1.895   4.267  19.477  0.00  0.00    +0.000 A 
ATOM     26  C   UNL     1       1.244   3.038  19.320  0.00  0.00    +0.000 A 
ATOM     27  C   UNL     1       1.069   2.203  20.422  0.00  0.00    +0.000 A 
ATOM     28  C   UNL     1       1.557   2.587  21.673  0.00  0.00    +0.000 A 
ATOM     29  C   UNL     1       2.250   3.788  21.824  0.00  0.00    +0.000 A 
ATOM     30  C   UNL     1       2.425   4.631  20.724  0.00  0.00    +0.000 A 
ENDBRANCH  22  25
ENDBRANCH   2  21
TORSDOF 6
ENDMDL
