MODEL 1
REMARK VINA RESULT:      -8.5      0.000      0.000
REMARK  Name = 
REMARK  7 active torsions:
REMARK  status: ('A' for Active; 'I' for Inactive)
REMARK    1  A    between atoms: C_1  and  C_2
REMARK    2  A    between atoms: C_2  and  C_3
REMARK    3  A    between atoms: C_3  and  N_4
REMARK    4  A    between atoms: C_10  and  C_11
REMARK    5  A    between atoms: C_14  and  S_15
REMARK    6  A    between atoms: S_15  and  N_18
REMARK    7  A    between atoms: N_21  and  C_22
REMARK                            x       y       z     vdW  Elec       q    Type
REMARK                         _______ _______ _______ _____ _____    ______ ____
ROOT
ATOM      1  N   UNL     1      -1.406  11.808  21.889  0.00  0.00    +0.000 N 
ATOM      2  C   UNL     1      -1.734  12.134  20.563  0.00  0.00    +0.000 A 
ATOM      3  O   UNL     1      -2.569  12.989  20.262  0.00  0.00    +0.000 OA
ATOM      4  N   UNL     1      -1.071  11.453  19.566  0.00  0.00    +0.000 N 
ATOM      5  C   UNL     1      -0.164  10.490  19.867  0.00  0.00    +0.000 A 
ATOM      6  N   UNL     1       0.520   9.721  18.988  0.00  0.00    +0.000 NA
ATOM      7  C   UNL     1       1.271   8.918  19.739  0.00  0.00    +0.000 A 
ATOM      8  N   UNL     1       1.055   9.186  21.080  0.00  0.00    +0.000 N 
ATOM      9  C   UNL     1       0.125  10.182  21.153  0.00  0.00    +0.000 A 
ATOM     10  C   UNL     1      -0.490  10.815  22.266  0.00  0.00    +0.000 A 
ATOM     11  O   UNL     1      -0.234  10.497  23.424  0.00  0.00    +0.000 OA
ATOM     12  H   UNL     1      -1.272  11.661  18.603  0.00  0.00    +0.000 HD
ATOM     13  H   UNL     1       1.475   8.711  21.866  0.00  0.00    +0.000 HD
ENDROOT
BRANCH   7  14
ATOM     14  C   UNL     1       2.171   7.878  19.231  0.00  0.00    +0.000 A 
ATOM     15  C   UNL     1       2.711   7.897  17.937  0.00  0.00    +0.000 A 
ATOM     16  C   UNL     1       3.562   6.868  17.501  0.00  0.00    +0.000 A 
ATOM     17  C   UNL     1       3.866   5.798  18.350  0.00  0.00    +0.000 A 
ATOM     18  C   UNL     1       3.280   5.738  19.613  0.00  0.00    +0.000 A 
ATOM     19  C   UNL     1       2.473   6.787  20.061  0.00  0.00    +0.000 A 
BRANCH  17  20
ATOM     20  S   UNL     1       4.855   4.434  17.757  0.00  0.00    +0.000 S 
ATOM     21  O   UNL     1       5.006   4.630  16.331  0.00  0.00    +0.000 OA
ATOM     22  O   UNL     1       6.014   4.363  18.625  0.00  0.00    +0.000 OA
BRANCH  20  23
ATOM     23  N   UNL     1       3.965   3.034  18.014  0.00  0.00    +0.000 NA
ATOM     24  C   UNL     1       2.589   2.872  17.501  0.00  0.00    +0.000 C 
ATOM     25  C   UNL     1       1.536   3.067  18.603  0.00  0.00    +0.000 C 
ATOM     26  N   UNL     1       1.803   2.378  19.881  0.00  0.00    +0.000 NA
ATOM     27  C   UNL     1       0.967   2.958  20.939  0.00  0.00    +0.000 C 
ATOM     28  C   UNL     1       3.222   2.409  20.292  0.00  0.00    +0.000 C 
ATOM     29  C   UNL     1       4.236   2.152  19.162  0.00  0.00    +0.000 C 
ENDBRANCH  20  23
ENDBRANCH  17  20
ENDBRANCH   7  14
BRANCH   1  30
ATOM     30  C   UNL     1      -2.120  12.504  22.954  0.00  0.00    +0.000 C 
BRANCH  30  32
ATOM     31  C   UNL     1      -2.222  14.578  24.376  0.00  0.00    +0.000 C 
ATOM     32  C   UNL     1      -1.384  13.770  23.398  0.00  0.00    +0.000 C 
ENDBRANCH  30  32
ENDBRANCH   1  30
TORSDOF 5
ENDMDL
MODEL 2
REMARK VINA RESULT:      -8.4      0.562      1.110
REMARK  Name = 
REMARK  7 active torsions:
REMARK  status: ('A' for Active; 'I' for Inactive)
REMARK    1  A    between atoms: C_1  and  C_2
REMARK    2  A    between atoms: C_2  and  C_3
REMARK    3  A    between atoms: C_3  and  N_4
REMARK    4  A    between atoms: C_10  and  C_11
REMARK    5  A    between atoms: C_14  and  S_15
REMARK    6  A    between atoms: S_15  and  N_18
REMARK    7  A    between atoms: N_21  and  C_22
REMARK                            x       y       z     vdW  Elec       q    Type
REMARK                         _______ _______ _______ _____ _____    ______ ____
ROOT
ATOM      1  N   UNL     1      -1.215  12.177  21.915  0.00  0.00    +0.000 N 
ATOM      2  C   UNL     1      -1.414  12.583  20.586  0.00  0.00    +0.000 A 
ATOM      3  O   UNL     1      -2.120  13.543  20.268  0.00  0.00    +0.000 OA
ATOM      4  N   UNL     1      -0.774  11.858  19.605  0.00  0.00    +0.000 N 
ATOM      5  C   UNL     1      -0.011  10.783  19.923  0.00  0.00    +0.000 A 
ATOM      6  N   UNL     1       0.633   9.964  19.058  0.00  0.00    +0.000 NA
ATOM      7  C   UNL     1       1.232   9.053  19.821  0.00  0.00    +0.000 A 
ATOM      8  N   UNL     1       0.962   9.302  21.155  0.00  0.00    +0.000 N 
ATOM      9  C   UNL     1       0.154  10.401  21.210  0.00  0.00    +0.000 A 
ATOM     10  C   UNL     1      -0.451  11.069  22.308  0.00  0.00    +0.000 A 
ATOM     11  O   UNL     1      -0.311  10.686  23.466  0.00  0.00    +0.000 OA
ATOM     12  H   UNL     1      -0.885  12.119  18.640  0.00  0.00    +0.000 HD
ATOM     13  H   UNL     1       1.270   8.754  21.946  0.00  0.00    +0.000 HD
ENDROOT
BRANCH   7  14
ATOM     14  C   UNL     1       2.032   7.926  19.328  0.00  0.00    +0.000 A 
ATOM     15  C   UNL     1       2.326   6.798  20.107  0.00  0.00    +0.000 A 
ATOM     16  C   UNL     1       3.104   5.751  19.586  0.00  0.00    +0.000 A 
ATOM     17  C   UNL     1       3.613   5.833  18.285  0.00  0.00    +0.000 A 
ATOM     18  C   UNL     1       3.381   6.980  17.529  0.00  0.00    +0.000 A 
ATOM     19  C   UNL     1       2.565   7.997  18.033  0.00  0.00    +0.000 A 
BRANCH  17  20
ATOM     20  S   UNL     1       4.696   4.556  17.662  0.00  0.00    +0.000 S 
ATOM     21  O   UNL     1       4.703   4.694  16.222  0.00  0.00    +0.000 OA
ATOM     22  O   UNL     1       5.924   4.655  18.425  0.00  0.00    +0.000 OA
BRANCH  20  23
ATOM     23  N   UNL     1       3.994   3.082  18.054  0.00  0.00    +0.000 NA
ATOM     24  C   UNL     1       2.644   2.706  17.589  0.00  0.00    +0.000 C 
ATOM     25  C   UNL     1       1.588   2.860  18.694  0.00  0.00    +0.000 C 
ATOM     26  N   UNL     1       1.955   2.321  20.019  0.00  0.00    +0.000 NA
ATOM     27  C   UNL     1       1.066   2.881  21.044  0.00  0.00    +0.000 C 
ATOM     28  C   UNL     1       3.364   2.566  20.393  0.00  0.00    +0.000 C 
ATOM     29  C   UNL     1       4.389   2.342  19.266  0.00  0.00    +0.000 C 
ENDBRANCH  20  23
ENDBRANCH  17  20
ENDBRANCH   7  14
BRANCH   1  30
ATOM     30  C   UNL     1      -1.909  12.921  22.962  0.00  0.00    +0.000 C 
BRANCH  30  32
ATOM     31  C   UNL     1      -4.001  13.117  24.346  0.00  0.00    +0.000 C 
ATOM     32  C   UNL     1      -3.265  12.297  23.298  0.00  0.00    +0.000 C 
ENDBRANCH  30  32
ENDBRANCH   1  30
TORSDOF 5
ENDMDL
MODEL 3
REMARK VINA RESULT:      -8.2      1.394      1.617
REMARK  Name = 
REMARK  7 active torsions:
REMARK  status: ('A' for Active; 'I' for Inactive)
REMARK    1  A    between atoms: C_1  and  C_2
REMARK    2  A    between atoms: C_2  and  C_3
REMARK    3  A    between atoms: C_3  and  N_4
REMARK    4  A    between atoms: C_10  and  C_11
REMARK    5  A    between atoms: C_14  and  S_15
REMARK    6  A    between atoms: S_15  and  N_18
REMARK    7  A    between atoms: N_21  and  C_22
REMARK                            x       y       z     vdW  Elec       q    Type
REMARK                         _______ _______ _______ _____ _____    ______ ____
ROOT
ATOM      1  N   UNL     1      -2.595  12.820  21.764  0.00  0.00    +0.000 N 
ATOM      2  C   UNL     1      -3.086  12.907  20.452  0.00  0.00    +0.000 A 
ATOM      3  O   UNL     1      -4.052  13.603  20.134  0.00  0.00    +0.000 OA
ATOM      4  N   UNL     1      -2.434  12.170  19.487  0.00  0.00    +0.000 N 
ATOM      5  C   UNL     1      -1.383  11.376  19.812  0.00  0.00    +0.000 A 
ATOM      6  N   UNL     1      -0.687  10.573  18.973  0.00  0.00    +0.000 NA
ATOM      7  C   UNL     1       0.231   9.985  19.736  0.00  0.00    +0.000 A 
ATOM      8  N   UNL     1       0.107  10.419  21.045  0.00  0.00    +0.000 N 
ATOM      9  C   UNL     1      -0.937  11.297  21.087  0.00  0.00    +0.000 A 
ATOM     10  C   UNL     1      -1.523  12.009  22.167  0.00  0.00    +0.000 A 
ATOM     11  O   UNL     1      -1.120  11.898  23.321  0.00  0.00    +0.000 OA
ATOM     12  H   UNL     1      -2.750  12.209  18.533  0.00  0.00    +0.000 HD
ATOM     13  H   UNL     1       0.658  10.117  21.836  0.00  0.00    +0.000 HD
ENDROOT
BRANCH   7  14
ATOM     14  C   UNL     1       1.210   8.995  19.275  0.00  0.00    +0.000 A 
ATOM     15  C   UNL     1       1.695   8.953  17.960  0.00  0.00    +0.000 A 
ATOM     16  C   UNL     1       2.627   7.977  17.572  0.00  0.00    +0.000 A 
ATOM     17  C   UNL     1       3.069   7.019  18.492  0.00  0.00    +0.000 A 
ATOM     18  C   UNL     1       2.541   7.013  19.781  0.00  0.00    +0.000 A 
ATOM     19  C   UNL     1       1.651   8.015  20.178  0.00  0.00    +0.000 A 
BRANCH  17  20
ATOM     20  S   UNL     1       4.166   5.710  17.969  0.00  0.00    +0.000 S 
ATOM     21  O   UNL     1       4.629   6.071  16.647  0.00  0.00    +0.000 OA
ATOM     22  O   UNL     1       5.103   5.505  19.056  0.00  0.00    +0.000 OA
BRANCH  20  23
ATOM     23  N   UNL     1       3.241   4.314  17.850  0.00  0.00    +0.000 NA
ATOM     24  C   UNL     1       1.766   4.340  17.908  0.00  0.00    +0.000 C 
ATOM     25  C   UNL     1       1.235   3.895  19.279  0.00  0.00    +0.000 C 
ATOM     26  N   UNL     1       1.853   2.681  19.850  0.00  0.00    +0.000 NA
ATOM     27  C   UNL     1       1.560   2.607  21.286  0.00  0.00    +0.000 C 
ATOM     28  C   UNL     1       3.312   2.596  19.631  0.00  0.00    +0.000 C 
ATOM     29  C   UNL     1       3.788   2.997  18.224  0.00  0.00    +0.000 C 
ENDBRANCH  20  23
ENDBRANCH  17  20
ENDBRANCH   7  14
BRANCH   1  30
ATOM     30  C   UNL     1      -3.293  13.575  22.800  0.00  0.00    +0.000 C 
BRANCH  30  32
ATOM     31  C   UNL     1      -4.396  12.466  24.772  0.00  0.00    +0.000 C 
ATOM     32  C   UNL     1      -4.534  12.836  23.304  0.00  0.00    +0.000 C 
ENDBRANCH  30  32
ENDBRANCH   1  30
TORSDOF 5
ENDMDL
MODEL 4
REMARK VINA RESULT:      -8.0      3.196      9.832
REMARK  Name = 
REMARK  7 active torsions:
REMARK  status: ('A' for Active; 'I' for Inactive)
REMARK    1  A    between atoms: C_1  and  C_2
REMARK    2  A    between atoms: C_2  and  C_3
REMARK    3  A    between atoms: C_3  and  N_4
REMARK    4  A    between atoms: C_10  and  C_11
REMARK    5  A    between atoms: C_14  and  S_15
REMARK    6  A    between atoms: S_15  and  N_18
REMARK    7  A    between atoms: N_21  and  C_22
REMARK                            x       y       z     vdW  Elec       q    Type
REMARK                         _______ _______ _______ _____ _____    ______ ____
ROOT
ATOM      1  N   UNL     1       5.432   5.276  17.441  0.00  0.00    +0.000 N 
ATOM      2  C   UNL     1       5.103   4.662  18.660  0.00  0.00    +0.000 A 
ATOM      3  O   UNL     1       5.640   3.630  19.066  0.00  0.00    +0.000 OA
ATOM      4  N   UNL     1       4.129   5.266  19.425  0.00  0.00    +0.000 N 
ATOM      5  C   UNL     1       3.503   6.388  18.992  0.00  0.00    +0.000 A 
ATOM      6  N   UNL     1       2.505   7.052  19.622  0.00  0.00    +0.000 NA
ATOM      7  C   UNL     1       2.203   8.071  18.819  0.00  0.00    +0.000 A 
ATOM      8  N   UNL     1       3.010   8.041  17.694  0.00  0.00    +0.000 N 
ATOM      9  C   UNL     1       3.827   6.954  17.805  0.00  0.00    +0.000 A 
ATOM     10  C   UNL     1       4.815   6.427  16.932  0.00  0.00    +0.000 A 
ATOM     11  O   UNL     1       5.071   6.941  15.846  0.00  0.00    +0.000 OA
ATOM     12  H   UNL     1       3.867   4.862  20.307  0.00  0.00    +0.000 HD
ATOM     13  H   UNL     1       2.979   8.680  16.913  0.00  0.00    +0.000 HD
ENDROOT
BRANCH   7  14
ATOM     14  C   UNL     1       1.151   9.062  19.065  0.00  0.00    +0.000 A 
ATOM     15  C   UNL     1       0.379   9.629  18.040  0.00  0.00    +0.000 A 
ATOM     16  C   UNL     1      -0.611  10.581  18.333  0.00  0.00    +0.000 A 
ATOM     17  C   UNL     1      -0.827  10.989  19.655  0.00  0.00    +0.000 A 
ATOM     18  C   UNL     1      -0.020  10.479  20.670  0.00  0.00    +0.000 A 
ATOM     19  C   UNL     1       0.932   9.497  20.381  0.00  0.00    +0.000 A 
BRANCH  17  20
ATOM     20  S   UNL     1      -2.006  12.281  20.015  0.00  0.00    +0.000 S 
ATOM     21  O   UNL     1      -2.975  12.259  18.940  0.00  0.00    +0.000 OA
ATOM     22  O   UNL     1      -2.418  12.086  21.391  0.00  0.00    +0.000 OA
BRANCH  20  23
ATOM     23  N   UNL     1      -1.174  13.737  19.955  0.00  0.00    +0.000 NA
ATOM     24  C   UNL     1      -0.309  14.102  18.815  0.00  0.00    +0.000 C 
ATOM     25  C   UNL     1       1.182  13.914  19.138  0.00  0.00    +0.000 C 
ATOM     26  N   UNL     1       1.631  14.435  20.444  0.00  0.00    +0.000 NA
ATOM     27  C   UNL     1       2.930  13.845  20.790  0.00  0.00    +0.000 C 
ATOM     28  C   UNL     1       0.668  14.205  21.542  0.00  0.00    +0.000 C 
ATOM     29  C   UNL     1      -0.806  14.462  21.184  0.00  0.00    +0.000 C 
ENDBRANCH  20  23
ENDBRANCH  17  20
ENDBRANCH   7  14
BRANCH   1  30
ATOM     30  C   UNL     1       6.445   4.631  16.610  0.00  0.00    +0.000 C 
BRANCH  30  32
ATOM     31  C   UNL     1       6.308   4.047  14.166  0.00  0.00    +0.000 C 
ATOM     32  C   UNL     1       5.817   3.708  15.564  0.00  0.00    +0.000 C 
ENDBRANCH  30  32
ENDBRANCH   1  30
TORSDOF 5
ENDMDL
MODEL 5
REMARK VINA RESULT:      -8.0      1.992      3.323
REMARK  Name = 
REMARK  7 active torsions:
REMARK  status: ('A' for Active; 'I' for Inactive)
REMARK    1  A    between atoms: C_1  and  C_2
REMARK    2  A    between atoms: C_2  and  C_3
REMARK    3  A    between atoms: C_3  and  N_4
REMARK    4  A    between atoms: C_10  and  C_11
REMARK    5  A    between atoms: C_14  and  S_15
REMARK    6  A    between atoms: S_15  and  N_18
REMARK    7  A    between atoms: N_21  and  C_22
REMARK                            x       y       z     vdW  Elec       q    Type
REMARK                         _______ _______ _______ _____ _____    ______ ____
ROOT
ATOM      1  N   UNL     1      -0.669  11.906  21.972  0.00  0.00    +0.000 N 
ATOM      2  C   UNL     1      -0.710  12.436  20.672  0.00  0.00    +0.000 A 
ATOM      3  O   UNL     1      -1.256  13.505  20.393  0.00  0.00    +0.000 OA
ATOM      4  N   UNL     1      -0.099  11.706  19.676  0.00  0.00    +0.000 N 
ATOM      5  C   UNL     1       0.488  10.514  19.949  0.00  0.00    +0.000 A 
ATOM      6  N   UNL     1       1.081   9.683  19.061  0.00  0.00    +0.000 NA
ATOM      7  C   UNL     1       1.493   8.641  19.780  0.00  0.00    +0.000 A 
ATOM      8  N   UNL     1       1.158   8.823  21.111  0.00  0.00    +0.000 N 
ATOM      9  C   UNL     1       0.502  10.016  21.208  0.00  0.00    +0.000 A 
ATOM     10  C   UNL     1      -0.091  10.676  22.317  0.00  0.00    +0.000 A 
ATOM     11  O   UNL     1      -0.092  10.190  23.445  0.00  0.00    +0.000 OA
ATOM     12  H   UNL     1      -0.101  12.053  18.732  0.00  0.00    +0.000 HD
ATOM     13  H   UNL     1       1.329   8.179  21.870  0.00  0.00    +0.000 HD
ENDROOT
BRANCH   7  14
ATOM     14  C   UNL     1       2.171   7.456  19.246  0.00  0.00    +0.000 A 
ATOM     15  C   UNL     1       2.179   6.217  19.903  0.00  0.00    +0.000 A 
ATOM     16  C   UNL     1       2.852   5.116  19.348  0.00  0.00    +0.000 A 
ATOM     17  C   UNL     1       3.542   5.250  18.138  0.00  0.00    +0.000 A 
ATOM     18  C   UNL     1       3.595   6.494  17.513  0.00  0.00    +0.000 A 
ATOM     19  C   UNL     1       2.884   7.574  18.043  0.00  0.00    +0.000 A 
BRANCH  17  20
ATOM     20  S   UNL     1       4.492   3.884  17.489  0.00  0.00    +0.000 S 
ATOM     21  O   UNL     1       4.114   2.721  18.263  0.00  0.00    +0.000 OA
ATOM     22  O   UNL     1       4.315   3.909  16.051  0.00  0.00    +0.000 OA
BRANCH  20  23
ATOM     23  N   UNL     1       6.108   4.223  17.790  0.00  0.00    +0.000 NA
ATOM     24  C   UNL     1       6.567   4.793  19.072  0.00  0.00    +0.000 C 
ATOM     25  C   UNL     1       6.858   6.298  18.964  0.00  0.00    +0.000 C 
ATOM     26  N   UNL     1       7.640   6.722  17.786  0.00  0.00    +0.000 NA
ATOM     27  C   UNL     1       7.498   8.170  17.593  0.00  0.00    +0.000 C 
ATOM     28  C   UNL     1       7.277   6.013  16.541  0.00  0.00    +0.000 C 
ATOM     29  C   UNL     1       7.052   4.498  16.692  0.00  0.00    +0.000 C 
ENDBRANCH  20  23
ENDBRANCH  17  20
ENDBRANCH   7  14
BRANCH   1  30
ATOM     30  C   UNL     1      -1.335  12.657  23.031  0.00  0.00    +0.000 C 
BRANCH  30  32
ATOM     31  C   UNL     1      -3.811  12.877  22.638  0.00  0.00    +0.000 C 
ATOM     32  C   UNL     1      -2.721  12.089  23.345  0.00  0.00    +0.000 C 
ENDBRANCH  30  32
ENDBRANCH   1  30
TORSDOF 5
ENDMDL
MODEL 6
REMARK VINA RESULT:      -8.0      1.234      1.658
REMARK  Name = 
REMARK  7 active torsions:
REMARK  status: ('A' for Active; 'I' for Inactive)
REMARK    1  A    between atoms: C_1  and  C_2
REMARK    2  A    between atoms: C_2  and  C_3
REMARK    3  A    between atoms: C_3  and  N_4
REMARK    4  A    between atoms: C_10  and  C_11
REMARK    5  A    between atoms: C_14  and  S_15
REMARK    6  A    between atoms: S_15  and  N_18
REMARK    7  A    between atoms: N_21  and  C_22
REMARK                            x       y       z     vdW  Elec       q    Type
REMARK                         _______ _______ _______ _____ _____    ______ ____
ROOT
ATOM      1  N   UNL     1      -0.809  12.610  19.992  0.00  0.00    +0.000 N 
ATOM      2  C   UNL     1      -0.253  13.111  18.804  0.00  0.00    +0.000 A 
ATOM      3  O   UNL     1      -0.538  14.215  18.335  0.00  0.00    +0.000 OA
ATOM      4  N   UNL     1       0.657  12.311  18.149  0.00  0.00    +0.000 N 
ATOM      5  C   UNL     1       0.972  11.082  18.628  0.00  0.00    +0.000 A 
ATOM      6  N   UNL     1       1.812  10.184  18.062  0.00  0.00    +0.000 NA
ATOM      7  C   UNL     1       1.793   9.129  18.873  0.00  0.00    +0.000 A 
ATOM      8  N   UNL     1       0.945   9.368  19.940  0.00  0.00    +0.000 N 
ATOM      9  C   UNL     1       0.412  10.613  19.767  0.00  0.00    +0.000 A 
ATOM     10  C   UNL     1      -0.536  11.344  20.531  0.00  0.00    +0.000 A 
ATOM     11  O   UNL     1      -1.054  10.886  21.547  0.00  0.00    +0.000 OA
ATOM     12  H   UNL     1       1.083  12.635  17.298  0.00  0.00    +0.000 HD
ATOM     13  H   UNL     1       0.724   8.730  20.692  0.00  0.00    +0.000 HD
ENDROOT
BRANCH   7  14
ATOM     14  C   UNL     1       2.531   7.880  18.659  0.00  0.00    +0.000 A 
ATOM     15  C   UNL     1       2.620   6.867  19.625  0.00  0.00    +0.000 A 
ATOM     16  C   UNL     1       3.347   5.694  19.368  0.00  0.00    +0.000 A 
ATOM     17  C   UNL     1       4.012   5.531  18.147  0.00  0.00    +0.000 A 
ATOM     18  C   UNL     1       3.984   6.560  17.209  0.00  0.00    +0.000 A 
ATOM     19  C   UNL     1       3.219   7.705  17.449  0.00  0.00    +0.000 A 
BRANCH  17  20
ATOM     20  S   UNL     1       5.030   4.091  17.864  0.00  0.00    +0.000 S 
ATOM     21  O   UNL     1       5.306   4.060  16.444  0.00  0.00    +0.000 OA
ATOM     22  O   UNL     1       6.108   4.157  18.831  0.00  0.00    +0.000 OA
BRANCH  20  23
ATOM     23  N   UNL     1       4.102   2.748  18.258  0.00  0.00    +0.000 NA
ATOM     24  C   UNL     1       2.755   2.531  17.694  0.00  0.00    +0.000 C 
ATOM     25  C   UNL     1       1.645   2.885  18.695  0.00  0.00    +0.000 C 
ATOM     26  N   UNL     1       1.827   2.377  20.069  0.00  0.00    +0.000 NA
ATOM     27  C   UNL     1       0.944   3.105  20.987  0.00  0.00    +0.000 C 
ATOM     28  C   UNL     1       3.222   2.450  20.553  0.00  0.00    +0.000 C 
ATOM     29  C   UNL     1       4.293   2.030  19.530  0.00  0.00    +0.000 C 
ENDBRANCH  20  23
ENDBRANCH  17  20
ENDBRANCH   7  14
BRANCH   1  30
ATOM     30  C   UNL     1      -1.794  13.437  20.681  0.00  0.00    +0.000 C 
BRANCH  30  32
ATOM     31  C   UNL     1      -1.360  14.010  23.093  0.00  0.00    +0.000 C 
ATOM     32  C   UNL     1      -1.132  14.422  21.648  0.00  0.00    +0.000 C 
ENDBRANCH  30  32
ENDBRANCH   1  30
TORSDOF 5
ENDMDL
MODEL 7
REMARK VINA RESULT:      -7.9      1.430      1.924
REMARK  Name = 
REMARK  7 active torsions:
REMARK  status: ('A' for Active; 'I' for Inactive)
REMARK    1  A    between atoms: C_1  and  C_2
REMARK    2  A    between atoms: C_2  and  C_3
REMARK    3  A    between atoms: C_3  and  N_4
REMARK    4  A    between atoms: C_10  and  C_11
REMARK    5  A    between atoms: C_14  and  S_15
REMARK    6  A    between atoms: S_15  and  N_18
REMARK    7  A    between atoms: N_21  and  C_22
REMARK                            x       y       z     vdW  Elec       q    Type
REMARK                         _______ _______ _______ _____ _____    ______ ____
ROOT
ATOM      1  N   UNL     1      -1.989  13.637  21.734  0.00  0.00    +0.000 N 
ATOM      2  C   UNL     1      -2.863  13.309  20.686  0.00  0.00    +0.000 A 
ATOM      3  O   UNL     1      -3.927  13.896  20.481  0.00  0.00    +0.000 OA
ATOM      4  N   UNL     1      -2.489  12.274  19.856  0.00  0.00    +0.000 N 
ATOM      5  C   UNL     1      -1.336  11.593  20.072  0.00  0.00    +0.000 A 
ATOM      6  N   UNL     1      -0.876  10.536  19.362  0.00  0.00    +0.000 NA
ATOM      7  C   UNL     1       0.271  10.197  19.947  0.00  0.00    +0.000 A 
ATOM      8  N   UNL     1       0.524  11.039  21.016  0.00  0.00    +0.000 N 
ATOM      9  C   UNL     1      -0.516  11.919  21.099  0.00  0.00    +0.000 A 
ATOM     10  C   UNL     1      -0.792  12.965  22.019  0.00  0.00    +0.000 A 
ATOM     11  O   UNL     1      -0.047  13.223  22.961  0.00  0.00    +0.000 OA
ATOM     12  H   UNL     1      -3.084  12.010  19.090  0.00  0.00    +0.000 HD
ATOM     13  H   UNL     1       1.311  10.993  21.648  0.00  0.00    +0.000 HD
ENDROOT
BRANCH   7  14
ATOM     14  C   UNL     1       1.128   9.077  19.546  0.00  0.00    +0.000 A 
ATOM     15  C   UNL     1       1.545   8.075  20.436  0.00  0.00    +0.000 A 
ATOM     16  C   UNL     1       2.373   7.029  19.999  0.00  0.00    +0.000 A 
ATOM     17  C   UNL     1       2.810   6.985  18.670  0.00  0.00    +0.000 A 
ATOM     18  C   UNL     1       2.455   8.012  17.797  0.00  0.00    +0.000 A 
ATOM     19  C   UNL     1       1.591   9.024  18.223  0.00  0.00    +0.000 A 
BRANCH  17  20
ATOM     20  S   UNL     1       3.954   5.719  18.142  0.00  0.00    +0.000 S 
ATOM     21  O   UNL     1       4.369   6.078  16.802  0.00  0.00    +0.000 OA
ATOM     22  O   UNL     1       4.926   5.577  19.208  0.00  0.00    +0.000 OA
BRANCH  20  23
ATOM     23  N   UNL     1       3.094   4.280  18.068  0.00  0.00    +0.000 NA
ATOM     24  C   UNL     1       1.621   4.239  18.152  0.00  0.00    +0.000 C 
ATOM     25  C   UNL     1       1.134   3.799  19.542  0.00  0.00    +0.000 C 
ATOM     26  N   UNL     1       1.818   2.628  20.126  0.00  0.00    +0.000 NA
ATOM     27  C   UNL     1       1.554   2.571  21.569  0.00  0.00    +0.000 C 
ATOM     28  C   UNL     1       3.276   2.605  19.883  0.00  0.00    +0.000 C 
ATOM     29  C   UNL     1       3.708   2.998  18.459  0.00  0.00    +0.000 C 
ENDBRANCH  20  23
ENDBRANCH  17  20
ENDBRANCH   7  14
BRANCH   1  30
ATOM     30  C   UNL     1      -2.387  14.714  22.635  0.00  0.00    +0.000 C 
BRANCH  30  32
ATOM     31  C   UNL     1      -4.594  14.681  23.844  0.00  0.00    +0.000 C 
ATOM     32  C   UNL     1      -3.157  14.185  23.847  0.00  0.00    +0.000 C 
ENDBRANCH  30  32
ENDBRANCH   1  30
TORSDOF 5
ENDMDL
MODEL 8
REMARK VINA RESULT:      -7.9      1.122      1.857
REMARK  Name = 
REMARK  7 active torsions:
REMARK  status: ('A' for Active; 'I' for Inactive)
REMARK    1  A    between atoms: C_1  and  C_2
REMARK    2  A    between atoms: C_2  and  C_3
REMARK    3  A    between atoms: C_3  and  N_4
REMARK    4  A    between atoms: C_10  and  C_11
REMARK    5  A    between atoms: C_14  and  S_15
REMARK    6  A    between atoms: S_15  and  N_18
REMARK    7  A    between atoms: N_21  and  C_22
REMARK                            x       y       z     vdW  Elec       q    Type
REMARK                         _______ _______ _______ _____ _____    ______ ____
ROOT
ATOM      1  N   UNL     1      -1.157  12.193  21.235  0.00  0.00    +0.000 N 
ATOM      2  C   UNL     1      -0.912  11.641  22.503  0.00  0.00    +0.000 A 
ATOM      3  O   UNL     1      -1.340  12.131  23.550  0.00  0.00    +0.000 OA
ATOM      4  N   UNL     1      -0.156  10.490  22.552  0.00  0.00    +0.000 N 
ATOM      5  C   UNL     1       0.349   9.943  21.418  0.00  0.00    +0.000 A 
ATOM      6  N   UNL     1       1.137   8.846  21.331  0.00  0.00    +0.000 NA
ATOM      7  C   UNL     1       1.392   8.701  20.032  0.00  0.00    +0.000 A 
ATOM      8  N   UNL     1       0.764   9.704  19.313  0.00  0.00    +0.000 N 
ATOM      9  C   UNL     1       0.112  10.502  20.208  0.00  0.00    +0.000 A 
ATOM     10  C   UNL     1      -0.654  11.684  20.029  0.00  0.00    +0.000 A 
ATOM     11  O   UNL     1      -0.831  12.190  18.924  0.00  0.00    +0.000 OA
ATOM     12  H   UNL     1       0.038  10.059  23.439  0.00  0.00    +0.000 HD
ATOM     13  H   UNL     1       0.807   9.848  18.314  0.00  0.00    +0.000 HD
ENDROOT
BRANCH   7  14
ATOM     14  C   UNL     1       2.239   7.659  19.444  0.00  0.00    +0.000 A 
ATOM     15  C   UNL     1       2.676   7.689  18.112  0.00  0.00    +0.000 A 
ATOM     16  C   UNL     1       3.480   6.658  17.599  0.00  0.00    +0.000 A 
ATOM     17  C   UNL     1       3.840   5.575  18.411  0.00  0.00    +0.000 A 
ATOM     18  C   UNL     1       3.355   5.505  19.715  0.00  0.00    +0.000 A 
ATOM     19  C   UNL     1       2.595   6.557  20.236  0.00  0.00    +0.000 A 
BRANCH  17  20
ATOM     20  S   UNL     1       4.766   4.210  17.727  0.00  0.00    +0.000 S 
ATOM     21  O   UNL     1       4.684   4.341  16.289  0.00  0.00    +0.000 OA
ATOM     22  O   UNL     1       6.049   4.209  18.402  0.00  0.00    +0.000 OA
BRANCH  20  23
ATOM     23  N   UNL     1       3.973   2.802  18.182  0.00  0.00    +0.000 NA
ATOM     24  C   UNL     1       2.600   2.494  17.735  0.00  0.00    +0.000 C 
ATOM     25  C   UNL     1       1.562   2.761  18.836  0.00  0.00    +0.000 C 
ATOM     26  N   UNL     1       1.900   2.255  20.181  0.00  0.00    +0.000 NA
ATOM     27  C   UNL     1       1.053   2.912  21.183  0.00  0.00    +0.000 C 
ATOM     28  C   UNL     1       3.324   2.424  20.541  0.00  0.00    +0.000 C 
ATOM     29  C   UNL     1       4.326   2.089  19.422  0.00  0.00    +0.000 C 
ENDBRANCH  20  23
ENDBRANCH  17  20
ENDBRANCH   7  14
BRANCH   1  30
ATOM     30  C   UNL     1      -1.935  13.427  21.173  0.00  0.00    +0.000 C 
BRANCH  30  32
ATOM     31  C   UNL     1      -4.266  12.777  21.866  0.00  0.00    +0.000 C 
ATOM     32  C   UNL     1      -3.369  13.170  20.703  0.00  0.00    +0.000 C 
ENDBRANCH  30  32
ENDBRANCH   1  30
TORSDOF 5
ENDMDL
MODEL 9
REMARK VINA RESULT:      -7.9      1.930      3.133
REMARK  Name = 
REMARK  7 active torsions:
REMARK  status: ('A' for Active; 'I' for Inactive)
REMARK    1  A    between atoms: C_1  and  C_2
REMARK    2  A    between atoms: C_2  and  C_3
REMARK    3  A    between atoms: C_3  and  N_4
REMARK    4  A    between atoms: C_10  and  C_11
REMARK    5  A    between atoms: C_14  and  S_15
REMARK    6  A    between atoms: S_15  and  N_18
REMARK    7  A    between atoms: N_21  and  C_22
REMARK                            x       y       z     vdW  Elec       q    Type
REMARK                         _______ _______ _______ _____ _____    ______ ____
ROOT
ATOM      1  N   UNL     1      -0.959  12.182  21.661  0.00  0.00    +0.000 N 
ATOM      2  C   UNL     1      -1.028  12.630  20.333  0.00  0.00    +0.000 A 
ATOM      3  O   UNL     1      -1.642  13.642  19.989  0.00  0.00    +0.000 OA
ATOM      4  N   UNL     1      -0.364  11.885  19.382  0.00  0.00    +0.000 N 
ATOM      5  C   UNL     1       0.299  10.753  19.727  0.00  0.00    +0.000 A 
ATOM      6  N   UNL     1       0.951   9.912  18.891  0.00  0.00    +0.000 NA
ATOM      7  C   UNL     1       1.427   8.944  19.671  0.00  0.00    +0.000 A 
ATOM      8  N   UNL     1       1.073   9.182  20.988  0.00  0.00    +0.000 N 
ATOM      9  C   UNL     1       0.339  10.332  21.013  0.00  0.00    +0.000 A 
ATOM     10  C   UNL     1      -0.304  11.015  22.080  0.00  0.00    +0.000 A 
ATOM     11  O   UNL     1      -0.279  10.598  23.234  0.00  0.00    +0.000 OA
ATOM     12  H   UNL     1      -0.384  12.175  18.420  0.00  0.00    +0.000 HD
ATOM     13  H   UNL     1       1.282   8.597  21.785  0.00  0.00    +0.000 HD
ENDROOT
BRANCH   7  14
ATOM     14  C   UNL     1       2.186   7.777  19.210  0.00  0.00    +0.000 A 
ATOM     15  C   UNL     1       2.868   7.743  17.984  0.00  0.00    +0.000 A 
ATOM     16  C   UNL     1       3.572   6.594  17.589  0.00  0.00    +0.000 A 
ATOM     17  C   UNL     1       3.585   5.460  18.408  0.00  0.00    +0.000 A 
ATOM     18  C   UNL     1       2.855   5.462  19.595  0.00  0.00    +0.000 A 
ATOM     19  C   UNL     1       2.196   6.624  20.008  0.00  0.00    +0.000 A 
BRANCH  17  20
ATOM     20  S   UNL     1       4.385   3.961  17.855  0.00  0.00    +0.000 S 
ATOM     21  O   UNL     1       4.047   2.938  18.821  0.00  0.00    +0.000 OA
ATOM     22  O   UNL     1       4.039   3.807  16.456  0.00  0.00    +0.000 OA
BRANCH  20  23
ATOM     23  N   UNL     1       6.040   4.235  17.923  0.00  0.00    +0.000 NA
ATOM     24  C   UNL     1       6.697   4.785  19.125  0.00  0.00    +0.000 C 
ATOM     25  C   UNL     1       7.030   6.277  18.969  0.00  0.00    +0.000 C 
ATOM     26  N   UNL     1       7.655   6.670  17.690  0.00  0.00    +0.000 NA
ATOM     27  C   UNL     1       7.545   8.122  17.512  0.00  0.00    +0.000 C 
ATOM     28  C   UNL     1       7.091   5.977  16.512  0.00  0.00    +0.000 C 
ATOM     29  C   UNL     1       6.829   4.472  16.701  0.00  0.00    +0.000 C 
ENDBRANCH  20  23
ENDBRANCH  17  20
ENDBRANCH   7  14
BRANCH   1  30
ATOM     30  C   UNL     1      -1.680  12.948  22.673  0.00  0.00    +0.000 C 
BRANCH  30  32
ATOM     31  C   UNL     1      -1.552  14.830  24.339  0.00  0.00    +0.000 C 
ATOM     32  C   UNL     1      -0.861  14.140  23.174  0.00  0.00    +0.000 C 
ENDBRANCH  30  32
ENDBRANCH   1  30
TORSDOF 5
ENDMDL
