MODEL 1
REMARK VINA RESULT:      -6.1      0.000      0.000
REMARK  Name = 
REMARK  3 active torsions:
REMARK  status: ('A' for Active; 'I' for Inactive)
REMARK    1  A    between atoms: C_7  and  O_8
REMARK    2  A    between atoms: C_9  and  O_10
REMARK    3  A    between atoms: C_11  and  O_12
REMARK                            x       y       z     vdW  Elec       q    Type
REMARK                         _______ _______ _______ _____ _____    ______ ____
ROOT
ATOM      1  O   UNL     1       2.229   5.479  21.311  0.00  0.00    +0.000 OA
ATOM      2  C   UNL     1       2.119   4.569  20.499  0.00  0.00    +0.000 C 
ATOM      3  C   UNL     1       0.924   3.658  20.416  0.00  0.00    +0.000 C 
ATOM      4  S   UNL     1       1.387   2.312  19.289  0.00  0.00    +0.000 S 
ATOM      5  O   UNL     1       0.186   2.055  18.313  0.00  0.00    +0.000 OA
ATOM      6  C   UNL     1       2.561   3.414  18.461  0.00  0.00    +0.000 C 
ATOM      7  C   UNL     1       3.723   2.679  17.798  0.00  0.00    +0.000 C 
ATOM      8  C   UNL     1       4.594   3.767  17.138  0.00  0.00    +0.000 C 
ATOM      9  C   UNL     1       5.183   4.720  18.204  0.00  0.00    +0.000 C 
ATOM     10  C   UNL     1       4.115   5.237  19.196  0.00  0.00    +0.000 C 
ATOM     11  N   UNL     1       3.055   4.276  19.513  0.00  0.00    +0.000 N 
ENDROOT
BRANCH   7  12
ATOM     12  O   UNL     1       4.548   1.970  18.759  0.00  0.00    +0.000 OA
ATOM     13  H   UNL     1       5.391   2.452  18.859  0.00  0.00    +0.000 HD
ENDBRANCH   7  12
BRANCH   8  14
ATOM     14  O   UNL     1       5.642   3.161  16.380  0.00  0.00    +0.000 OA
ATOM     15  H   UNL     1       5.214   2.647  15.668  0.00  0.00    +0.000 HD
ENDBRANCH   8  14
BRANCH   9  16
ATOM     16  O   UNL     1       6.236   4.062  18.930  0.00  0.00    +0.000 OA
ATOM     17  H   UNL     1       5.822   3.481  19.599  0.00  0.00    +0.000 HD
ENDBRANCH   9  16
TORSDOF 3
ENDMDL
MODEL 2
REMARK VINA RESULT:      -6.0      2.202      2.835
REMARK  Name = 
REMARK  3 active torsions:
REMARK  status: ('A' for Active; 'I' for Inactive)
REMARK    1  A    between atoms: C_7  and  O_8
REMARK    2  A    between atoms: C_9  and  O_10
REMARK    3  A    between atoms: C_11  and  O_12
REMARK                            x       y       z     vdW  Elec       q    Type
REMARK                         _______ _______ _______ _____ _____    ______ ____
ROOT
ATOM      1  O   UNL     1       4.890   2.255  20.330  0.00  0.00    +0.000 OA
ATOM      2  C   UNL     1       4.322   2.808  19.396  0.00  0.00    +0.000 C 
ATOM      3  C   UNL     1       2.912   2.500  18.971  0.00  0.00    +0.000 C 
ATOM      4  S   UNL     1       2.666   3.338  17.380  0.00  0.00    +0.000 S 
ATOM      5  O   UNL     1       1.263   4.040  17.407  0.00  0.00    +0.000 OA
ATOM      6  C   UNL     1       3.918   4.563  17.835  0.00  0.00    +0.000 C 
ATOM      7  C   UNL     1       4.613   5.200  16.634  0.00  0.00    +0.000 C 
ATOM      8  C   UNL     1       5.617   6.216  17.212  0.00  0.00    +0.000 C 
ATOM      9  C   UNL     1       6.696   5.500  18.058  0.00  0.00    +0.000 C 
ATOM     10  C   UNL     1       6.092   4.510  19.080  0.00  0.00    +0.000 C 
ATOM     11  N   UNL     1       4.877   3.826  18.628  0.00  0.00    +0.000 N 
ENDROOT
BRANCH   7  12
ATOM     12  O   UNL     1       5.357   4.233  15.850  0.00  0.00    +0.000 OA
ATOM     13  H   UNL     1       6.196   4.645  15.566  0.00  0.00    +0.000 HD
ENDBRANCH   7  12
BRANCH   8  14
ATOM     14  O   UNL     1       6.226   6.958  16.155  0.00  0.00    +0.000 OA
ATOM     15  H   UNL     1       6.226   6.380  15.368  0.00  0.00    +0.000 HD
ENDBRANCH   8  14
BRANCH   9  16
ATOM     16  O   UNL     1       7.617   4.804  17.200  0.00  0.00    +0.000 OA
ATOM     17  H   UNL     1       8.524   4.998  17.513  0.00  0.00    +0.000 HD
ENDBRANCH   9  16
TORSDOF 3
ENDMDL
MODEL 3
REMARK VINA RESULT:      -5.8      2.477      3.131
REMARK  Name = 
REMARK  3 active torsions:
REMARK  status: ('A' for Active; 'I' for Inactive)
REMARK    1  A    between atoms: C_7  and  O_8
REMARK    2  A    between atoms: C_9  and  O_10
REMARK    3  A    between atoms: C_11  and  O_12
REMARK                            x       y       z     vdW  Elec       q    Type
REMARK                         _______ _______ _______ _____ _____    ______ ____
ROOT
ATOM      1  O   UNL     1       2.924   7.908  17.763  0.00  0.00    +0.000 OA
ATOM      2  C   UNL     1       3.263   6.818  18.205  0.00  0.00    +0.000 C 
ATOM      3  C   UNL     1       2.364   5.922  19.013  0.00  0.00    +0.000 C 
ATOM      4  S   UNL     1       3.421   4.607  19.681  0.00  0.00    +0.000 S 
ATOM      5  O   UNL     1       2.675   3.239  19.500  0.00  0.00    +0.000 OA
ATOM      6  C   UNL     1       4.558   4.818  18.288  0.00  0.00    +0.000 C 
ATOM      7  C   UNL     1       5.993   4.403  18.604  0.00  0.00    +0.000 C 
ATOM      8  C   UNL     1       6.797   4.633  17.309  0.00  0.00    +0.000 C 
ATOM      9  C   UNL     1       6.811   6.132  16.931  0.00  0.00    +0.000 C 
ATOM     10  C   UNL     1       5.401   6.766  16.956  0.00  0.00    +0.000 C 
ATOM     11  N   UNL     1       4.506   6.232  17.987  0.00  0.00    +0.000 N 
ENDROOT
BRANCH   7  12
ATOM     12  O   UNL     1       6.586   5.217  19.648  0.00  0.00    +0.000 OA
ATOM     13  H   UNL     1       5.928   5.334  20.361  0.00  0.00    +0.000 HD
ENDBRANCH   7  12
BRANCH   8  14
ATOM     14  O   UNL     1       8.131   4.149  17.470  0.00  0.00    +0.000 OA
ATOM     15  H   UNL     1       8.625   4.411  16.669  0.00  0.00    +0.000 HD
ENDBRANCH   8  14
BRANCH   9  16
ATOM     16  O   UNL     1       7.680   6.859  17.815  0.00  0.00    +0.000 OA
ATOM     17  H   UNL     1       7.261   7.723  18.007  0.00  0.00    +0.000 HD
ENDBRANCH   9  16
TORSDOF 3
ENDMDL
MODEL 4
REMARK VINA RESULT:      -5.8      2.612      4.232
REMARK  Name = 
REMARK  3 active torsions:
REMARK  status: ('A' for Active; 'I' for Inactive)
REMARK    1  A    between atoms: C_7  and  O_8
REMARK    2  A    between atoms: C_9  and  O_10
REMARK    3  A    between atoms: C_11  and  O_12
REMARK                            x       y       z     vdW  Elec       q    Type
REMARK                         _______ _______ _______ _____ _____    ______ ____
ROOT
ATOM      1  O   UNL     1       6.855   5.299  19.924  0.00  0.00    +0.000 OA
ATOM      2  C   UNL     1       6.165   5.323  18.913  0.00  0.00    +0.000 C 
ATOM      3  C   UNL     1       6.396   6.260  17.759  0.00  0.00    +0.000 C 
ATOM      4  S   UNL     1       4.941   6.115  16.684  0.00  0.00    +0.000 S 
ATOM      5  O   UNL     1       5.435   6.030  15.198  0.00  0.00    +0.000 OA
ATOM      6  C   UNL     1       4.670   4.428  17.285  0.00  0.00    +0.000 C 
ATOM      7  C   UNL     1       3.213   3.978  17.203  0.00  0.00    +0.000 C 
ATOM      8  C   UNL     1       3.184   2.532  17.734  0.00  0.00    +0.000 C 
ATOM      9  C   UNL     1       3.611   2.483  19.219  0.00  0.00    +0.000 C 
ATOM     10  C   UNL     1       4.920   3.261  19.489  0.00  0.00    +0.000 C 
ATOM     11  N   UNL     1       5.102   4.461  18.666  0.00  0.00    +0.000 N 
ENDROOT
BRANCH   7  12
ATOM     12  O   UNL     1       2.340   4.779  18.041  0.00  0.00    +0.000 OA
ATOM     13  H   UNL     1       1.414   4.580  17.803  0.00  0.00    +0.000 HD
ENDBRANCH   7  12
BRANCH   8  14
ATOM     14  O   UNL     1       1.877   1.978  17.574  0.00  0.00    +0.000 OA
ATOM     15  H   UNL     1       1.794   1.718  16.637  0.00  0.00    +0.000 HD
ENDBRANCH   8  14
BRANCH   9  16
ATOM     16  O   UNL     1       2.562   3.003  20.054  0.00  0.00    +0.000 OA
ATOM     17  H   UNL     1       2.750   3.949  20.220  0.00  0.00    +0.000 HD
ENDBRANCH   9  16
TORSDOF 3
ENDMDL
MODEL 5
REMARK VINA RESULT:      -5.8      2.249      2.670
REMARK  Name = 
REMARK  3 active torsions:
REMARK  status: ('A' for Active; 'I' for Inactive)
REMARK    1  A    between atoms: C_7  and  O_8
REMARK    2  A    between atoms: C_9  and  O_10
REMARK    3  A    between atoms: C_11  and  O_12
REMARK                            x       y       z     vdW  Elec       q    Type
REMARK                         _______ _______ _______ _____ _____    ______ ____
ROOT
ATOM      1  O   UNL     1       2.599   7.377  18.532  0.00  0.00    +0.000 OA
ATOM      2  C   UNL     1       2.933   6.236  18.238  0.00  0.00    +0.000 C 
ATOM      3  C   UNL     1       2.014   5.047  18.309  0.00  0.00    +0.000 C 
ATOM      4  S   UNL     1       3.060   3.581  18.084  0.00  0.00    +0.000 S 
ATOM      5  O   UNL     1       2.336   2.609  17.088  0.00  0.00    +0.000 OA
ATOM      6  C   UNL     1       4.245   4.574  17.142  0.00  0.00    +0.000 C 
ATOM      7  C   UNL     1       5.672   4.034  17.194  0.00  0.00    +0.000 C 
ATOM      8  C   UNL     1       6.520   4.987  16.330  0.00  0.00    +0.000 C 
ATOM      9  C   UNL     1       6.531   6.411  16.934  0.00  0.00    +0.000 C 
ATOM     10  C   UNL     1       5.115   6.920  17.286  0.00  0.00    +0.000 C 
ATOM     11  N   UNL     1       4.189   5.884  17.754  0.00  0.00    +0.000 N 
ENDROOT
BRANCH   7  12
ATOM     12  O   UNL     1       6.218   4.044  18.538  0.00  0.00    +0.000 OA
ATOM     13  H   UNL     1       6.094   4.936  18.916  0.00  0.00    +0.000 HD
ENDBRANCH   7  12
BRANCH   8  14
ATOM     14  O   UNL     1       7.853   4.486  16.213  0.00  0.00    +0.000 OA
ATOM     15  H   UNL     1       7.985   3.861  16.952  0.00  0.00    +0.000 HD
ENDBRANCH   8  14
BRANCH   9  16
ATOM     16  O   UNL     1       7.361   6.445  18.108  0.00  0.00    +0.000 OA
ATOM     17  H   UNL     1       8.040   7.137  17.976  0.00  0.00    +0.000 HD
ENDBRANCH   9  16
TORSDOF 3
ENDMDL
MODEL 6
REMARK VINA RESULT:      -5.7      1.506      1.634
REMARK  Name = 
REMARK  3 active torsions:
REMARK  status: ('A' for Active; 'I' for Inactive)
REMARK    1  A    between atoms: C_7  and  O_8
REMARK    2  A    between atoms: C_9  and  O_10
REMARK    3  A    between atoms: C_11  and  O_12
REMARK                            x       y       z     vdW  Elec       q    Type
REMARK                         _______ _______ _______ _____ _____    ______ ____
ROOT
ATOM      1  O   UNL     1       2.236   7.157  19.951  0.00  0.00    +0.000 OA
ATOM      2  C   UNL     1       2.457   5.957  19.849  0.00  0.00    +0.000 C 
ATOM      3  C   UNL     1       1.787   4.905  20.690  0.00  0.00    +0.000 C 
ATOM      4  S   UNL     1       2.679   3.356  20.375  0.00  0.00    +0.000 S 
ATOM      5  O   UNL     1       1.624   2.212  20.182  0.00  0.00    +0.000 OA
ATOM      6  C   UNL     1       3.154   3.967  18.737  0.00  0.00    +0.000 C 
ATOM      7  C   UNL     1       4.447   3.351  18.208  0.00  0.00    +0.000 C 
ATOM      8  C   UNL     1       4.674   3.970  16.815  0.00  0.00    +0.000 C 
ATOM      9  C   UNL     1       4.886   5.499  16.922  0.00  0.00    +0.000 C 
ATOM     10  C   UNL     1       3.807   6.191  17.786  0.00  0.00    +0.000 C 
ATOM     11  N   UNL     1       3.320   5.393  18.915  0.00  0.00    +0.000 N 
ENDROOT
BRANCH   7  12
ATOM     12  O   UNL     1       5.593   3.680  19.035  0.00  0.00    +0.000 OA
ATOM     13  H   UNL     1       6.267   2.982  18.922  0.00  0.00    +0.000 HD
ENDBRANCH   7  12
BRANCH   8  14
ATOM     14  O   UNL     1       5.798   3.356  16.184  0.00  0.00    +0.000 OA
ATOM     15  H   UNL     1       6.553   3.965  16.296  0.00  0.00    +0.000 HD
ENDBRANCH   8  14
BRANCH   9  16
ATOM     16  O   UNL     1       6.189   5.782  17.460  0.00  0.00    +0.000 OA
ATOM     17  H   UNL     1       6.843   5.666  16.741  0.00  0.00    +0.000 HD
ENDBRANCH   9  16
TORSDOF 3
ENDMDL
MODEL 7
REMARK VINA RESULT:      -5.7      2.885      4.689
REMARK  Name = 
REMARK  3 active torsions:
REMARK  status: ('A' for Active; 'I' for Inactive)
REMARK    1  A    between atoms: C_7  and  O_8
REMARK    2  A    between atoms: C_9  and  O_10
REMARK    3  A    between atoms: C_11  and  O_12
REMARK                            x       y       z     vdW  Elec       q    Type
REMARK                         _______ _______ _______ _____ _____    ______ ____
ROOT
ATOM      1  O   UNL     1       7.332   5.316  20.339  0.00  0.00    +0.000 OA
ATOM      2  C   UNL     1       6.924   5.395  19.187  0.00  0.00    +0.000 C 
ATOM      3  C   UNL     1       7.668   6.091  18.080  0.00  0.00    +0.000 C 
ATOM      4  S   UNL     1       6.515   6.201  16.682  0.00  0.00    +0.000 S 
ATOM      5  O   UNL     1       7.289   5.809  15.375  0.00  0.00    +0.000 OA
ATOM      6  C   UNL     1       5.648   4.730  17.286  0.00  0.00    +0.000 C 
ATOM      7  C   UNL     1       4.183   4.669  16.864  0.00  0.00    +0.000 C 
ATOM      8  C   UNL     1       3.626   3.356  17.448  0.00  0.00    +0.000 C 
ATOM      9  C   UNL     1       3.672   3.380  18.994  0.00  0.00    +0.000 C 
ATOM     10  C   UNL     1       5.050   3.816  19.542  0.00  0.00    +0.000 C 
ATOM     11  N   UNL     1       5.746   4.817  18.727  0.00  0.00    +0.000 N 
ENDROOT
BRANCH   7  12
ATOM     12  O   UNL     1       3.405   5.766  17.410  0.00  0.00    +0.000 OA
ATOM     13  H   UNL     1       3.995   6.324  17.953  0.00  0.00    +0.000 HD
ENDBRANCH   7  12
BRANCH   8  14
ATOM     14  O   UNL     1       2.287   3.148  16.994  0.00  0.00    +0.000 OA
ATOM     15  H   UNL     1       2.346   2.880  16.057  0.00  0.00    +0.000 HD
ENDBRANCH   8  14
BRANCH   9  16
ATOM     16  O   UNL     1       2.652   4.252  19.507  0.00  0.00    +0.000 OA
ATOM     17  H   UNL     1       2.350   4.826  18.774  0.00  0.00    +0.000 HD
ENDBRANCH   9  16
TORSDOF 3
ENDMDL
MODEL 8
REMARK VINA RESULT:      -5.7      2.536      4.492
REMARK  Name = 
REMARK  3 active torsions:
REMARK  status: ('A' for Active; 'I' for Inactive)
REMARK    1  A    between atoms: C_7  and  O_8
REMARK    2  A    between atoms: C_9  and  O_10
REMARK    3  A    between atoms: C_11  and  O_12
REMARK                            x       y       z     vdW  Elec       q    Type
REMARK                         _______ _______ _______ _____ _____    ______ ____
ROOT
ATOM      1  O   UNL     1       4.291   7.094  16.440  0.00  0.00    +0.000 OA
ATOM      2  C   UNL     1       4.783   6.348  17.277  0.00  0.00    +0.000 C 
ATOM      3  C   UNL     1       6.215   6.426  17.733  0.00  0.00    +0.000 C 
ATOM      4  S   UNL     1       6.518   4.932  18.718  0.00  0.00    +0.000 S 
ATOM      5  O   UNL     1       7.307   5.347  20.009  0.00  0.00    +0.000 OA
ATOM      6  C   UNL     1       4.758   4.852  19.134  0.00  0.00    +0.000 C 
ATOM      7  C   UNL     1       4.270   3.442  19.452  0.00  0.00    +0.000 C 
ATOM      8  C   UNL     1       2.773   3.577  19.795  0.00  0.00    +0.000 C 
ATOM      9  C   UNL     1       1.974   4.089  18.575  0.00  0.00    +0.000 C 
ATOM     10  C   UNL     1       2.618   5.334  17.921  0.00  0.00    +0.000 C 
ATOM     11  N   UNL     1       4.084   5.357  17.957  0.00  0.00    +0.000 N 
ENDROOT
BRANCH   7  12
ATOM     12  O   UNL     1       4.388   2.547  18.316  0.00  0.00    +0.000 OA
ATOM     13  H   UNL     1       5.231   2.735  17.860  0.00  0.00    +0.000 HD
ENDBRANCH   7  12
BRANCH   8  14
ATOM     14  O   UNL     1       2.257   2.319  20.235  0.00  0.00    +0.000 OA
ATOM     15  H   UNL     1       2.735   1.629  19.736  0.00  0.00    +0.000 HD
ENDBRANCH   8  14
BRANCH   9  16
ATOM     16  O   UNL     1       1.841   3.046  17.595  0.00  0.00    +0.000 OA
ATOM     17  H   UNL     1       2.014   3.436  16.714  0.00  0.00    +0.000 HD
ENDBRANCH   9  16
TORSDOF 3
ENDMDL
MODEL 9
REMARK VINA RESULT:      -5.6      2.768      4.893
REMARK  Name = 
REMARK  3 active torsions:
REMARK  status: ('A' for Active; 'I' for Inactive)
REMARK    1  A    between atoms: C_7  and  O_8
REMARK    2  A    between atoms: C_9  and  O_10
REMARK    3  A    between atoms: C_11  and  O_12
REMARK                            x       y       z     vdW  Elec       q    Type
REMARK                         _______ _______ _______ _____ _____    ______ ____
ROOT
ATOM      1  O   UNL     1       5.202   6.960  15.631  0.00  0.00    +0.000 OA
ATOM      2  C   UNL     1       5.633   6.272  16.547  0.00  0.00    +0.000 C 
ATOM      3  C   UNL     1       7.095   6.128  16.873  0.00  0.00    +0.000 C 
ATOM      4  S   UNL     1       7.217   4.779  18.081  0.00  0.00    +0.000 S 
ATOM      5  O   UNL     1       8.205   5.224  19.216  0.00  0.00    +0.000 OA
ATOM      6  C   UNL     1       5.529   5.126  18.635  0.00  0.00    +0.000 C 
ATOM      7  C   UNL     1       4.822   3.912  19.232  0.00  0.00    +0.000 C 
ATOM      8  C   UNL     1       3.423   4.401  19.658  0.00  0.00    +0.000 C 
ATOM      9  C   UNL     1       2.607   4.866  18.429  0.00  0.00    +0.000 C 
ATOM     10  C   UNL     1       3.399   5.834  17.520  0.00  0.00    +0.000 C 
ATOM     11  N   UNL     1       4.838   5.564  17.441  0.00  0.00    +0.000 N 
ENDROOT
BRANCH   7  12
ATOM     12  O   UNL     1       4.646   2.844  18.266  0.00  0.00    +0.000 OA
ATOM     13  H   UNL     1       5.264   2.992  17.525  0.00  0.00    +0.000 HD
ENDBRANCH   7  12
BRANCH   8  14
ATOM     14  O   UNL     1       2.731   3.360  20.349  0.00  0.00    +0.000 OA
ATOM     15  H   UNL     1       3.036   3.387  21.277  0.00  0.00    +0.000 HD
ENDBRANCH   8  14
BRANCH   9  16
ATOM     16  O   UNL     1       2.175   3.730  17.662  0.00  0.00    +0.000 OA
ATOM     17  H   UNL     1       2.131   4.000  16.722  0.00  0.00    +0.000 HD
ENDBRANCH   9  16
TORSDOF 3
ENDMDL
