MODEL 1
REMARK VINA RESULT:      -8.1      0.000      0.000
REMARK  Name = 
REMARK  5 active torsions:
REMARK  status: ('A' for Active; 'I' for Inactive)
REMARK    1  A    between atoms: C_2  and  C_5
REMARK    2  A    between atoms: N_3  and  O_4
REMARK    3  A    between atoms: C_8  and  C_9
REMARK    4  A    between atoms: C_11  and  C_12
REMARK    5  A    between atoms: C_19  and  C_20
REMARK                            x       y       z     vdW  Elec       q    Type
REMARK                         _______ _______ _______ _____ _____    ______ ____
ROOT
ATOM      1  C   UNL     1       1.195   8.005  20.619  0.00  0.00    +0.000 A 
ATOM      2  N   UNL     1       2.204   8.098  19.775  0.00  0.00    +0.000 NA
ATOM      3  C   UNL     1       2.603   6.800  19.503  0.00  0.00    +0.000 A 
ATOM      4  C   UNL     1       1.813   5.884  20.195  0.00  0.00    +0.000 A 
ATOM      5  N   UNL     1       0.915   6.683  20.863  0.00  0.00    +0.000 N 
ATOM      6  H   UNL     1       0.177   6.353  21.464  0.00  0.00    +0.000 HD
ENDROOT
BRANCH   3   7
ATOM      7  C   UNL     1       3.726   6.505  18.627  0.00  0.00    +0.000 A 
ATOM      8  C   UNL     1       3.794   7.115  17.366  0.00  0.00    +0.000 A 
ATOM      9  C   UNL     1       4.895   6.898  16.532  0.00  0.00    +0.000 A 
ATOM     10  C   UNL     1       5.927   6.072  16.961  0.00  0.00    +0.000 A 
ATOM     11  F   UNL     1       6.994   5.883  16.173  0.00  0.00    +0.000 F 
ATOM     12  C   UNL     1       5.869   5.439  18.195  0.00  0.00    +0.000 A 
ATOM     13  C   UNL     1       4.758   5.638  19.018  0.00  0.00    +0.000 A 
ENDBRANCH   3   7
BRANCH   1  17
ATOM     14  C   UNL     1      -1.049  11.200  22.406  0.00  0.00    +0.000 A 
ATOM     15  C   UNL     1      -0.537  10.160  23.195  0.00  0.00    +0.000 A 
ATOM     16  C   UNL     1       0.200   9.121  22.609  0.00  0.00    +0.000 A 
ATOM     17  C   UNL     1       0.441   9.105  21.229  0.00  0.00    +0.000 A 
ATOM     18  C   UNL     1      -0.059  10.159  20.451  0.00  0.00    +0.000 A 
ATOM     19  C   UNL     1      -0.778  11.205  21.036  0.00  0.00    +0.000 A 
BRANCH  14  21
ATOM     20  N   UNL     1      -3.144  12.057  23.380  0.00  0.00    +0.000 N 
ATOM     21  C   UNL     1      -1.833  12.303  23.053  0.00  0.00    +0.000 C 
ATOM     22  N   UNL     1      -1.391  13.499  23.352  0.00  0.00    +0.000 NA
ATOM     23  H   UNL     1      -3.512  12.754  24.020  0.00  0.00    +0.000 HD
ATOM     24  H   UNL     1      -3.373  11.108  23.647  0.00  0.00    +0.000 HD
BRANCH  22  25
ATOM     25  O   UNL     1      -0.090  13.752  22.918  0.00  0.00    +0.000 OA
ATOM     26  H   UNL     1      -0.231  14.074  22.008  0.00  0.00    +0.000 HD
ENDBRANCH  22  25
ENDBRANCH  14  21
ENDBRANCH   1  17
BRANCH   4  27
ATOM     27  C   UNL     1       1.805   4.424  20.320  0.00  0.00    +0.000 A 
ATOM     28  C   UNL     1       2.155   3.801  21.520  0.00  0.00    +0.000 A 
ATOM     29  C   UNL     1       2.220   2.418  21.563  0.00  0.00    +0.000 A 
ATOM     30  N   UNL     1       1.918   1.622  20.517  0.00  0.00    +0.000 NA
ATOM     31  C   UNL     1       1.541   2.237  19.378  0.00  0.00    +0.000 A 
ATOM     32  C   UNL     1       1.472   3.614  19.231  0.00  0.00    +0.000 A 
ENDBRANCH   4  27
TORSDOF 5
ENDMDL
MODEL 2
REMARK VINA RESULT:      -8.0      1.793      2.401
REMARK  Name = 
REMARK  5 active torsions:
REMARK  status: ('A' for Active; 'I' for Inactive)
REMARK    1  A    between atoms: C_2  and  C_5
REMARK    2  A    between atoms: N_3  and  O_4
REMARK    3  A    between atoms: C_8  and  C_9
REMARK    4  A    between atoms: C_11  and  C_12
REMARK    5  A    between atoms: C_19  and  C_20
REMARK                            x       y       z     vdW  Elec       q    Type
REMARK                         _______ _______ _______ _____ _____    ______ ____
ROOT
ATOM      1  C   UNL     1       2.185   7.930  19.053  0.00  0.00    +0.000 A 
ATOM      2  N   UNL     1       3.091   7.747  18.113  0.00  0.00    +0.000 NA
ATOM      3  C   UNL     1       3.574   6.461  18.282  0.00  0.00    +0.000 A 
ATOM      4  C   UNL     1       2.943   5.832  19.354  0.00  0.00    +0.000 A 
ATOM      5  N   UNL     1       2.049   6.782  19.795  0.00  0.00    +0.000 N 
ATOM      6  H   UNL     1       1.408   6.665  20.563  0.00  0.00    +0.000 HD
ENDROOT
BRANCH   3   7
ATOM      7  C   UNL     1       4.623   5.912  17.437  0.00  0.00    +0.000 A 
ATOM      8  C   UNL     1       4.308   4.902  16.517  0.00  0.00    +0.000 A 
ATOM      9  C   UNL     1       5.285   4.405  15.649  0.00  0.00    +0.000 A 
ATOM     10  C   UNL     1       6.575   4.919  15.703  0.00  0.00    +0.000 A 
ATOM     11  F   UNL     1       7.506   4.461  14.855  0.00  0.00    +0.000 F 
ATOM     12  C   UNL     1       6.915   5.903  16.622  0.00  0.00    +0.000 A 
ATOM     13  C   UNL     1       5.944   6.383  17.504  0.00  0.00    +0.000 A 
ENDBRANCH   3   7
BRANCH   1  17
ATOM     14  C   UNL     1      -0.071  11.499  19.830  0.00  0.00    +0.000 A 
ATOM     15  C   UNL     1       0.799  11.430  18.734  0.00  0.00    +0.000 A 
ATOM     16  C   UNL     1       1.530  10.262  18.479  0.00  0.00    +0.000 A 
ATOM     17  C   UNL     1       1.402   9.142  19.312  0.00  0.00    +0.000 A 
ATOM     18  C   UNL     1       0.515   9.214  20.395  0.00  0.00    +0.000 A 
ATOM     19  C   UNL     1      -0.228  10.372  20.640  0.00  0.00    +0.000 A 
BRANCH  14  21
ATOM     20  N   UNL     1      -1.925  13.024  19.275  0.00  0.00    +0.000 N 
ATOM     21  C   UNL     1      -0.846  12.758  20.083  0.00  0.00    +0.000 C 
ATOM     22  N   UNL     1      -0.605  13.647  21.015  0.00  0.00    +0.000 NA
ATOM     23  H   UNL     1      -2.521  13.748  19.666  0.00  0.00    +0.000 HD
ATOM     24  H   UNL     1      -2.440  12.225  18.930  0.00  0.00    +0.000 HD
BRANCH  22  25
ATOM     25  O   UNL     1       0.553  13.400  21.752  0.00  0.00    +0.000 OA
ATOM     26  H   UNL     1       0.269  13.603  22.663  0.00  0.00    +0.000 HD
ENDBRANCH  22  25
ENDBRANCH  14  21
ENDBRANCH   1  17
BRANCH   4  27
ATOM     27  C   UNL     1       3.077   4.524  20.001  0.00  0.00    +0.000 A 
ATOM     28  C   UNL     1       2.188   4.120  20.999  0.00  0.00    +0.000 A 
ATOM     29  C   UNL     1       2.410   2.913  21.644  0.00  0.00    +0.000 A 
ATOM     30  N   UNL     1       3.418   2.073  21.332  0.00  0.00    +0.000 NA
ATOM     31  C   UNL     1       4.242   2.459  20.337  0.00  0.00    +0.000 A 
ATOM     32  C   UNL     1       4.116   3.657  19.653  0.00  0.00    +0.000 A 
ENDBRANCH   4  27
TORSDOF 5
ENDMDL
MODEL 3
REMARK VINA RESULT:      -8.0      4.245      8.793
REMARK  Name = 
REMARK  5 active torsions:
REMARK  status: ('A' for Active; 'I' for Inactive)
REMARK    1  A    between atoms: C_2  and  C_5
REMARK    2  A    between atoms: N_3  and  O_4
REMARK    3  A    between atoms: C_8  and  C_9
REMARK    4  A    between atoms: C_11  and  C_12
REMARK    5  A    between atoms: C_19  and  C_20
REMARK                            x       y       z     vdW  Elec       q    Type
REMARK                         _______ _______ _______ _____ _____    ______ ____
ROOT
ATOM      1  C   UNL     1       1.485   8.593  18.794  0.00  0.00    +0.000 A 
ATOM      2  N   UNL     1       0.479   8.886  17.994  0.00  0.00    +0.000 NA
ATOM      3  C   UNL     1      -0.263   9.857  18.643  0.00  0.00    +0.000 A 
ATOM      4  C   UNL     1       0.305  10.174  19.875  0.00  0.00    +0.000 A 
ATOM      5  N   UNL     1       1.426   9.377  19.920  0.00  0.00    +0.000 N 
ATOM      6  H   UNL     1       2.092   9.351  20.675  0.00  0.00    +0.000 HD
ENDROOT
BRANCH   3   7
ATOM      7  C   UNL     1      -1.482  10.408  18.072  0.00  0.00    +0.000 A 
ATOM      8  C   UNL     1      -1.914   9.966  16.813  0.00  0.00    +0.000 A 
ATOM      9  C   UNL     1      -3.116  10.432  16.272  0.00  0.00    +0.000 A 
ATOM     10  C   UNL     1      -3.885  11.340  16.991  0.00  0.00    +0.000 A 
ATOM     11  F   UNL     1      -5.049  11.768  16.485  0.00  0.00    +0.000 F 
ATOM     12  C   UNL     1      -3.465  11.809  18.228  0.00  0.00    +0.000 A 
ATOM     13  C   UNL     1      -2.253  11.360  18.758  0.00  0.00    +0.000 A 
ENDBRANCH   3   7
BRANCH   1  17
ATOM     14  C   UNL     1       4.600   5.704  18.172  0.00  0.00    +0.000 A 
ATOM     15  C   UNL     1       3.638   5.510  19.172  0.00  0.00    +0.000 A 
ATOM     16  C   UNL     1       2.619   6.452  19.369  0.00  0.00    +0.000 A 
ATOM     17  C   UNL     1       2.541   7.600  18.570  0.00  0.00    +0.000 A 
ATOM     18  C   UNL     1       3.497   7.776  17.559  0.00  0.00    +0.000 A 
ATOM     19  C   UNL     1       4.503   6.829  17.349  0.00  0.00    +0.000 A 
BRANCH  14  21
ATOM     20  N   UNL     1       5.536   3.780  16.949  0.00  0.00    +0.000 N 
ATOM     21  C   UNL     1       5.681   4.682  17.975  0.00  0.00    +0.000 C 
ATOM     22  N   UNL     1       6.774   4.559  18.686  0.00  0.00    +0.000 NA
ATOM     23  H   UNL     1       6.407   3.300  16.742  0.00  0.00    +0.000 HD
ATOM     24  H   UNL     1       5.052   4.108  16.123  0.00  0.00    +0.000 HD
BRANCH  22  25
ATOM     25  O   UNL     1       6.844   5.423  19.779  0.00  0.00    +0.000 OA
ATOM     26  H   UNL     1       7.618   5.975  19.560  0.00  0.00    +0.000 HD
ENDBRANCH  22  25
ENDBRANCH  14  21
ENDBRANCH   1  17
BRANCH   4  27
ATOM     27  C   UNL     1      -0.061  11.072  20.974  0.00  0.00    +0.000 A 
ATOM     28  C   UNL     1      -0.774  10.603  22.080  0.00  0.00    +0.000 A 
ATOM     29  C   UNL     1      -1.175  11.508  23.050  0.00  0.00    +0.000 A 
ATOM     30  N   UNL     1      -0.876  12.823  23.016  0.00  0.00    +0.000 NA
ATOM     31  C   UNL     1      -0.150  13.251  21.964  0.00  0.00    +0.000 A 
ATOM     32  C   UNL     1       0.273  12.428  20.932  0.00  0.00    +0.000 A 
ENDBRANCH   4  27
TORSDOF 5
ENDMDL
MODEL 4
REMARK VINA RESULT:      -8.0      1.729      2.159
REMARK  Name = 
REMARK  5 active torsions:
REMARK  status: ('A' for Active; 'I' for Inactive)
REMARK    1  A    between atoms: C_2  and  C_5
REMARK    2  A    between atoms: N_3  and  O_4
REMARK    3  A    between atoms: C_8  and  C_9
REMARK    4  A    between atoms: C_11  and  C_12
REMARK    5  A    between atoms: C_19  and  C_20
REMARK                            x       y       z     vdW  Elec       q    Type
REMARK                         _______ _______ _______ _____ _____    ______ ____
ROOT
ATOM      1  C   UNL     1       2.089   8.019  19.130  0.00  0.00    +0.000 A 
ATOM      2  N   UNL     1       2.961   7.826  18.160  0.00  0.00    +0.000 NA
ATOM      3  C   UNL     1       3.435   6.535  18.314  0.00  0.00    +0.000 A 
ATOM      4  C   UNL     1       2.835   5.914  19.407  0.00  0.00    +0.000 A 
ATOM      5  N   UNL     1       1.967   6.873  19.878  0.00  0.00    +0.000 N 
ATOM      6  H   UNL     1       1.352   6.763  20.667  0.00  0.00    +0.000 HD
ENDROOT
BRANCH   3   7
ATOM      7  C   UNL     1       4.449   5.975  17.434  0.00  0.00    +0.000 A 
ATOM      8  C   UNL     1       5.733   6.539  17.415  0.00  0.00    +0.000 A 
ATOM      9  C   UNL     1       6.742   5.978  16.627  0.00  0.00    +0.000 A 
ATOM     10  C   UNL     1       6.466   4.853  15.859  0.00  0.00    +0.000 A 
ATOM     11  F   UNL     1       7.439   4.299  15.123  0.00  0.00    +0.000 F 
ATOM     12  C   UNL     1       5.196   4.291  15.845  0.00  0.00    +0.000 A 
ATOM     13  C   UNL     1       4.183   4.866  16.615  0.00  0.00    +0.000 A 
ENDBRANCH   3   7
BRANCH   1  17
ATOM     14  C   UNL     1      -0.174  11.574  19.947  0.00  0.00    +0.000 A 
ATOM     15  C   UNL     1      -0.272  10.458  20.788  0.00  0.00    +0.000 A 
ATOM     16  C   UNL     1       0.472   9.300  20.523  0.00  0.00    +0.000 A 
ATOM     17  C   UNL     1       1.329   9.239  19.415  0.00  0.00    +0.000 A 
ATOM     18  C   UNL     1       1.435  10.368  18.590  0.00  0.00    +0.000 A 
ATOM     19  C   UNL     1       0.707  11.529  18.864  0.00  0.00    +0.000 A 
BRANCH  14  21
ATOM     20  N   UNL     1      -2.097  13.047  19.492  0.00  0.00    +0.000 N 
ATOM     21  C   UNL     1      -0.977  12.805  20.251  0.00  0.00    +0.000 C 
ATOM     22  N   UNL     1      -0.725  13.688  21.184  0.00  0.00    +0.000 NA
ATOM     23  H   UNL     1      -2.698  13.746  19.919  0.00  0.00    +0.000 HD
ATOM     24  H   UNL     1      -2.601  12.236  19.157  0.00  0.00    +0.000 HD
BRANCH  22  25
ATOM     25  O   UNL     1       0.471  13.468  21.869  0.00  0.00    +0.000 OA
ATOM     26  H   UNL     1       0.627  14.330  22.299  0.00  0.00    +0.000 HD
ENDBRANCH  22  25
ENDBRANCH  14  21
ENDBRANCH   1  17
BRANCH   4  27
ATOM     27  C   UNL     1       2.978   4.605  20.051  0.00  0.00    +0.000 A 
ATOM     28  C   UNL     1       2.088   4.189  21.043  0.00  0.00    +0.000 A 
ATOM     29  C   UNL     1       2.317   2.982  21.685  0.00  0.00    +0.000 A 
ATOM     30  N   UNL     1       3.334   2.152  21.376  0.00  0.00    +0.000 NA
ATOM     31  C   UNL     1       4.160   2.548  20.386  0.00  0.00    +0.000 A 
ATOM     32  C   UNL     1       4.027   3.748  19.705  0.00  0.00    +0.000 A 
ENDBRANCH   4  27
TORSDOF 5
ENDMDL
MODEL 5
REMARK VINA RESULT:      -8.0      4.506      9.196
REMARK  Name = 
REMARK  5 active torsions:
REMARK  status: ('A' for Active; 'I' for Inactive)
REMARK    1  A    between atoms: C_2  and  C_5
REMARK    2  A    between atoms: N_3  and  O_4
REMARK    3  A    between atoms: C_8  and  C_9
REMARK    4  A    between atoms: C_11  and  C_12
REMARK    5  A    between atoms: C_19  and  C_20
REMARK                            x       y       z     vdW  Elec       q    Type
REMARK                         _______ _______ _______ _____ _____    ______ ____
ROOT
ATOM      1  C   UNL     1       1.557   8.905  18.476  0.00  0.00    +0.000 A 
ATOM      2  N   UNL     1       0.320   8.926  18.021  0.00  0.00    +0.000 NA
ATOM      3  C   UNL     1      -0.161  10.201  18.262  0.00  0.00    +0.000 A 
ATOM      4  C   UNL     1       0.809  10.989  18.878  0.00  0.00    +0.000 A 
ATOM      5  N   UNL     1       1.891  10.143  18.968  0.00  0.00    +0.000 N 
ATOM      6  H   UNL     1       2.787  10.385  19.358  0.00  0.00    +0.000 HD
ENDROOT
BRANCH   3   7
ATOM      7  C   UNL     1      -1.520  10.591  17.919  0.00  0.00    +0.000 A 
ATOM      8  C   UNL     1      -2.098  10.109  16.735  0.00  0.00    +0.000 A 
ATOM      9  C   UNL     1      -3.423  10.417  16.417  0.00  0.00    +0.000 A 
ATOM     10  C   UNL     1      -4.171  11.206  17.284  0.00  0.00    +0.000 A 
ATOM     11  F   UNL     1      -5.450  11.481  16.993  0.00  0.00    +0.000 F 
ATOM     12  C   UNL     1      -3.613  11.713  18.450  0.00  0.00    +0.000 A 
ATOM     13  C   UNL     1      -2.281  11.424  18.756  0.00  0.00    +0.000 A 
ENDBRANCH   3   7
BRANCH   1  17
ATOM     14  C   UNL     1       4.254   5.564  18.449  0.00  0.00    +0.000 A 
ATOM     15  C   UNL     1       4.332   6.551  17.457  0.00  0.00    +0.000 A 
ATOM     16  C   UNL     1       3.454   7.644  17.472  0.00  0.00    +0.000 A 
ATOM     17  C   UNL     1       2.486   7.771  18.478  0.00  0.00    +0.000 A 
ATOM     18  C   UNL     1       2.429   6.788  19.476  0.00  0.00    +0.000 A 
ATOM     19  C   UNL     1       3.315   5.708  19.474  0.00  0.00    +0.000 A 
BRANCH  14  21
ATOM     20  N   UNL     1       4.834   3.286  17.710  0.00  0.00    +0.000 N 
ATOM     21  C   UNL     1       5.205   4.404  18.417  0.00  0.00    +0.000 C 
ATOM     22  N   UNL     1       6.377   4.343  18.998  0.00  0.00    +0.000 NA
ATOM     23  H   UNL     1       5.622   2.667  17.541  0.00  0.00    +0.000 HD
ATOM     24  H   UNL     1       4.262   3.439  16.889  0.00  0.00    +0.000 HD
BRANCH  22  25
ATOM     25  O   UNL     1       6.681   5.451  19.789  0.00  0.00    +0.000 OA
ATOM     26  H   UNL     1       7.109   6.052  19.152  0.00  0.00    +0.000 HD
ENDBRANCH  22  25
ENDBRANCH  14  21
ENDBRANCH   1  17
BRANCH   4  27
ATOM     27  C   UNL     1       0.844  12.362  19.389  0.00  0.00    +0.000 A 
ATOM     28  C   UNL     1       0.906  13.453  18.520  0.00  0.00    +0.000 A 
ATOM     29  C   UNL     1       1.029  14.726  19.052  0.00  0.00    +0.000 A 
ATOM     30  N   UNL     1       1.047  14.986  20.375  0.00  0.00    +0.000 NA
ATOM     31  C   UNL     1       0.942  13.925  21.201  0.00  0.00    +0.000 A 
ATOM     32  C   UNL     1       0.843  12.614  20.764  0.00  0.00    +0.000 A 
ENDBRANCH   4  27
TORSDOF 5
ENDMDL
MODEL 6
REMARK VINA RESULT:      -7.9      2.034      2.510
REMARK  Name = 
REMARK  5 active torsions:
REMARK  status: ('A' for Active; 'I' for Inactive)
REMARK    1  A    between atoms: C_2  and  C_5
REMARK    2  A    between atoms: N_3  and  O_4
REMARK    3  A    between atoms: C_8  and  C_9
REMARK    4  A    between atoms: C_11  and  C_12
REMARK    5  A    between atoms: C_19  and  C_20
REMARK                            x       y       z     vdW  Elec       q    Type
REMARK                         _______ _______ _______ _____ _____    ______ ____
ROOT
ATOM      1  C   UNL     1       2.216   7.785  19.024  0.00  0.00    +0.000 A 
ATOM      2  N   UNL     1       3.116   7.619  18.074  0.00  0.00    +0.000 NA
ATOM      3  C   UNL     1       3.624   6.342  18.240  0.00  0.00    +0.000 A 
ATOM      4  C   UNL     1       3.016   5.702  19.318  0.00  0.00    +0.000 A 
ATOM      5  N   UNL     1       2.109   6.635  19.767  0.00  0.00    +0.000 N 
ATOM      6  H   UNL     1       1.479   6.507  20.542  0.00  0.00    +0.000 HD
ENDROOT
BRANCH   3   7
ATOM      7  C   UNL     1       4.675   5.812  17.385  0.00  0.00    +0.000 A 
ATOM      8  C   UNL     1       4.358   4.839  16.426  0.00  0.00    +0.000 A 
ATOM      9  C   UNL     1       5.337   4.363  15.549  0.00  0.00    +0.000 A 
ATOM     10  C   UNL     1       6.632   4.860  15.632  0.00  0.00    +0.000 A 
ATOM     11  F   UNL     1       7.565   4.423  14.776  0.00  0.00    +0.000 F 
ATOM     12  C   UNL     1       6.974   5.806  16.589  0.00  0.00    +0.000 A 
ATOM     13  C   UNL     1       6.001   6.265  17.480  0.00  0.00    +0.000 A 
ENDBRANCH   3   7
BRANCH   1  17
ATOM     14  C   UNL     1      -0.171  11.269  19.794  0.00  0.00    +0.000 A 
ATOM     15  C   UNL     1      -0.059  10.256  20.755  0.00  0.00    +0.000 A 
ATOM     16  C   UNL     1       0.726   9.122  20.503  0.00  0.00    +0.000 A 
ATOM     17  C   UNL     1       1.414   8.983  19.290  0.00  0.00    +0.000 A 
ATOM     18  C   UNL     1       1.310  10.011  18.343  0.00  0.00    +0.000 A 
ATOM     19  C   UNL     1       0.543  11.150  18.600  0.00  0.00    +0.000 A 
BRANCH  14  21
ATOM     20  N   UNL     1      -0.465  13.475  20.852  0.00  0.00    +0.000 N 
ATOM     21  C   UNL     1      -1.013  12.476  20.085  0.00  0.00    +0.000 C 
ATOM     22  N   UNL     1      -2.238  12.688  19.672  0.00  0.00    +0.000 NA
ATOM     23  H   UNL     1      -1.000  14.337  20.791  0.00  0.00    +0.000 HD
ATOM     24  H   UNL     1       0.533  13.617  20.765  0.00  0.00    +0.000 HD
BRANCH  22  25
ATOM     25  O   UNL     1      -2.801  11.615  18.981  0.00  0.00    +0.000 OA
ATOM     26  H   UNL     1      -3.002  12.008  18.112  0.00  0.00    +0.000 HD
ENDBRANCH  22  25
ENDBRANCH  14  21
ENDBRANCH   1  17
BRANCH   4  27
ATOM     27  C   UNL     1       3.181   4.398  19.965  0.00  0.00    +0.000 A 
ATOM     28  C   UNL     1       2.290   3.963  20.948  0.00  0.00    +0.000 A 
ATOM     29  C   UNL     1       2.540   2.762  21.594  0.00  0.00    +0.000 A 
ATOM     30  N   UNL     1       3.578   1.955  21.296  0.00  0.00    +0.000 NA
ATOM     31  C   UNL     1       4.404   2.368  20.314  0.00  0.00    +0.000 A 
ATOM     32  C   UNL     1       4.252   3.564  19.631  0.00  0.00    +0.000 A 
ENDBRANCH   4  27
TORSDOF 5
ENDMDL
MODEL 7
REMARK VINA RESULT:      -7.9      2.612      4.597
REMARK  Name = 
REMARK  5 active torsions:
REMARK  status: ('A' for Active; 'I' for Inactive)
REMARK    1  A    between atoms: C_2  and  C_5
REMARK    2  A    between atoms: N_3  and  O_4
REMARK    3  A    between atoms: C_8  and  C_9
REMARK    4  A    between atoms: C_11  and  C_12
REMARK    5  A    between atoms: C_19  and  C_20
REMARK                            x       y       z     vdW  Elec       q    Type
REMARK                         _______ _______ _______ _____ _____    ______ ____
ROOT
ATOM      1  C   UNL     1       2.254   7.801  18.793  0.00  0.00    +0.000 A 
ATOM      2  N   UNL     1       2.033   6.539  19.103  0.00  0.00    +0.000 NA
ATOM      3  C   UNL     1       3.070   5.814  18.542  0.00  0.00    +0.000 A 
ATOM      4  C   UNL     1       3.957   6.654  17.872  0.00  0.00    +0.000 A 
ATOM      5  N   UNL     1       3.424   7.905  18.080  0.00  0.00    +0.000 N 
ATOM      6  H   UNL     1       3.816   8.768  17.741  0.00  0.00    +0.000 HD
ENDROOT
BRANCH   3   7
ATOM      7  C   UNL     1       3.145   4.365  18.650  0.00  0.00    +0.000 A 
ATOM      8  C   UNL     1       2.398   3.569  17.770  0.00  0.00    +0.000 A 
ATOM      9  C   UNL     1       2.504   2.176  17.812  0.00  0.00    +0.000 A 
ATOM     10  C   UNL     1       3.357   1.580  18.733  0.00  0.00    +0.000 A 
ATOM     11  F   UNL     1       3.479   0.246  18.756  0.00  0.00    +0.000 F 
ATOM     12  C   UNL     1       4.089   2.348  19.629  0.00  0.00    +0.000 A 
ATOM     13  C   UNL     1       3.965   3.738  19.602  0.00  0.00    +0.000 A 
ENDBRANCH   3   7
BRANCH   1  17
ATOM     14  C   UNL     1      -0.139  11.220  19.802  0.00  0.00    +0.000 A 
ATOM     15  C   UNL     1       0.545  11.165  18.581  0.00  0.00    +0.000 A 
ATOM     16  C   UNL     1       1.322  10.045  18.251  0.00  0.00    +0.000 A 
ATOM     17  C   UNL     1       1.424   8.961  19.134  0.00  0.00    +0.000 A 
ATOM     18  C   UNL     1       0.720   9.017  20.345  0.00  0.00    +0.000 A 
ATOM     19  C   UNL     1      -0.068  10.125  20.667  0.00  0.00    +0.000 A 
BRANCH  14  21
ATOM     20  N   UNL     1      -2.038  12.716  19.323  0.00  0.00    +0.000 N 
ATOM     21  C   UNL     1      -0.967  12.426  20.134  0.00  0.00    +0.000 C 
ATOM     22  N   UNL     1      -0.780  13.246  21.138  0.00  0.00    +0.000 NA
ATOM     23  H   UNL     1      -2.669  13.385  19.755  0.00  0.00    +0.000 HD
ATOM     24  H   UNL     1      -2.514  11.928  18.903  0.00  0.00    +0.000 HD
BRANCH  22  25
ATOM     25  O   UNL     1       0.370  12.984  21.883  0.00  0.00    +0.000 OA
ATOM     26  H   UNL     1       1.077  13.315  21.299  0.00  0.00    +0.000 HD
ENDBRANCH  22  25
ENDBRANCH  14  21
ENDBRANCH   1  17
BRANCH   4  27
ATOM     27  C   UNL     1       5.172   6.442  17.081  0.00  0.00    +0.000 A 
ATOM     28  C   UNL     1       5.142   5.699  15.898  0.00  0.00    +0.000 A 
ATOM     29  C   UNL     1       6.332   5.451  15.233  0.00  0.00    +0.000 A 
ATOM     30  N   UNL     1       7.527   5.927  15.637  0.00  0.00    +0.000 NA
ATOM     31  C   UNL     1       7.533   6.678  16.756  0.00  0.00    +0.000 A 
ATOM     32  C   UNL     1       6.400   6.958  17.503  0.00  0.00    +0.000 A 
ENDBRANCH   4  27
TORSDOF 5
ENDMDL
MODEL 8
REMARK VINA RESULT:      -7.9      4.523      9.186
REMARK  Name = 
REMARK  5 active torsions:
REMARK  status: ('A' for Active; 'I' for Inactive)
REMARK    1  A    between atoms: C_2  and  C_5
REMARK    2  A    between atoms: N_3  and  O_4
REMARK    3  A    between atoms: C_8  and  C_9
REMARK    4  A    between atoms: C_11  and  C_12
REMARK    5  A    between atoms: C_19  and  C_20
REMARK                            x       y       z     vdW  Elec       q    Type
REMARK                         _______ _______ _______ _____ _____    ______ ____
ROOT
ATOM      1  C   UNL     1       1.610   8.882  18.374  0.00  0.00    +0.000 A 
ATOM      2  N   UNL     1       0.366   8.898  17.939  0.00  0.00    +0.000 NA
ATOM      3  C   UNL     1      -0.121  10.167  18.201  0.00  0.00    +0.000 A 
ATOM      4  C   UNL     1       0.853  10.955  18.810  0.00  0.00    +0.000 A 
ATOM      5  N   UNL     1       1.943  10.117  18.873  0.00  0.00    +0.000 N 
ATOM      6  H   UNL     1       2.843  10.362  19.251  0.00  0.00    +0.000 HD
ENDROOT
BRANCH   3   7
ATOM      7  C   UNL     1      -1.489  10.550  17.886  0.00  0.00    +0.000 A 
ATOM      8  C   UNL     1      -2.218  11.319  18.804  0.00  0.00    +0.000 A 
ATOM      9  C   UNL     1      -3.510  11.754  18.495  0.00  0.00    +0.000 A 
ATOM     10  C   UNL     1      -4.071  11.420  17.268  0.00  0.00    +0.000 A 
ATOM     11  F   UNL     1      -5.300  11.858  16.960  0.00  0.00    +0.000 F 
ATOM     12  C   UNL     1      -3.376  10.640  16.353  0.00  0.00    +0.000 A 
ATOM     13  C   UNL     1      -2.095  10.186  16.672  0.00  0.00    +0.000 A 
ENDBRANCH   3   7
BRANCH   1  17
ATOM     14  C   UNL     1       4.380   5.602  18.331  0.00  0.00    +0.000 A 
ATOM     15  C   UNL     1       3.371   5.670  19.301  0.00  0.00    +0.000 A 
ATOM     16  C   UNL     1       2.464   6.739  19.309  0.00  0.00    +0.000 A 
ATOM     17  C   UNL     1       2.548   7.755  18.348  0.00  0.00    +0.000 A 
ATOM     18  C   UNL     1       3.549   7.668  17.370  0.00  0.00    +0.000 A 
ATOM     19  C   UNL     1       4.442   6.593  17.350  0.00  0.00    +0.000 A 
BRANCH  14  21
ATOM     20  N   UNL     1       5.000   3.325  17.622  0.00  0.00    +0.000 N 
ATOM     21  C   UNL     1       5.338   4.447  18.338  0.00  0.00    +0.000 C 
ATOM     22  N   UNL     1       6.488   4.394  18.961  0.00  0.00    +0.000 NA
ATOM     23  H   UNL     1       5.796   2.709  17.484  0.00  0.00    +0.000 HD
ATOM     24  H   UNL     1       4.457   3.471  16.780  0.00  0.00    +0.000 HD
BRANCH  22  25
ATOM     25  O   UNL     1       6.757   5.507  19.759  0.00  0.00    +0.000 OA
ATOM     26  H   UNL     1       6.104   6.157  19.439  0.00  0.00    +0.000 HD
ENDBRANCH  22  25
ENDBRANCH  14  21
ENDBRANCH   1  17
BRANCH   4  27
ATOM     27  C   UNL     1       0.886  12.323  19.336  0.00  0.00    +0.000 A 
ATOM     28  C   UNL     1       0.969  13.422  18.478  0.00  0.00    +0.000 A 
ATOM     29  C   UNL     1       1.088  14.690  19.024  0.00  0.00    +0.000 A 
ATOM     30  N   UNL     1       1.085  14.936  20.350  0.00  0.00    +0.000 NA
ATOM     31  C   UNL     1       0.961  13.868  21.164  0.00  0.00    +0.000 A 
ATOM     32  C   UNL     1       0.862  12.562  20.712  0.00  0.00    +0.000 A 
ENDBRANCH   4  27
TORSDOF 5
ENDMDL
MODEL 9
REMARK VINA RESULT:      -7.9      1.958      2.712
REMARK  Name = 
REMARK  5 active torsions:
REMARK  status: ('A' for Active; 'I' for Inactive)
REMARK    1  A    between atoms: C_2  and  C_5
REMARK    2  A    between atoms: N_3  and  O_4
REMARK    3  A    between atoms: C_8  and  C_9
REMARK    4  A    between atoms: C_11  and  C_12
REMARK    5  A    between atoms: C_19  and  C_20
REMARK                            x       y       z     vdW  Elec       q    Type
REMARK                         _______ _______ _______ _____ _____    ______ ____
ROOT
ATOM      1  C   UNL     1       2.194   8.237  18.584  0.00  0.00    +0.000 A 
ATOM      2  N   UNL     1       3.268   8.042  17.845  0.00  0.00    +0.000 NA
ATOM      3  C   UNL     1       3.500   6.677  17.849  0.00  0.00    +0.000 A 
ATOM      4  C   UNL     1       2.538   6.014  18.609  0.00  0.00    +0.000 A 
ATOM      5  N   UNL     1       1.712   7.031  19.030  0.00  0.00    +0.000 N 
ATOM      6  H   UNL     1       0.891   6.915  19.601  0.00  0.00    +0.000 HD
ENDROOT
BRANCH   3   7
ATOM      7  C   UNL     1       4.633   6.084  17.157  0.00  0.00    +0.000 A 
ATOM      8  C   UNL     1       4.431   4.963  16.339  0.00  0.00    +0.000 A 
ATOM      9  C   UNL     1       5.492   4.415  15.613  0.00  0.00    +0.000 A 
ATOM     10  C   UNL     1       6.755   4.989  15.706  0.00  0.00    +0.000 A 
ATOM     11  F   UNL     1       7.768   4.480  14.991  0.00  0.00    +0.000 F 
ATOM     12  C   UNL     1       6.983   6.084  16.528  0.00  0.00    +0.000 A 
ATOM     13  C   UNL     1       5.928   6.617  17.271  0.00  0.00    +0.000 A 
ENDBRANCH   3   7
BRANCH   1  17
ATOM     14  C   UNL     1       0.367  11.998  19.563  0.00  0.00    +0.000 A 
ATOM     15  C   UNL     1       1.385  11.928  18.602  0.00  0.00    +0.000 A 
ATOM     16  C   UNL     1       1.976  10.698  18.280  0.00  0.00    +0.000 A 
ATOM     17  C   UNL     1       1.558   9.518  18.909  0.00  0.00    +0.000 A 
ATOM     18  C   UNL     1       0.526   9.595  19.855  0.00  0.00    +0.000 A 
ATOM     19  C   UNL     1      -0.076  10.817  20.163  0.00  0.00    +0.000 A 
BRANCH  14  21
ATOM     20  N   UNL     1      -1.226  13.805  19.047  0.00  0.00    +0.000 N 
ATOM     21  C   UNL     1      -0.254  13.323  19.890  0.00  0.00    +0.000 C 
ATOM     22  N   UNL     1       0.031  14.084  20.917  0.00  0.00    +0.000 NA
ATOM     23  H   UNL     1      -1.750  14.566  19.470  0.00  0.00    +0.000 HD
ATOM     24  H   UNL     1      -1.814  13.117  18.594  0.00  0.00    +0.000 HD
BRANCH  22  25
ATOM     25  O   UNL     1       1.089  13.617  21.697  0.00  0.00    +0.000 OA
ATOM     26  H   UNL     1       1.347  14.412  22.198  0.00  0.00    +0.000 HD
ENDBRANCH  22  25
ENDBRANCH  14  21
ENDBRANCH   1  17
BRANCH   4  27
ATOM     27  C   UNL     1       2.314   4.616  18.990  0.00  0.00    +0.000 A 
ATOM     28  C   UNL     1       1.439   3.804  18.266  0.00  0.00    +0.000 A 
ATOM     29  C   UNL     1       1.192   2.517  18.718  0.00  0.00    +0.000 A 
ATOM     30  N   UNL     1       1.787   1.978  19.802  0.00  0.00    +0.000 NA
ATOM     31  C   UNL     1       2.662   2.761  20.464  0.00  0.00    +0.000 A 
ATOM     32  C   UNL     1       2.954   4.067  20.105  0.00  0.00    +0.000 A 
ENDBRANCH   4  27
TORSDOF 5
ENDMDL
