MODEL 1
REMARK VINA RESULT:      -7.3      0.000      0.000
REMARK  Name = 
REMARK  5 active torsions:
REMARK  status: ('A' for Active; 'I' for Inactive)
REMARK    1  A    between atoms: N_6  and  C_7
REMARK    2  A    between atoms: C_9  and  C_10
REMARK    3  A    between atoms: C_10  and  O_11
REMARK    4  A    between atoms: C_12  and  O_13
REMARK    5  A    between atoms: C_14  and  O_15
REMARK                            x       y       z     vdW  Elec       q    Type
REMARK                         _______ _______ _______ _____ _____    ______ ____
ROOT
ATOM      1  C   UNL     1       5.180   3.954  19.091  0.00  0.00    +0.000 C 
ATOM      2  S   UNL     1       3.882   5.119  19.684  0.00  0.00    +0.000 S 
ATOM      3  C   UNL     1       2.454   4.165  19.051  0.00  0.00    +0.000 C 
ATOM      4  C   UNL     1       3.028   2.847  18.519  0.00  0.00    +0.000 C 
ATOM      5  C   UNL     1       4.400   2.619  19.170  0.00  0.00    +0.000 C 
ENDROOT
BRANCH   1  11
ATOM      6  O   UNL     1       7.580   5.247  14.305  0.00  0.00    +0.000 OA
ATOM      7  C   UNL     1       6.993   5.019  15.354  0.00  0.00    +0.000 A 
ATOM      8  N   UNL     1       7.553   5.264  16.579  0.00  0.00    +0.000 N 
ATOM      9  C   UNL     1       7.068   4.841  17.792  0.00  0.00    +0.000 A 
ATOM     10  O   UNL     1       7.799   4.875  18.778  0.00  0.00    +0.000 OA
ATOM     11  N   UNL     1       5.742   4.381  17.796  0.00  0.00    +0.000 N 
ATOM     12  C   UNL     1       5.092   4.143  16.591  0.00  0.00    +0.000 A 
ATOM     13  C   UNL     1       5.650   4.424  15.413  0.00  0.00    +0.000 A 
ATOM     14  F   UNL     1       5.041   4.147  14.246  0.00  0.00    +0.000 F 
ATOM     15  H   UNL     1       8.502   5.610  16.576  0.00  0.00    +0.000 HD
ENDBRANCH   1  11
BRANCH   4  16
ATOM     16  O   UNL     1       2.155   1.760  18.847  0.00  0.00    +0.000 OA
ATOM     17  H   UNL     1       1.737   1.474  18.009  0.00  0.00    +0.000 HD
ENDBRANCH   4  16
BRANCH   5  18
ATOM     18  O   UNL     1       4.198   2.190  20.537  0.00  0.00    +0.000 OA
ATOM     19  H   UNL     1       4.833   2.673  21.098  0.00  0.00    +0.000 HD
ENDBRANCH   5  18
BRANCH   3  20
ATOM     20  C   UNL     1       1.749   4.978  17.963  0.00  0.00    +0.000 C 
BRANCH  20  21
ATOM     21  O   UNL     1       0.997   4.136  17.087  0.00  0.00    +0.000 OA
ATOM     22  H   UNL     1       0.159   3.947  17.550  0.00  0.00    +0.000 HD
ENDBRANCH  20  21
ENDBRANCH   3  20
TORSDOF 5
ENDMDL
MODEL 2
REMARK VINA RESULT:      -7.1      1.263      1.445
REMARK  Name = 
REMARK  5 active torsions:
REMARK  status: ('A' for Active; 'I' for Inactive)
REMARK    1  A    between atoms: N_6  and  C_7
REMARK    2  A    between atoms: C_9  and  C_10
REMARK    3  A    between atoms: C_10  and  O_11
REMARK    4  A    between atoms: C_12  and  O_13
REMARK    5  A    between atoms: C_14  and  O_15
REMARK                            x       y       z     vdW  Elec       q    Type
REMARK                         _______ _______ _______ _____ _____    ______ ____
ROOT
ATOM      1  C   UNL     1       4.798   3.746  18.355  0.00  0.00    +0.000 C 
ATOM      2  S   UNL     1       4.263   5.126  19.452  0.00  0.00    +0.000 S 
ATOM      3  C   UNL     1       2.568   5.272  18.779  0.00  0.00    +0.000 C 
ATOM      4  C   UNL     1       2.401   4.105  17.799  0.00  0.00    +0.000 C 
ATOM      5  C   UNL     1       3.442   3.030  18.144  0.00  0.00    +0.000 C 
ENDROOT
BRANCH   1  11
ATOM      6  O   UNL     1       7.836   5.279  14.024  0.00  0.00    +0.000 OA
ATOM      7  C   UNL     1       7.112   5.001  14.971  0.00  0.00    +0.000 A 
ATOM      8  N   UNL     1       7.528   5.110  16.271  0.00  0.00    +0.000 N 
ATOM      9  C   UNL     1       6.875   4.620  17.375  0.00  0.00    +0.000 A 
ATOM     10  O   UNL     1       7.479   4.528  18.440  0.00  0.00    +0.000 OA
ATOM     11  N   UNL     1       5.537   4.243  17.180  0.00  0.00    +0.000 N 
ATOM     12  C   UNL     1       5.031   4.145  15.890  0.00  0.00    +0.000 A 
ATOM     13  C   UNL     1       5.744   4.487  14.816  0.00  0.00    +0.000 A 
ATOM     14  F   UNL     1       5.271   4.345  13.565  0.00  0.00    +0.000 F 
ATOM     15  H   UNL     1       8.486   5.396  16.412  0.00  0.00    +0.000 HD
ENDBRANCH   1  11
BRANCH   4  16
ATOM     16  O   UNL     1       1.085   3.551  17.911  0.00  0.00    +0.000 OA
ATOM     17  H   UNL     1       0.667   3.976  18.689  0.00  0.00    +0.000 HD
ENDBRANCH   4  16
BRANCH   5  18
ATOM     18  O   UNL     1       3.008   2.331  19.335  0.00  0.00    +0.000 OA
ATOM     19  H   UNL     1       2.054   2.502  19.451  0.00  0.00    +0.000 HD
ENDBRANCH   5  18
BRANCH   3  20
ATOM     20  C   UNL     1       2.412   6.634  18.099  0.00  0.00    +0.000 C 
BRANCH  20  21
ATOM     21  O   UNL     1       3.671   7.141  17.654  0.00  0.00    +0.000 OA
ATOM     22  H   UNL     1       3.509   8.065  17.386  0.00  0.00    +0.000 HD
ENDBRANCH  20  21
ENDBRANCH   3  20
TORSDOF 5
ENDMDL
MODEL 3
REMARK VINA RESULT:      -6.7      2.479      3.501
REMARK  Name = 
REMARK  5 active torsions:
REMARK  status: ('A' for Active; 'I' for Inactive)
REMARK    1  A    between atoms: N_6  and  C_7
REMARK    2  A    between atoms: C_9  and  C_10
REMARK    3  A    between atoms: C_10  and  O_11
REMARK    4  A    between atoms: C_12  and  O_13
REMARK    5  A    between atoms: C_14  and  O_15
REMARK                            x       y       z     vdW  Elec       q    Type
REMARK                         _______ _______ _______ _____ _____    ______ ____
ROOT
ATOM      1  C   UNL     1       1.873   4.458  18.552  0.00  0.00    +0.000 C 
ATOM      2  S   UNL     1       1.781   2.673  18.102  0.00  0.00    +0.000 S 
ATOM      3  C   UNL     1       2.674   2.051  19.573  0.00  0.00    +0.000 C 
ATOM      4  C   UNL     1       2.888   3.265  20.483  0.00  0.00    +0.000 C 
ATOM      5  C   UNL     1       1.868   4.346  20.096  0.00  0.00    +0.000 C 
ENDROOT
BRANCH   1  11
ATOM      6  O   UNL     1       6.243   7.067  16.447  0.00  0.00    +0.000 OA
ATOM      7  C   UNL     1       5.248   6.471  16.838  0.00  0.00    +0.000 A 
ATOM      8  N   UNL     1       4.207   7.107  17.459  0.00  0.00    +0.000 N 
ATOM      9  C   UNL     1       3.167   6.502  18.121  0.00  0.00    +0.000 A 
ATOM     10  O   UNL     1       2.460   7.170  18.871  0.00  0.00    +0.000 OA
ATOM     11  N   UNL     1       3.004   5.128  17.884  0.00  0.00    +0.000 N 
ATOM     12  C   UNL     1       4.003   4.420  17.227  0.00  0.00    +0.000 A 
ATOM     13  C   UNL     1       5.085   5.015  16.723  0.00  0.00    +0.000 A 
ATOM     14  F   UNL     1       6.074   4.322  16.132  0.00  0.00    +0.000 F 
ATOM     15  H   UNL     1       4.317   8.098  17.616  0.00  0.00    +0.000 HD
ENDBRANCH   1  11
BRANCH   4  16
ATOM     16  O   UNL     1       2.697   2.894  21.854  0.00  0.00    +0.000 OA
ATOM     17  H   UNL     1       1.733   2.771  21.977  0.00  0.00    +0.000 HD
ENDBRANCH   4  16
BRANCH   5  18
ATOM     18  O   UNL     1       0.570   3.962  20.608  0.00  0.00    +0.000 OA
ATOM     19  H   UNL     1       0.263   4.671  21.204  0.00  0.00    +0.000 HD
ENDBRANCH   5  18
BRANCH   3  20
ATOM     20  C   UNL     1       3.992   1.413  19.128  0.00  0.00    +0.000 C 
BRANCH  20  21
ATOM     21  O   UNL     1       5.080   1.838  19.950  0.00  0.00    +0.000 OA
ATOM     22  H   UNL     1       4.769   1.759  20.871  0.00  0.00    +0.000 HD
ENDBRANCH  20  21
ENDBRANCH   3  20
TORSDOF 5
ENDMDL
MODEL 4
REMARK VINA RESULT:      -6.7      2.437      3.168
REMARK  Name = 
REMARK  5 active torsions:
REMARK  status: ('A' for Active; 'I' for Inactive)
REMARK    1  A    between atoms: N_6  and  C_7
REMARK    2  A    between atoms: C_9  and  C_10
REMARK    3  A    between atoms: C_10  and  O_11
REMARK    4  A    between atoms: C_12  and  O_13
REMARK    5  A    between atoms: C_14  and  O_15
REMARK                            x       y       z     vdW  Elec       q    Type
REMARK                         _______ _______ _______ _____ _____    ______ ____
ROOT
ATOM      1  C   UNL     1       2.830   5.298  18.799  0.00  0.00    +0.000 C 
ATOM      2  S   UNL     1       1.857   3.995  17.932  0.00  0.00    +0.000 S 
ATOM      3  C   UNL     1       2.402   2.604  18.989  0.00  0.00    +0.000 C 
ATOM      4  C   UNL     1       3.225   3.229  20.120  0.00  0.00    +0.000 C 
ATOM      5  C   UNL     1       2.845   4.713  20.232  0.00  0.00    +0.000 C 
ENDROOT
BRANCH   1  11
ATOM      6  O   UNL     1       7.661   6.626  16.510  0.00  0.00    +0.000 OA
ATOM      7  C   UNL     1       6.583   6.268  16.967  0.00  0.00    +0.000 A 
ATOM      8  N   UNL     1       5.437   7.001  16.809  0.00  0.00    +0.000 N 
ATOM      9  C   UNL     1       4.248   6.796  17.464  0.00  0.00    +0.000 A 
ATOM     10  O   UNL     1       3.395   7.680  17.454  0.00  0.00    +0.000 OA
ATOM     11  N   UNL     1       4.111   5.562  18.118  0.00  0.00    +0.000 N 
ATOM     12  C   UNL     1       5.222   4.745  18.285  0.00  0.00    +0.000 A 
ATOM     13  C   UNL     1       6.412   5.044  17.763  0.00  0.00    +0.000 A 
ATOM     14  F   UNL     1       7.499   4.278  17.968  0.00  0.00    +0.000 F 
ATOM     15  H   UNL     1       5.533   7.882  16.326  0.00  0.00    +0.000 HD
ENDBRANCH   1  11
BRANCH   4  16
ATOM     16  O   UNL     1       2.943   2.568  21.359  0.00  0.00    +0.000 OA
ATOM     17  H   UNL     1       3.211   1.633  21.245  0.00  0.00    +0.000 HD
ENDBRANCH   4  16
BRANCH   5  18
ATOM     18  O   UNL     1       1.551   4.813  20.872  0.00  0.00    +0.000 OA
ATOM     19  H   UNL     1       1.174   5.685  20.648  0.00  0.00    +0.000 HD
ENDBRANCH   5  18
BRANCH   3  20
ATOM     20  C   UNL     1       3.218   1.622  18.145  0.00  0.00    +0.000 C 
BRANCH  20  21
ATOM     21  O   UNL     1       4.373   1.164  18.850  0.00  0.00    +0.000 OA
ATOM     22  H   UNL     1       4.987   0.827  18.171  0.00  0.00    +0.000 HD
ENDBRANCH  20  21
ENDBRANCH   3  20
TORSDOF 5
ENDMDL
MODEL 5
REMARK VINA RESULT:      -6.7      3.185      5.208
REMARK  Name = 
REMARK  5 active torsions:
REMARK  status: ('A' for Active; 'I' for Inactive)
REMARK    1  A    between atoms: N_6  and  C_7
REMARK    2  A    between atoms: C_9  and  C_10
REMARK    3  A    between atoms: C_10  and  O_11
REMARK    4  A    between atoms: C_12  and  O_13
REMARK    5  A    between atoms: C_14  and  O_15
REMARK                            x       y       z     vdW  Elec       q    Type
REMARK                         _______ _______ _______ _____ _____    ______ ____
ROOT
ATOM      1  C   UNL     1       3.311   4.130  18.910  0.00  0.00    +0.000 C 
ATOM      2  S   UNL     1       3.441   3.816  17.099  0.00  0.00    +0.000 S 
ATOM      3  C   UNL     1       5.180   4.358  16.927  0.00  0.00    +0.000 C 
ATOM      4  C   UNL     1       5.682   4.627  18.350  0.00  0.00    +0.000 C 
ATOM      5  C   UNL     1       4.777   3.871  19.333  0.00  0.00    +0.000 C 
ENDROOT
BRANCH   1  11
ATOM      6  O   UNL     1       1.344   9.094  20.262  0.00  0.00    +0.000 OA
ATOM      7  C   UNL     1       1.722   7.986  19.906  0.00  0.00    +0.000 A 
ATOM      8  N   UNL     1       1.621   6.881  20.709  0.00  0.00    +0.000 N 
ATOM      9  C   UNL     1       2.211   5.661  20.486  0.00  0.00    +0.000 A 
ATOM     10  O   UNL     1       2.284   4.851  21.406  0.00  0.00    +0.000 OA
ATOM     11  N   UNL     1       2.705   5.445  19.190  0.00  0.00    +0.000 N 
ATOM     12  C   UNL     1       2.803   6.511  18.304  0.00  0.00    +0.000 A 
ATOM     13  C   UNL     1       2.356   7.731  18.605  0.00  0.00    +0.000 A 
ATOM     14  F   UNL     1       2.497   8.773  17.766  0.00  0.00    +0.000 F 
ATOM     15  H   UNL     1       1.252   7.034  21.636  0.00  0.00    +0.000 HD
ENDBRANCH   1  11
BRANCH   4  16
ATOM     16  O   UNL     1       7.032   4.169  18.492  0.00  0.00    +0.000 OA
ATOM     17  H   UNL     1       7.605   4.959  18.412  0.00  0.00    +0.000 HD
ENDBRANCH   4  16
BRANCH   5  18
ATOM     18  O   UNL     1       5.114   2.464  19.285  0.00  0.00    +0.000 OA
ATOM     19  H   UNL     1       5.914   2.368  18.735  0.00  0.00    +0.000 HD
ENDBRANCH   5  18
BRANCH   3  20
ATOM     20  C   UNL     1       5.232   5.605  16.042  0.00  0.00    +0.000 C 
BRANCH  20  21
ATOM     21  O   UNL     1       6.437   6.343  16.252  0.00  0.00    +0.000 OA
ATOM     22  H   UNL     1       7.038   6.090  15.527  0.00  0.00    +0.000 HD
ENDBRANCH  20  21
ENDBRANCH   3  20
TORSDOF 5
ENDMDL
MODEL 6
REMARK VINA RESULT:      -6.6      1.699      2.094
REMARK  Name = 
REMARK  5 active torsions:
REMARK  status: ('A' for Active; 'I' for Inactive)
REMARK    1  A    between atoms: N_6  and  C_7
REMARK    2  A    between atoms: C_9  and  C_10
REMARK    3  A    between atoms: C_10  and  O_11
REMARK    4  A    between atoms: C_12  and  O_13
REMARK    5  A    between atoms: C_14  and  O_15
REMARK                            x       y       z     vdW  Elec       q    Type
REMARK                         _______ _______ _______ _____ _____    ______ ____
ROOT
ATOM      1  C   UNL     1       3.504   5.505  18.911  0.00  0.00    +0.000 C 
ATOM      2  S   UNL     1       1.940   4.840  18.199  0.00  0.00    +0.000 S 
ATOM      3  C   UNL     1       2.028   3.205  19.016  0.00  0.00    +0.000 C 
ATOM      4  C   UNL     1       3.222   3.275  19.974  0.00  0.00    +0.000 C 
ATOM      5  C   UNL     1       3.524   4.752  20.264  0.00  0.00    +0.000 C 
ENDROOT
BRANCH   1  11
ATOM      6  O   UNL     1       7.850   4.547  15.667  0.00  0.00    +0.000 OA
ATOM      7  C   UNL     1       6.868   4.824  16.341  0.00  0.00    +0.000 A 
ATOM      8  N   UNL     1       6.964   5.265  17.634  0.00  0.00    +0.000 N 
ATOM      9  C   UNL     1       5.928   5.386  18.528  0.00  0.00    +0.000 A 
ATOM     10  O   UNL     1       6.177   5.514  19.723  0.00  0.00    +0.000 OA
ATOM     11  N   UNL     1       4.636   5.340  17.981  0.00  0.00    +0.000 N 
ATOM     12  C   UNL     1       4.461   4.937  16.663  0.00  0.00    +0.000 A 
ATOM     13  C   UNL     1       5.489   4.677  15.854  0.00  0.00    +0.000 A 
ATOM     14  F   UNL     1       5.317   4.238  14.594  0.00  0.00    +0.000 F 
ATOM     15  H   UNL     1       7.894   5.313  18.023  0.00  0.00    +0.000 HD
ENDBRANCH   1  11
BRANCH   4  16
ATOM     16  O   UNL     1       2.911   2.601  21.199  0.00  0.00    +0.000 OA
ATOM     17  H   UNL     1       2.541   1.728  20.952  0.00  0.00    +0.000 HD
ENDBRANCH   4  16
BRANCH   5  18
ATOM     18  O   UNL     1       2.525   5.259  21.181  0.00  0.00    +0.000 OA
ATOM     19  H   UNL     1       2.867   6.088  21.565  0.00  0.00    +0.000 HD
ENDBRANCH   5  18
BRANCH   3  20
ATOM     20  C   UNL     1       2.196   2.120  17.950  0.00  0.00    +0.000 C 
BRANCH  20  21
ATOM     21  O   UNL     1       3.199   1.174  18.323  0.00  0.00    +0.000 OA
ATOM     22  H   UNL     1       3.150   0.455  17.665  0.00  0.00    +0.000 HD
ENDBRANCH  20  21
ENDBRANCH   3  20
TORSDOF 5
ENDMDL
MODEL 7
REMARK VINA RESULT:      -6.6      2.452      3.669
REMARK  Name = 
REMARK  5 active torsions:
REMARK  status: ('A' for Active; 'I' for Inactive)
REMARK    1  A    between atoms: N_6  and  C_7
REMARK    2  A    between atoms: C_9  and  C_10
REMARK    3  A    between atoms: C_10  and  O_11
REMARK    4  A    between atoms: C_12  and  O_13
REMARK    5  A    between atoms: C_14  and  O_15
REMARK                            x       y       z     vdW  Elec       q    Type
REMARK                         _______ _______ _______ _____ _____    ______ ____
ROOT
ATOM      1  C   UNL     1       3.813   4.508  17.240  0.00  0.00    +0.000 C 
ATOM      2  S   UNL     1       3.878   2.724  17.698  0.00  0.00    +0.000 S 
ATOM      3  C   UNL     1       3.079   2.908  19.333  0.00  0.00    +0.000 C 
ATOM      4  C   UNL     1       2.623   4.369  19.419  0.00  0.00    +0.000 C 
ATOM      5  C   UNL     1       2.528   4.931  17.992  0.00  0.00    +0.000 C 
ENDROOT
BRANCH   1  11
ATOM      6  O   UNL     1       8.327   7.428  18.436  0.00  0.00    +0.000 OA
ATOM      7  C   UNL     1       7.372   6.714  18.160  0.00  0.00    +0.000 A 
ATOM      8  N   UNL     1       6.645   6.871  17.010  0.00  0.00    +0.000 N 
ATOM      9  C   UNL     1       5.442   6.273  16.724  0.00  0.00    +0.000 A 
ATOM     10  O   UNL     1       4.759   6.708  15.801  0.00  0.00    +0.000 OA
ATOM     11  N   UNL     1       5.082   5.193  17.545  0.00  0.00    +0.000 N 
ATOM     12  C   UNL     1       5.796   4.948  18.711  0.00  0.00    +0.000 A 
ATOM     13  C   UNL     1       6.881   5.648  19.044  0.00  0.00    +0.000 A 
ATOM     14  F   UNL     1       7.541   5.443  20.198  0.00  0.00    +0.000 F 
ATOM     15  H   UNL     1       6.913   7.638  16.412  0.00  0.00    +0.000 HD
ENDBRANCH   1  11
BRANCH   4  16
ATOM     16  O   UNL     1       1.340   4.449  20.051  0.00  0.00    +0.000 OA
ATOM     17  H   UNL     1       0.972   5.329  19.827  0.00  0.00    +0.000 HD
ENDBRANCH   4  16
BRANCH   5  18
ATOM     18  O   UNL     1       1.335   4.404  17.365  0.00  0.00    +0.000 OA
ATOM     19  H   UNL     1       1.096   3.578  17.826  0.00  0.00    +0.000 HD
ENDBRANCH   5  18
BRANCH   3  20
ATOM     20  C   UNL     1       4.084   2.544  20.428  0.00  0.00    +0.000 C 
BRANCH  20  21
ATOM     21  O   UNL     1       5.103   1.674  19.932  0.00  0.00    +0.000 OA
ATOM     22  H   UNL     1       4.695   0.790  19.871  0.00  0.00    +0.000 HD
ENDBRANCH  20  21
ENDBRANCH   3  20
TORSDOF 5
ENDMDL
MODEL 8
REMARK VINA RESULT:      -6.6      2.534      5.552
REMARK  Name = 
REMARK  5 active torsions:
REMARK  status: ('A' for Active; 'I' for Inactive)
REMARK    1  A    between atoms: N_6  and  C_7
REMARK    2  A    between atoms: C_9  and  C_10
REMARK    3  A    between atoms: C_10  and  O_11
REMARK    4  A    between atoms: C_12  and  O_13
REMARK    5  A    between atoms: C_14  and  O_15
REMARK                            x       y       z     vdW  Elec       q    Type
REMARK                         _______ _______ _______ _____ _____    ______ ____
ROOT
ATOM      1  C   UNL     1       4.364   4.963  17.275  0.00  0.00    +0.000 C 
ATOM      2  S   UNL     1       5.109   6.632  17.513  0.00  0.00    +0.000 S 
ATOM      3  C   UNL     1       6.853   6.090  17.403  0.00  0.00    +0.000 C 
ATOM      4  C   UNL     1       6.812   4.608  17.015  0.00  0.00    +0.000 C 
ATOM      5  C   UNL     1       5.445   4.312  16.379  0.00  0.00    +0.000 C 
ENDROOT
BRANCH   1  11
ATOM      6  O   UNL     1       2.726   2.487  21.914  0.00  0.00    +0.000 OA
ATOM      7  C   UNL     1       3.159   3.058  20.922  0.00  0.00    +0.000 A 
ATOM      8  N   UNL     1       2.603   4.211  20.436  0.00  0.00    +0.000 N 
ATOM      9  C   UNL     1       2.875   4.793  19.222  0.00  0.00    +0.000 A 
ATOM     10  O   UNL     1       2.115   5.652  18.783  0.00  0.00    +0.000 OA
ATOM     11  N   UNL     1       4.026   4.332  18.564  0.00  0.00    +0.000 N 
ATOM     12  C   UNL     1       4.667   3.187  19.020  0.00  0.00    +0.000 A 
ATOM     13  C   UNL     1       4.286   2.549  20.128  0.00  0.00    +0.000 A 
ATOM     14  F   UNL     1       4.875   1.413  20.540  0.00  0.00    +0.000 F 
ATOM     15  H   UNL     1       1.785   4.552  20.919  0.00  0.00    +0.000 HD
ENDBRANCH   1  11
BRANCH   4  16
ATOM     16  O   UNL     1       7.851   4.315  16.074  0.00  0.00    +0.000 OA
ATOM     17  H   UNL     1       8.624   4.858  16.333  0.00  0.00    +0.000 HD
ENDBRANCH   4  16
BRANCH   5  18
ATOM     18  O   UNL     1       5.433   4.852  15.036  0.00  0.00    +0.000 OA
ATOM     19  H   UNL     1       5.643   4.125  14.420  0.00  0.00    +0.000 HD
ENDBRANCH   5  18
BRANCH   3  20
ATOM     20  C   UNL     1       7.537   6.322  18.752  0.00  0.00    +0.000 C 
BRANCH  20  21
ATOM     21  O   UNL     1       7.113   5.365  19.724  0.00  0.00    +0.000 OA
ATOM     22  H   UNL     1       7.570   4.533  19.500  0.00  0.00    +0.000 HD
ENDBRANCH  20  21
ENDBRANCH   3  20
TORSDOF 5
ENDMDL
MODEL 9
REMARK VINA RESULT:      -6.5      2.282      5.402
REMARK  Name = 
REMARK  5 active torsions:
REMARK  status: ('A' for Active; 'I' for Inactive)
REMARK    1  A    between atoms: N_6  and  C_7
REMARK    2  A    between atoms: C_9  and  C_10
REMARK    3  A    between atoms: C_10  and  O_11
REMARK    4  A    between atoms: C_12  and  O_13
REMARK    5  A    between atoms: C_14  and  O_15
REMARK                            x       y       z     vdW  Elec       q    Type
REMARK                         _______ _______ _______ _____ _____    ______ ____
ROOT
ATOM      1  C   UNL     1       4.436   5.534  16.812  0.00  0.00    +0.000 C 
ATOM      2  S   UNL     1       5.452   6.816  17.660  0.00  0.00    +0.000 S 
ATOM      3  C   UNL     1       7.053   5.947  17.489  0.00  0.00    +0.000 C 
ATOM      4  C   UNL     1       6.778   4.721  16.612  0.00  0.00    +0.000 C 
ATOM      5  C   UNL     1       5.485   4.972  15.822  0.00  0.00    +0.000 C 
ENDROOT
BRANCH   1  11
ATOM      6  O   UNL     1       1.691   2.178  20.210  0.00  0.00    +0.000 OA
ATOM      7  C   UNL     1       2.368   2.910  19.499  0.00  0.00    +0.000 A 
ATOM      8  N   UNL     1       2.184   4.266  19.454  0.00  0.00    +0.000 N 
ATOM      9  C   UNL     1       2.734   5.128  18.538  0.00  0.00    +0.000 A 
ATOM     10  O   UNL     1       2.274   6.261  18.425  0.00  0.00    +0.000 OA
ATOM     11  N   UNL     1       3.800   4.620  17.779  0.00  0.00    +0.000 N 
ATOM     12  C   UNL     1       4.073   3.258  17.802  0.00  0.00    +0.000 A 
ATOM     13  C   UNL     1       3.415   2.412  18.596  0.00  0.00    +0.000 A 
ATOM     14  F   UNL     1       3.645   1.087  18.580  0.00  0.00    +0.000 F 
ATOM     15  H   UNL     1       1.427   4.634  20.011  0.00  0.00    +0.000 HD
ENDBRANCH   1  11
BRANCH   4  16
ATOM     16  O   UNL     1       7.863   4.512  15.700  0.00  0.00    +0.000 OA
ATOM     17  H   UNL     1       7.468   4.176  14.869  0.00  0.00    +0.000 HD
ENDBRANCH   4  16
BRANCH   5  18
ATOM     18  O   UNL     1       5.770   5.901  14.750  0.00  0.00    +0.000 OA
ATOM     19  H   UNL     1       5.275   6.723  14.928  0.00  0.00    +0.000 HD
ENDBRANCH   5  18
BRANCH   3  20
ATOM     20  C   UNL     1       7.570   5.569  18.878  0.00  0.00    +0.000 C 
BRANCH  20  21
ATOM     21  O   UNL     1       6.502   5.182  19.745  0.00  0.00    +0.000 OA
ATOM     22  H   UNL     1       6.881   4.531  20.365  0.00  0.00    +0.000 HD
ENDBRANCH  20  21
ENDBRANCH   3  20
TORSDOF 5
ENDMDL
