MODEL 1
REMARK VINA RESULT:      -7.2      0.000      0.000
REMARK  Name = 
REMARK  6 active torsions:
REMARK  status: ('A' for Active; 'I' for Inactive)
REMARK    1  A    between atoms: C_1  and  C_2
REMARK    2  A    between atoms: C_2  and  C_3
REMARK    3  A    between atoms: C_6  and  S_7
REMARK    4  A    between atoms: S_7  and  C_8
REMARK    5  A    between atoms: N_12  and  O_13
REMARK    6  A    between atoms: N_16  and  C_17
REMARK                            x       y       z     vdW  Elec       q    Type
REMARK                         _______ _______ _______ _____ _____    ______ ____
ROOT
ATOM      1  C   UNL     1       6.204   4.977  17.055  0.00  0.00    +0.000 A 
ATOM      2  C   UNL     1       6.993   4.507  18.029  0.00  0.00    +0.000 A 
ATOM      3  C   UNL     1       7.853   5.424  18.779  0.00  0.00    +0.000 A 
ATOM      4  O   UNL     1       8.543   5.015  19.711  0.00  0.00    +0.000 OA
ATOM      5  N   UNL     1       7.820   6.727  18.373  0.00  0.00    +0.000 N 
ATOM      6  C   UNL     1       7.053   7.260  17.352  0.00  0.00    +0.000 A 
ATOM      7  O   UNL     1       7.087   8.452  17.040  0.00  0.00    +0.000 OA
ATOM      8  N   UNL     1       6.224   6.326  16.694  0.00  0.00    +0.000 N 
ATOM      9  C   UNL     1       5.407   6.839  15.598  0.00  0.00    +0.000 C 
ENDROOT
BRANCH   5  10
ATOM     10  O   UNL     1       8.638   7.621  19.102  0.00  0.00    +0.000 OA
ATOM     11  H   UNL     1       8.127   8.454  19.046  0.00  0.00    +0.000 HD
ENDBRANCH   5  10
BRANCH   1  12
ATOM     12  S   UNL     1       5.203   3.836  16.186  0.00  0.00    +0.000 S 
BRANCH  12  16
ATOM     13  C   UNL     1       1.826   3.259  19.280  0.00  0.00    +0.000 A 
ATOM     14  C   UNL     1       2.578   2.171  18.818  0.00  0.00    +0.000 A 
ATOM     15  C   UNL     1       3.584   2.351  17.865  0.00  0.00    +0.000 A 
ATOM     16  C   UNL     1       3.856   3.619  17.346  0.00  0.00    +0.000 A 
ATOM     17  C   UNL     1       3.117   4.712  17.815  0.00  0.00    +0.000 A 
ATOM     18  C   UNL     1       2.111   4.534  18.775  0.00  0.00    +0.000 A 
BRANCH  13  20
ATOM     19  C   UNL     1       1.316   2.758  21.698  0.00  0.00    +0.000 C 
ATOM     20  C   UNL     1       0.748   3.059  20.318  0.00  0.00    +0.000 C 
ENDBRANCH  13  20
ENDBRANCH  12  16
ENDBRANCH   1  12
TORSDOF 4
ENDMDL
MODEL 2
REMARK VINA RESULT:      -7.0      3.537      6.150
REMARK  Name = 
REMARK  6 active torsions:
REMARK  status: ('A' for Active; 'I' for Inactive)
REMARK    1  A    between atoms: C_1  and  C_2
REMARK    2  A    between atoms: C_2  and  C_3
REMARK    3  A    between atoms: C_6  and  S_7
REMARK    4  A    between atoms: S_7  and  C_8
REMARK    5  A    between atoms: N_12  and  O_13
REMARK    6  A    between atoms: N_16  and  C_17
REMARK                            x       y       z     vdW  Elec       q    Type
REMARK                         _______ _______ _______ _____ _____    ______ ____
ROOT
ATOM      1  C   UNL     1       3.667   3.391  18.392  0.00  0.00    +0.000 A 
ATOM      2  C   UNL     1       4.395   2.700  19.278  0.00  0.00    +0.000 A 
ATOM      3  C   UNL     1       3.858   2.431  20.613  0.00  0.00    +0.000 A 
ATOM      4  O   UNL     1       4.493   1.752  21.419  0.00  0.00    +0.000 OA
ATOM      5  N   UNL     1       2.633   2.972  20.875  0.00  0.00    +0.000 N 
ATOM      6  C   UNL     1       1.853   3.722  20.011  0.00  0.00    +0.000 A 
ATOM      7  O   UNL     1       0.756   4.184  20.328  0.00  0.00    +0.000 OA
ATOM      8  N   UNL     1       2.418   3.915  18.732  0.00  0.00    +0.000 N 
ATOM      9  C   UNL     1       1.639   4.715  17.790  0.00  0.00    +0.000 C 
ENDROOT
BRANCH   5  10
ATOM     10  O   UNL     1       2.100   2.703  22.158  0.00  0.00    +0.000 OA
ATOM     11  H   UNL     1       1.678   3.556  22.384  0.00  0.00    +0.000 HD
ENDBRANCH   5  10
BRANCH   1  12
ATOM     12  S   UNL     1       4.361   3.692  16.815  0.00  0.00    +0.000 S 
BRANCH  12  16
ATOM     13  C   UNL     1       7.442   6.933  17.959  0.00  0.00    +0.000 A 
ATOM     14  C   UNL     1       6.275   7.260  17.256  0.00  0.00    +0.000 A 
ATOM     15  C   UNL     1       5.358   6.270  16.894  0.00  0.00    +0.000 A 
ATOM     16  C   UNL     1       5.590   4.931  17.219  0.00  0.00    +0.000 A 
ATOM     17  C   UNL     1       6.747   4.601  17.935  0.00  0.00    +0.000 A 
ATOM     18  C   UNL     1       7.665   5.595  18.303  0.00  0.00    +0.000 A 
BRANCH  13  20
ATOM     19  C   UNL     1       8.039   9.379  17.814  0.00  0.00    +0.000 C 
ATOM     20  C   UNL     1       8.422   8.010  18.357  0.00  0.00    +0.000 C 
ENDBRANCH  13  20
ENDBRANCH  12  16
ENDBRANCH   1  12
TORSDOF 4
ENDMDL
MODEL 3
REMARK VINA RESULT:      -7.0      0.140      1.107
REMARK  Name = 
REMARK  6 active torsions:
REMARK  status: ('A' for Active; 'I' for Inactive)
REMARK    1  A    between atoms: C_1  and  C_2
REMARK    2  A    between atoms: C_2  and  C_3
REMARK    3  A    between atoms: C_6  and  S_7
REMARK    4  A    between atoms: S_7  and  C_8
REMARK    5  A    between atoms: N_12  and  O_13
REMARK    6  A    between atoms: N_16  and  C_17
REMARK                            x       y       z     vdW  Elec       q    Type
REMARK                         _______ _______ _______ _____ _____    ______ ____
ROOT
ATOM      1  C   UNL     1       6.151   5.052  17.092  0.00  0.00    +0.000 A 
ATOM      2  C   UNL     1       6.945   4.572  18.058  0.00  0.00    +0.000 A 
ATOM      3  C   UNL     1       7.840   5.476  18.783  0.00  0.00    +0.000 A 
ATOM      4  O   UNL     1       8.536   5.059  19.709  0.00  0.00    +0.000 OA
ATOM      5  N   UNL     1       7.832   6.775  18.365  0.00  0.00    +0.000 N 
ATOM      6  C   UNL     1       7.060   7.316  17.352  0.00  0.00    +0.000 A 
ATOM      7  O   UNL     1       7.116   8.504  17.027  0.00  0.00    +0.000 OA
ATOM      8  N   UNL     1       6.197   6.396  16.718  0.00  0.00    +0.000 N 
ATOM      9  C   UNL     1       5.374   6.917  15.630  0.00  0.00    +0.000 C 
ENDROOT
BRANCH   5  10
ATOM     10  O   UNL     1       8.683   7.656  19.070  0.00  0.00    +0.000 OA
ATOM     11  H   UNL     1       8.529   7.387  19.998  0.00  0.00    +0.000 HD
ENDBRANCH   5  10
BRANCH   1  12
ATOM     12  S   UNL     1       5.108   3.926  16.252  0.00  0.00    +0.000 S 
BRANCH  12  16
ATOM     13  C   UNL     1       1.781   3.172  19.362  0.00  0.00    +0.000 A 
ATOM     14  C   UNL     1       1.925   4.421  18.744  0.00  0.00    +0.000 A 
ATOM     15  C   UNL     1       2.948   4.648  17.820  0.00  0.00    +0.000 A 
ATOM     16  C   UNL     1       3.855   3.635  17.498  0.00  0.00    +0.000 A 
ATOM     17  C   UNL     1       3.707   2.380  18.102  0.00  0.00    +0.000 A 
ATOM     18  C   UNL     1       2.678   2.151  19.025  0.00  0.00    +0.000 A 
BRANCH  13  20
ATOM     19  C   UNL     1       1.181   2.656  21.756  0.00  0.00    +0.000 C 
ATOM     20  C   UNL     1       0.666   2.931  20.351  0.00  0.00    +0.000 C 
ENDBRANCH  13  20
ENDBRANCH  12  16
ENDBRANCH   1  12
TORSDOF 4
ENDMDL
MODEL 4
REMARK VINA RESULT:      -7.0      4.632      5.903
REMARK  Name = 
REMARK  6 active torsions:
REMARK  status: ('A' for Active; 'I' for Inactive)
REMARK    1  A    between atoms: C_1  and  C_2
REMARK    2  A    between atoms: C_2  and  C_3
REMARK    3  A    between atoms: C_6  and  S_7
REMARK    4  A    between atoms: S_7  and  C_8
REMARK    5  A    between atoms: N_12  and  O_13
REMARK    6  A    between atoms: N_16  and  C_17
REMARK                            x       y       z     vdW  Elec       q    Type
REMARK                         _______ _______ _______ _____ _____    ______ ____
ROOT
ATOM      1  C   UNL     1       3.230   5.338  18.202  0.00  0.00    +0.000 A 
ATOM      2  C   UNL     1       2.074   4.763  17.847  0.00  0.00    +0.000 A 
ATOM      3  C   UNL     1       1.809   3.370  18.214  0.00  0.00    +0.000 A 
ATOM      4  O   UNL     1       0.730   2.845  17.942  0.00  0.00    +0.000 OA
ATOM      5  N   UNL     1       2.823   2.730  18.866  0.00  0.00    +0.000 N 
ATOM      6  C   UNL     1       4.048   3.264  19.225  0.00  0.00    +0.000 A 
ATOM      7  O   UNL     1       4.918   2.614  19.808  0.00  0.00    +0.000 OA
ATOM      8  N   UNL     1       4.223   4.619  18.870  0.00  0.00    +0.000 N 
ATOM      9  C   UNL     1       5.508   5.222  19.214  0.00  0.00    +0.000 C 
ENDROOT
BRANCH   5  10
ATOM     10  O   UNL     1       2.568   1.389  19.236  0.00  0.00    +0.000 OA
ATOM     11  H   UNL     1       1.595   1.386  19.333  0.00  0.00    +0.000 HD
ENDBRANCH   5  10
BRANCH   1  12
ATOM     12  S   UNL     1       3.498   7.002  17.730  0.00  0.00    +0.000 S 
BRANCH  12  16
ATOM     13  C   UNL     1       0.603   9.226  20.555  0.00  0.00    +0.000 A 
ATOM     14  C   UNL     1       1.274   8.069  20.972  0.00  0.00    +0.000 A 
ATOM     15  C   UNL     1       2.132   7.389  20.103  0.00  0.00    +0.000 A 
ATOM     16  C   UNL     1       2.333   7.845  18.797  0.00  0.00    +0.000 A 
ATOM     17  C   UNL     1       1.677   9.010  18.381  0.00  0.00    +0.000 A 
ATOM     18  C   UNL     1       0.819   9.695  19.253  0.00  0.00    +0.000 A 
BRANCH  13  20
ATOM     19  C   UNL     1      -0.204   9.456  22.933  0.00  0.00    +0.000 C 
ATOM     20  C   UNL     1      -0.313   9.963  21.502  0.00  0.00    +0.000 C 
ENDBRANCH  13  20
ENDBRANCH  12  16
ENDBRANCH   1  12
TORSDOF 4
ENDMDL
MODEL 5
REMARK VINA RESULT:      -6.9      3.523      4.589
REMARK  Name = 
REMARK  6 active torsions:
REMARK  status: ('A' for Active; 'I' for Inactive)
REMARK    1  A    between atoms: C_1  and  C_2
REMARK    2  A    between atoms: C_2  and  C_3
REMARK    3  A    between atoms: C_6  and  S_7
REMARK    4  A    between atoms: S_7  and  C_8
REMARK    5  A    between atoms: N_12  and  O_13
REMARK    6  A    between atoms: N_16  and  C_17
REMARK                            x       y       z     vdW  Elec       q    Type
REMARK                         _______ _______ _______ _____ _____    ______ ____
ROOT
ATOM      1  C   UNL     1       4.524   4.823  18.863  0.00  0.00    +0.000 A 
ATOM      2  C   UNL     1       5.661   5.340  19.345  0.00  0.00    +0.000 A 
ATOM      3  C   UNL     1       6.884   5.289  18.542  0.00  0.00    +0.000 A 
ATOM      4  O   UNL     1       7.923   5.808  18.949  0.00  0.00    +0.000 OA
ATOM      5  N   UNL     1       6.775   4.647  17.343  0.00  0.00    +0.000 N 
ATOM      6  C   UNL     1       5.637   4.065  16.812  0.00  0.00    +0.000 A 
ATOM      7  O   UNL     1       5.622   3.494  15.720  0.00  0.00    +0.000 OA
ATOM      8  N   UNL     1       4.488   4.180  17.625  0.00  0.00    +0.000 N 
ATOM      9  C   UNL     1       3.265   3.566  17.114  0.00  0.00    +0.000 C 
ENDROOT
BRANCH   5  10
ATOM     10  O   UNL     1       7.949   4.607  16.555  0.00  0.00    +0.000 OA
ATOM     11  H   UNL     1       8.368   3.777  16.858  0.00  0.00    +0.000 HD
ENDBRANCH   5  10
BRANCH   1  12
ATOM     12  S   UNL     1       3.094   4.903  19.869  0.00  0.00    +0.000 S 
BRANCH  12  16
ATOM     13  C   UNL     1       1.505   9.117  18.856  0.00  0.00    +0.000 A 
ATOM     14  C   UNL     1       2.148   8.334  17.888  0.00  0.00    +0.000 A 
ATOM     15  C   UNL     1       2.646   7.068  18.209  0.00  0.00    +0.000 A 
ATOM     16  C   UNL     1       2.520   6.559  19.504  0.00  0.00    +0.000 A 
ATOM     17  C   UNL     1       1.863   7.331  20.471  0.00  0.00    +0.000 A 
ATOM     18  C   UNL     1       1.360   8.599  20.149  0.00  0.00    +0.000 A 
BRANCH  13  20
ATOM     19  C   UNL     1      -0.558  10.544  18.602  0.00  0.00    +0.000 C 
ATOM     20  C   UNL     1       0.959  10.478  18.500  0.00  0.00    +0.000 C 
ENDBRANCH  13  20
ENDBRANCH  12  16
ENDBRANCH   1  12
TORSDOF 4
ENDMDL
MODEL 6
REMARK VINA RESULT:      -6.9      3.505      6.130
REMARK  Name = 
REMARK  6 active torsions:
REMARK  status: ('A' for Active; 'I' for Inactive)
REMARK    1  A    between atoms: C_1  and  C_2
REMARK    2  A    between atoms: C_2  and  C_3
REMARK    3  A    between atoms: C_6  and  S_7
REMARK    4  A    between atoms: S_7  and  C_8
REMARK    5  A    between atoms: N_12  and  O_13
REMARK    6  A    between atoms: N_16  and  C_17
REMARK                            x       y       z     vdW  Elec       q    Type
REMARK                         _______ _______ _______ _____ _____    ______ ____
ROOT
ATOM      1  C   UNL     1       3.793   3.441  18.365  0.00  0.00    +0.000 A 
ATOM      2  C   UNL     1       4.585   2.794  19.229  0.00  0.00    +0.000 A 
ATOM      3  C   UNL     1       4.067   2.402  20.542  0.00  0.00    +0.000 A 
ATOM      4  O   UNL     1       4.766   1.760  21.324  0.00  0.00    +0.000 OA
ATOM      5  N   UNL     1       2.787   2.790  20.810  0.00  0.00    +0.000 N 
ATOM      6  C   UNL     1       1.938   3.490  19.970  0.00  0.00    +0.000 A 
ATOM      7  O   UNL     1       0.792   3.812  20.292  0.00  0.00    +0.000 OA
ATOM      8  N   UNL     1       2.490   3.806  18.710  0.00  0.00    +0.000 N 
ATOM      9  C   UNL     1       1.637   4.560  17.795  0.00  0.00    +0.000 C 
ENDROOT
BRANCH   5  10
ATOM     10  O   UNL     1       2.275   2.403  22.070  0.00  0.00    +0.000 OA
ATOM     11  H   UNL     1       3.011   2.640  22.669  0.00  0.00    +0.000 HD
ENDBRANCH   5  10
BRANCH   1  12
ATOM     12  S   UNL     1       4.465   3.893  16.815  0.00  0.00    +0.000 S 
BRANCH  12  16
ATOM     13  C   UNL     1       7.522   7.143  17.998  0.00  0.00    +0.000 A 
ATOM     14  C   UNL     1       7.641   5.830  18.473  0.00  0.00    +0.000 A 
ATOM     15  C   UNL     1       6.699   4.858  18.128  0.00  0.00    +0.000 A 
ATOM     16  C   UNL     1       5.614   5.176  17.308  0.00  0.00    +0.000 A 
ATOM     17  C   UNL     1       5.499   6.483  16.818  0.00  0.00    +0.000 A 
ATOM     18  C   UNL     1       6.445   7.458  17.160  0.00  0.00    +0.000 A 
BRANCH  13  20
ATOM     19  C   UNL     1       8.142   9.587  17.930  0.00  0.00    +0.000 C 
ATOM     20  C   UNL     1       8.549   8.187  18.366  0.00  0.00    +0.000 C 
ENDBRANCH  13  20
ENDBRANCH  12  16
ENDBRANCH   1  12
TORSDOF 4
ENDMDL
MODEL 7
REMARK VINA RESULT:      -6.8      3.527      4.606
REMARK  Name = 
REMARK  6 active torsions:
REMARK  status: ('A' for Active; 'I' for Inactive)
REMARK    1  A    between atoms: C_1  and  C_2
REMARK    2  A    between atoms: C_2  and  C_3
REMARK    3  A    between atoms: C_6  and  S_7
REMARK    4  A    between atoms: S_7  and  C_8
REMARK    5  A    between atoms: N_12  and  O_13
REMARK    6  A    between atoms: N_16  and  C_17
REMARK                            x       y       z     vdW  Elec       q    Type
REMARK                         _______ _______ _______ _____ _____    ______ ____
ROOT
ATOM      1  C   UNL     1       4.534   4.815  18.869  0.00  0.00    +0.000 A 
ATOM      2  C   UNL     1       5.671   5.343  19.339  0.00  0.00    +0.000 A 
ATOM      3  C   UNL     1       6.887   5.301  18.524  0.00  0.00    +0.000 A 
ATOM      4  O   UNL     1       7.925   5.829  18.920  0.00  0.00    +0.000 OA
ATOM      5  N   UNL     1       6.772   4.656  17.327  0.00  0.00    +0.000 N 
ATOM      6  C   UNL     1       5.634   4.063  16.809  0.00  0.00    +0.000 A 
ATOM      7  O   UNL     1       5.614   3.489  15.718  0.00  0.00    +0.000 OA
ATOM      8  N   UNL     1       4.492   4.169  17.632  0.00  0.00    +0.000 N 
ATOM      9  C   UNL     1       3.269   3.544  17.134  0.00  0.00    +0.000 C 
ENDROOT
BRANCH   5  10
ATOM     10  O   UNL     1       7.939   4.624  16.528  0.00  0.00    +0.000 OA
ATOM     11  H   UNL     1       7.577   4.389  15.651  0.00  0.00    +0.000 HD
ENDBRANCH   5  10
BRANCH   1  12
ATOM     12  S   UNL     1       3.113   4.885  19.888  0.00  0.00    +0.000 S 
BRANCH  12  16
ATOM     13  C   UNL     1       1.569   9.112  18.860  0.00  0.00    +0.000 A 
ATOM     14  C   UNL     1       1.394   8.569  20.140  0.00  0.00    +0.000 A 
ATOM     15  C   UNL     1       1.845   7.280  20.437  0.00  0.00    +0.000 A 
ATOM     16  C   UNL     1       2.473   6.503  19.460  0.00  0.00    +0.000 A 
ATOM     17  C   UNL     1       2.664   7.047  18.184  0.00  0.00    +0.000 A 
ATOM     18  C   UNL     1       2.216   8.341  17.887  0.00  0.00    +0.000 A 
BRANCH  13  20
ATOM     19  C   UNL     1      -0.329  10.763  19.039  0.00  0.00    +0.000 C 
ATOM     20  C   UNL     1       1.089  10.510  18.550  0.00  0.00    +0.000 C 
ENDBRANCH  13  20
ENDBRANCH  12  16
ENDBRANCH   1  12
TORSDOF 4
ENDMDL
MODEL 8
REMARK VINA RESULT:      -6.7      4.006      6.362
REMARK  Name = 
REMARK  6 active torsions:
REMARK  status: ('A' for Active; 'I' for Inactive)
REMARK    1  A    between atoms: C_1  and  C_2
REMARK    2  A    between atoms: C_2  and  C_3
REMARK    3  A    between atoms: C_6  and  S_7
REMARK    4  A    between atoms: S_7  and  C_8
REMARK    5  A    between atoms: N_12  and  O_13
REMARK    6  A    between atoms: N_16  and  C_17
REMARK                            x       y       z     vdW  Elec       q    Type
REMARK                         _______ _______ _______ _____ _____    ______ ____
ROOT
ATOM      1  C   UNL     1       4.027   4.363  19.147  0.00  0.00    +0.000 A 
ATOM      2  C   UNL     1       4.353   3.110  18.807  0.00  0.00    +0.000 A 
ATOM      3  C   UNL     1       3.342   2.052  18.861  0.00  0.00    +0.000 A 
ATOM      4  O   UNL     1       3.614   0.907  18.501  0.00  0.00    +0.000 OA
ATOM      5  N   UNL     1       2.116   2.433  19.321  0.00  0.00    +0.000 N 
ATOM      6  C   UNL     1       1.734   3.703  19.718  0.00  0.00    +0.000 A 
ATOM      7  O   UNL     1       0.603   3.964  20.133  0.00  0.00    +0.000 OA
ATOM      8  N   UNL     1       2.748   4.679  19.610  0.00  0.00    +0.000 N 
ATOM      9  C   UNL     1       2.398   6.032  20.033  0.00  0.00    +0.000 C 
ENDROOT
BRANCH   5  10
ATOM     10  O   UNL     1       1.130   1.419  19.362  0.00  0.00    +0.000 OA
ATOM     11  H   UNL     1       0.751   1.469  18.462  0.00  0.00    +0.000 HD
ENDBRANCH   5  10
BRANCH   1  12
ATOM     12  S   UNL     1       5.276   5.586  19.072  0.00  0.00    +0.000 S 
BRANCH  12  16
ATOM     13  C   UNL     1       6.662   4.978  14.711  0.00  0.00    +0.000 A 
ATOM     14  C   UNL     1       7.468   4.586  15.788  0.00  0.00    +0.000 A 
ATOM     15  C   UNL     1       7.051   4.794  17.106  0.00  0.00    +0.000 A 
ATOM     16  C   UNL     1       5.823   5.404  17.377  0.00  0.00    +0.000 A 
ATOM     17  C   UNL     1       5.007   5.783  16.304  0.00  0.00    +0.000 A 
ATOM     18  C   UNL     1       5.423   5.571  14.982  0.00  0.00    +0.000 A 
BRANCH  13  20
ATOM     19  C   UNL     1       6.320   3.639  12.602  0.00  0.00    +0.000 C 
ATOM     20  C   UNL     1       7.114   4.740  13.291  0.00  0.00    +0.000 C 
ENDBRANCH  13  20
ENDBRANCH  12  16
ENDBRANCH   1  12
TORSDOF 4
ENDMDL
MODEL 9
REMARK VINA RESULT:      -6.7      3.830      5.876
REMARK  Name = 
REMARK  6 active torsions:
REMARK  status: ('A' for Active; 'I' for Inactive)
REMARK    1  A    between atoms: C_1  and  C_2
REMARK    2  A    between atoms: C_2  and  C_3
REMARK    3  A    between atoms: C_6  and  S_7
REMARK    4  A    between atoms: S_7  and  C_8
REMARK    5  A    between atoms: N_12  and  O_13
REMARK    6  A    between atoms: N_16  and  C_17
REMARK                            x       y       z     vdW  Elec       q    Type
REMARK                         _______ _______ _______ _____ _____    ______ ____
ROOT
ATOM      1  C   UNL     1       4.754   5.084  18.730  0.00  0.00    +0.000 A 
ATOM      2  C   UNL     1       5.275   3.927  19.157  0.00  0.00    +0.000 A 
ATOM      3  C   UNL     1       4.433   2.972  19.883  0.00  0.00    +0.000 A 
ATOM      4  O   UNL     1       4.883   1.883  20.235  0.00  0.00    +0.000 OA
ATOM      5  N   UNL     1       3.152   3.377  20.119  0.00  0.00    +0.000 N 
ATOM      6  C   UNL     1       2.574   4.574  19.732  0.00  0.00    +0.000 A 
ATOM      7  O   UNL     1       1.406   4.870  19.993  0.00  0.00    +0.000 OA
ATOM      8  N   UNL     1       3.431   5.431  19.009  0.00  0.00    +0.000 N 
ATOM      9  C   UNL     1       2.871   6.714  18.593  0.00  0.00    +0.000 C 
ENDROOT
BRANCH   5  10
ATOM     10  O   UNL     1       2.330   2.455  20.806  0.00  0.00    +0.000 OA
ATOM     11  H   UNL     1       1.502   2.495  20.287  0.00  0.00    +0.000 HD
ENDBRANCH   5  10
BRANCH   1  12
ATOM     12  S   UNL     1       5.806   6.191  17.876  0.00  0.00    +0.000 S 
BRANCH  12  16
ATOM     13  C   UNL     1       6.194   4.130  13.764  0.00  0.00    +0.000 A 
ATOM     14  C   UNL     1       4.949   4.259  14.395  0.00  0.00    +0.000 A 
ATOM     15  C   UNL     1       4.844   4.865  15.649  0.00  0.00    +0.000 A 
ATOM     16  C   UNL     1       5.979   5.348  16.306  0.00  0.00    +0.000 A 
ATOM     17  C   UNL     1       7.223   5.235  15.673  0.00  0.00    +0.000 A 
ATOM     18  C   UNL     1       7.329   4.632  14.412  0.00  0.00    +0.000 A 
BRANCH  13  20
ATOM     19  C   UNL     1       4.939   3.144  11.812  0.00  0.00    +0.000 C 
ATOM     20  C   UNL     1       6.300   3.485  12.403  0.00  0.00    +0.000 C 
ENDBRANCH  13  20
ENDBRANCH  12  16
ENDBRANCH   1  12
TORSDOF 4
ENDMDL
