MODEL 1
REMARK VINA RESULT:      -7.0      0.000      0.000
REMARK  Name = 
REMARK  2 active torsions:
REMARK  status: ('A' for Active; 'I' for Inactive)
REMARK    1  A    between atoms: C_8  and  C_10
REMARK    2  A    between atoms: C_11  and  C_12
REMARK                            x       y       z     vdW  Elec       q    Type
REMARK                         _______ _______ _______ _____ _____    ______ ____
ROOT
ATOM      1  O   UNL     1       2.630   3.022  16.742  0.00  0.00    +0.000 OA
ATOM      2  C   UNL     1       2.542   3.354  17.921  0.00  0.00    +0.000 C 
ATOM      3  C   UNL     1       1.197   3.225  18.555  0.00  0.00    +0.000 C 
ATOM      4  C   UNL     1       0.926   3.732  19.763  0.00  0.00    +0.000 C 
ATOM      5  C   UNL     1       1.989   4.385  20.580  0.00  0.00    +0.000 C 
ATOM      6  C   UNL     1       3.360   3.854  20.175  0.00  0.00    +0.000 C 
ATOM      7  N   UNL     1       3.571   3.857  18.727  0.00  0.00    +0.000 N 
ATOM      8  C   UNL     1       4.893   4.066  18.313  0.00  0.00    +0.000 C 
ATOM      9  O   UNL     1       5.834   4.186  19.100  0.00  0.00    +0.000 OA
ENDROOT
BRANCH   8  10
ATOM     10  C   UNL     1       5.159   4.140  16.855  0.00  0.00    +0.000 C 
ATOM     11  C   UNL     1       6.398   4.355  16.381  0.00  0.00    +0.000 C 
BRANCH  11  12
ATOM     12  C   UNL     1       6.677   4.415  14.941  0.00  0.00    +0.000 A 
ATOM     13  C   UNL     1       6.003   3.617  14.019  0.00  0.00    +0.000 A 
ATOM     14  N   UNL     1       6.250   3.661  12.685  0.00  0.00    +0.000 NA
ATOM     15  C   UNL     1       7.199   4.544  12.302  0.00  0.00    +0.000 A 
ATOM     16  C   UNL     1       7.872   5.344  13.210  0.00  0.00    +0.000 A 
ATOM     17  N   UNL     1       7.629   5.290  14.535  0.00  0.00    +0.000 NA
ENDBRANCH  11  12
ENDBRANCH   8  10
TORSDOF 2
ENDMDL
MODEL 2
REMARK VINA RESULT:      -6.8      0.916      1.381
REMARK  Name = 
REMARK  2 active torsions:
REMARK  status: ('A' for Active; 'I' for Inactive)
REMARK    1  A    between atoms: C_8  and  C_10
REMARK    2  A    between atoms: C_11  and  C_12
REMARK                            x       y       z     vdW  Elec       q    Type
REMARK                         _______ _______ _______ _____ _____    ______ ____
ROOT
ATOM      1  O   UNL     1       2.422   2.469  17.038  0.00  0.00    +0.000 OA
ATOM      2  C   UNL     1       2.247   2.759  18.218  0.00  0.00    +0.000 C 
ATOM      3  C   UNL     1       0.869   2.568  18.759  0.00  0.00    +0.000 C 
ATOM      4  C   UNL     1       0.502   3.026  19.961  0.00  0.00    +0.000 C 
ATOM      5  C   UNL     1       1.488   3.687  20.865  0.00  0.00    +0.000 C 
ATOM      6  C   UNL     1       2.899   3.212  20.535  0.00  0.00    +0.000 C 
ATOM      7  N   UNL     1       3.203   3.269  19.106  0.00  0.00    +0.000 N 
ATOM      8  C   UNL     1       4.541   3.534  18.785  0.00  0.00    +0.000 C 
ATOM      9  O   UNL     1       5.425   3.658  19.636  0.00  0.00    +0.000 OA
ENDROOT
BRANCH   8  10
ATOM     10  C   UNL     1       4.898   3.663  17.351  0.00  0.00    +0.000 C 
ATOM     11  C   UNL     1       6.016   4.302  16.964  0.00  0.00    +0.000 C 
BRANCH  11  12
ATOM     12  C   UNL     1       6.388   4.423  15.550  0.00  0.00    +0.000 A 
ATOM     13  C   UNL     1       7.391   5.287  15.116  0.00  0.00    +0.000 A 
ATOM     14  N   UNL     1       7.746   5.411  13.811  0.00  0.00    +0.000 NA
ATOM     15  C   UNL     1       7.061   4.627  12.949  0.00  0.00    +0.000 A 
ATOM     16  C   UNL     1       6.065   3.761  13.371  0.00  0.00    +0.000 A 
ATOM     17  N   UNL     1       5.710   3.649  14.667  0.00  0.00    +0.000 NA
ENDBRANCH  11  12
ENDBRANCH   8  10
TORSDOF 2
ENDMDL
MODEL 3
REMARK VINA RESULT:      -6.7      1.704      2.538
REMARK  Name = 
REMARK  2 active torsions:
REMARK  status: ('A' for Active; 'I' for Inactive)
REMARK    1  A    between atoms: C_8  and  C_10
REMARK    2  A    between atoms: C_11  and  C_12
REMARK                            x       y       z     vdW  Elec       q    Type
REMARK                         _______ _______ _______ _____ _____    ______ ____
ROOT
ATOM      1  O   UNL     1       4.961   3.339  19.523  0.00  0.00    +0.000 OA
ATOM      2  C   UNL     1       3.844   3.556  19.983  0.00  0.00    +0.000 C 
ATOM      3  C   UNL     1       3.235   2.470  20.806  0.00  0.00    +0.000 C 
ATOM      4  C   UNL     1       1.957   2.501  21.197  0.00  0.00    +0.000 C 
ATOM      5  C   UNL     1       1.089   3.677  20.896  0.00  0.00    +0.000 C 
ATOM      6  C   UNL     1       1.945   4.924  20.705  0.00  0.00    +0.000 C 
ATOM      7  N   UNL     1       3.073   4.711  19.800  0.00  0.00    +0.000 N 
ATOM      8  C   UNL     1       3.461   5.829  19.049  0.00  0.00    +0.000 C 
ATOM      9  O   UNL     1       2.934   6.937  19.171  0.00  0.00    +0.000 OA
ENDROOT
BRANCH   8  10
ATOM     10  C   UNL     1       4.561   5.658  18.068  0.00  0.00    +0.000 C 
ATOM     11  C   UNL     1       4.323   5.213  16.822  0.00  0.00    +0.000 C 
BRANCH  11  12
ATOM     12  C   UNL     1       5.400   5.054  15.838  0.00  0.00    +0.000 A 
ATOM     13  C   UNL     1       6.629   5.694  15.970  0.00  0.00    +0.000 A 
ATOM     14  N   UNL     1       7.635   5.557  15.068  0.00  0.00    +0.000 NA
ATOM     15  C   UNL     1       7.366   4.744  14.022  0.00  0.00    +0.000 A 
ATOM     16  C   UNL     1       6.148   4.099  13.883  0.00  0.00    +0.000 A 
ATOM     17  N   UNL     1       5.149   4.246  14.778  0.00  0.00    +0.000 NA
ENDBRANCH  11  12
ENDBRANCH   8  10
TORSDOF 2
ENDMDL
MODEL 4
REMARK VINA RESULT:      -6.5      2.852      6.402
REMARK  Name = 
REMARK  2 active torsions:
REMARK  status: ('A' for Active; 'I' for Inactive)
REMARK    1  A    between atoms: C_8  and  C_10
REMARK    2  A    between atoms: C_11  and  C_12
REMARK                            x       y       z     vdW  Elec       q    Type
REMARK                         _______ _______ _______ _____ _____    ______ ____
ROOT
ATOM      1  O   UNL     1       6.394   4.530  18.807  0.00  0.00    +0.000 OA
ATOM      2  C   UNL     1       6.852   5.588  18.387  0.00  0.00    +0.000 C 
ATOM      3  C   UNL     1       8.015   6.157  19.129  0.00  0.00    +0.000 C 
ATOM      4  C   UNL     1       8.478   7.390  18.896  0.00  0.00    +0.000 C 
ATOM      5  C   UNL     1       7.900   8.236  17.811  0.00  0.00    +0.000 C 
ATOM      6  C   UNL     1       7.268   7.353  16.740  0.00  0.00    +0.000 C 
ATOM      7  N   UNL     1       6.385   6.327  17.292  0.00  0.00    +0.000 N 
ATOM      8  C   UNL     1       5.298   5.970  16.482  0.00  0.00    +0.000 C 
ATOM      9  O   UNL     1       5.116   6.438  15.357  0.00  0.00    +0.000 OA
ENDROOT
BRANCH   8  10
ATOM     10  C   UNL     1       4.333   4.976  17.016  0.00  0.00    +0.000 C 
ATOM     11  C   UNL     1       3.365   5.336  17.876  0.00  0.00    +0.000 C 
BRANCH  11  12
ATOM     12  C   UNL     1       2.395   4.366  18.398  0.00  0.00    +0.000 A 
ATOM     13  C   UNL     1       2.116   3.168  17.746  0.00  0.00    +0.000 A 
ATOM     14  N   UNL     1       1.221   2.262  18.217  0.00  0.00    +0.000 NA
ATOM     15  C   UNL     1       0.615   2.597  19.377  0.00  0.00    +0.000 A 
ATOM     16  C   UNL     1       0.888   3.785  20.036  0.00  0.00    +0.000 A 
ATOM     17  N   UNL     1       1.771   4.686  19.559  0.00  0.00    +0.000 NA
ENDBRANCH  11  12
ENDBRANCH   8  10
TORSDOF 2
ENDMDL
MODEL 5
REMARK VINA RESULT:      -6.4      1.441      2.450
REMARK  Name = 
REMARK  2 active torsions:
REMARK  status: ('A' for Active; 'I' for Inactive)
REMARK    1  A    between atoms: C_8  and  C_10
REMARK    2  A    between atoms: C_11  and  C_12
REMARK                            x       y       z     vdW  Elec       q    Type
REMARK                         _______ _______ _______ _____ _____    ______ ____
ROOT
ATOM      1  O   UNL     1       2.932   6.118  17.848  0.00  0.00    +0.000 OA
ATOM      2  C   UNL     1       2.482   5.390  18.728  0.00  0.00    +0.000 C 
ATOM      3  C   UNL     1       2.087   6.050  20.007  0.00  0.00    +0.000 C 
ATOM      4  C   UNL     1       1.770   5.353  21.104  0.00  0.00    +0.000 C 
ATOM      5  C   UNL     1       1.715   3.862  21.077  0.00  0.00    +0.000 C 
ATOM      6  C   UNL     1       1.447   3.374  19.657  0.00  0.00    +0.000 C 
ATOM      7  N   UNL     1       2.317   4.001  18.663  0.00  0.00    +0.000 N 
ATOM      8  C   UNL     1       2.643   3.200  17.560  0.00  0.00    +0.000 C 
ATOM      9  O   UNL     1       2.193   2.065  17.396  0.00  0.00    +0.000 OA
ENDROOT
BRANCH   8  10
ATOM     10  C   UNL     1       3.571   3.761  16.546  0.00  0.00    +0.000 C 
ATOM     11  C   UNL     1       4.901   3.594  16.649  0.00  0.00    +0.000 C 
BRANCH  11  12
ATOM     12  C   UNL     1       5.828   4.130  15.646  0.00  0.00    +0.000 A 
ATOM     13  C   UNL     1       6.789   5.088  15.958  0.00  0.00    +0.000 A 
ATOM     14  N   UNL     1       7.653   5.594  15.041  0.00  0.00    +0.000 NA
ATOM     15  C   UNL     1       7.525   5.097  13.791  0.00  0.00    +0.000 A 
ATOM     16  C   UNL     1       6.576   4.141  13.471  0.00  0.00    +0.000 A 
ATOM     17  N   UNL     1       5.714   3.648  14.383  0.00  0.00    +0.000 NA
ENDBRANCH  11  12
ENDBRANCH   8  10
TORSDOF 2
ENDMDL
MODEL 6
REMARK VINA RESULT:      -6.4      3.631      4.321
REMARK  Name = 
REMARK  2 active torsions:
REMARK  status: ('A' for Active; 'I' for Inactive)
REMARK    1  A    between atoms: C_8  and  C_10
REMARK    2  A    between atoms: C_11  and  C_12
REMARK                            x       y       z     vdW  Elec       q    Type
REMARK                         _______ _______ _______ _____ _____    ______ ____
ROOT
ATOM      1  O   UNL     1       2.213   8.576  17.391  0.00  0.00    +0.000 OA
ATOM      2  C   UNL     1       1.845   8.668  18.558  0.00  0.00    +0.000 C 
ATOM      3  C   UNL     1       1.131   9.922  18.939  0.00  0.00    +0.000 C 
ATOM      4  C   UNL     1       0.855  10.229  20.212  0.00  0.00    +0.000 C 
ATOM      5  C   UNL     1       1.176   9.281  21.318  0.00  0.00    +0.000 C 
ATOM      6  C   UNL     1       1.230   7.853  20.785  0.00  0.00    +0.000 C 
ATOM      7  N   UNL     1       2.041   7.724  19.575  0.00  0.00    +0.000 N 
ATOM      8  C   UNL     1       2.700   6.497  19.421  0.00  0.00    +0.000 C 
ATOM      9  O   UNL     1       2.573   5.561  20.213  0.00  0.00    +0.000 OA
ENDROOT
BRANCH   8  10
ATOM     10  C   UNL     1       3.586   6.330  18.242  0.00  0.00    +0.000 C 
ATOM     11  C   UNL     1       4.550   5.393  18.221  0.00  0.00    +0.000 C 
BRANCH  11  12
ATOM     12  C   UNL     1       5.423   5.207  17.056  0.00  0.00    +0.000 A 
ATOM     13  C   UNL     1       6.554   5.990  16.841  0.00  0.00    +0.000 A 
ATOM     14  N   UNL     1       7.370   5.830  15.767  0.00  0.00    +0.000 NA
ATOM     15  C   UNL     1       7.015   4.844  14.913  0.00  0.00    +0.000 A 
ATOM     16  C   UNL     1       5.894   4.057  15.120  0.00  0.00    +0.000 A 
ATOM     17  N   UNL     1       5.082   4.226  16.183  0.00  0.00    +0.000 NA
ENDBRANCH  11  12
ENDBRANCH   8  10
TORSDOF 2
ENDMDL
MODEL 7
REMARK VINA RESULT:      -6.4      2.694      6.525
REMARK  Name = 
REMARK  2 active torsions:
REMARK  status: ('A' for Active; 'I' for Inactive)
REMARK    1  A    between atoms: C_8  and  C_10
REMARK    2  A    between atoms: C_11  and  C_12
REMARK                            x       y       z     vdW  Elec       q    Type
REMARK                         _______ _______ _______ _____ _____    ______ ____
ROOT
ATOM      1  O   UNL     1       6.297   4.448  19.075  0.00  0.00    +0.000 OA
ATOM      2  C   UNL     1       6.755   5.433  18.504  0.00  0.00    +0.000 C 
ATOM      3  C   UNL     1       7.906   6.116  19.165  0.00  0.00    +0.000 C 
ATOM      4  C   UNL     1       8.366   7.302  18.752  0.00  0.00    +0.000 C 
ATOM      5  C   UNL     1       7.798   7.970  17.545  0.00  0.00    +0.000 C 
ATOM      6  C   UNL     1       7.184   6.930  16.613  0.00  0.00    +0.000 C 
ATOM      7  N   UNL     1       6.299   5.994  17.304  0.00  0.00    +0.000 N 
ATOM      8  C   UNL     1       5.224   5.510  16.545  0.00  0.00    +0.000 C 
ATOM      9  O   UNL     1       5.054   5.801  15.359  0.00  0.00    +0.000 OA
ENDROOT
BRANCH   8  10
ATOM     10  C   UNL     1       4.257   4.603  17.211  0.00  0.00    +0.000 C 
ATOM     11  C   UNL     1       3.225   5.086  17.925  0.00  0.00    +0.000 C 
BRANCH  11  12
ATOM     12  C   UNL     1       2.253   4.200  18.576  0.00  0.00    +0.000 A 
ATOM     13  C   UNL     1       1.757   4.450  19.853  0.00  0.00    +0.000 A 
ATOM     14  N   UNL     1       0.858   3.639  20.468  0.00  0.00    +0.000 NA
ATOM     15  C   UNL     1       0.464   2.564  19.751  0.00  0.00    +0.000 A 
ATOM     16  C   UNL     1       0.948   2.308  18.479  0.00  0.00    +0.000 A 
ATOM     17  N   UNL     1       1.848   3.112  17.876  0.00  0.00    +0.000 NA
ENDBRANCH  11  12
ENDBRANCH   8  10
TORSDOF 2
ENDMDL
MODEL 8
REMARK VINA RESULT:      -6.3      1.578      2.221
REMARK  Name = 
REMARK  2 active torsions:
REMARK  status: ('A' for Active; 'I' for Inactive)
REMARK    1  A    between atoms: C_8  and  C_10
REMARK    2  A    between atoms: C_11  and  C_12
REMARK                            x       y       z     vdW  Elec       q    Type
REMARK                         _______ _______ _______ _____ _____    ______ ____
ROOT
ATOM      1  O   UNL     1       3.772   6.520  17.232  0.00  0.00    +0.000 OA
ATOM      2  C   UNL     1       3.266   5.931  18.182  0.00  0.00    +0.000 C 
ATOM      3  C   UNL     1       2.513   6.765  19.165  0.00  0.00    +0.000 C 
ATOM      4  C   UNL     1       2.086   6.280  20.336  0.00  0.00    +0.000 C 
ATOM      5  C   UNL     1       2.271   4.841  20.685  0.00  0.00    +0.000 C 
ATOM      6  C   UNL     1       2.387   4.005  19.415  0.00  0.00    +0.000 C 
ATOM      7  N   UNL     1       3.337   4.558  18.450  0.00  0.00    +0.000 N 
ATOM      8  C   UNL     1       4.009   3.616  17.660  0.00  0.00    +0.000 C 
ATOM      9  O   UNL     1       3.787   2.405  17.722  0.00  0.00    +0.000 OA
ENDROOT
BRANCH   8  10
ATOM     10  C   UNL     1       5.030   4.113  16.705  0.00  0.00    +0.000 C 
ATOM     11  C   UNL     1       5.087   3.655  15.443  0.00  0.00    +0.000 C 
BRANCH  11  12
ATOM     12  C   UNL     1       6.082   4.150  14.484  0.00  0.00    +0.000 A 
ATOM     13  C   UNL     1       7.065   5.069  14.840  0.00  0.00    +0.000 A 
ATOM     14  N   UNL     1       7.992   5.537  13.964  0.00  0.00    +0.000 NA
ATOM     15  C   UNL     1       7.902   5.042  12.710  0.00  0.00    +0.000 A 
ATOM     16  C   UNL     1       6.931   4.124  12.346  0.00  0.00    +0.000 A 
ATOM     17  N   UNL     1       6.007   3.670  13.218  0.00  0.00    +0.000 NA
ENDBRANCH  11  12
ENDBRANCH   8  10
TORSDOF 2
ENDMDL
MODEL 9
REMARK VINA RESULT:      -6.2      4.566      6.227
REMARK  Name = 
REMARK  2 active torsions:
REMARK  status: ('A' for Active; 'I' for Inactive)
REMARK    1  A    between atoms: C_8  and  C_10
REMARK    2  A    between atoms: C_11  and  C_12
REMARK                            x       y       z     vdW  Elec       q    Type
REMARK                         _______ _______ _______ _____ _____    ______ ____
ROOT
ATOM      1  O   UNL     1       1.814   7.519  21.106  0.00  0.00    +0.000 OA
ATOM      2  C   UNL     1       1.251   8.461  20.557  0.00  0.00    +0.000 C 
ATOM      3  C   UNL     1       0.293   9.247  21.388  0.00  0.00    +0.000 C 
ATOM      4  C   UNL     1      -0.523  10.167  20.862  0.00  0.00    +0.000 C 
ATOM      5  C   UNL     1      -0.458  10.513  19.412  0.00  0.00    +0.000 C 
ATOM      6  C   UNL     1       0.930  10.200  18.862  0.00  0.00    +0.000 C 
ATOM      7  N   UNL     1       1.401   8.864  19.224  0.00  0.00    +0.000 N 
ATOM      8  C   UNL     1       2.236   8.246  18.283  0.00  0.00    +0.000 C 
ATOM      9  O   UNL     1       2.603   8.798  17.243  0.00  0.00    +0.000 OA
ENDROOT
BRANCH   8  10
ATOM     10  C   UNL     1       2.697   6.864  18.567  0.00  0.00    +0.000 C 
ATOM     11  C   UNL     1       2.170   5.807  17.926  0.00  0.00    +0.000 C 
BRANCH  11  12
ATOM     12  C   UNL     1       2.628   4.437  18.186  0.00  0.00    +0.000 A 
ATOM     13  C   UNL     1       3.633   4.151  19.107  0.00  0.00    +0.000 A 
ATOM     14  N   UNL     1       4.068   2.889  19.358  0.00  0.00    +0.000 NA
ATOM     15  C   UNL     1       3.450   1.915  18.654  0.00  0.00    +0.000 A 
ATOM     16  C   UNL     1       2.446   2.188  17.740  0.00  0.00    +0.000 A 
ATOM     17  N   UNL     1       2.025   3.444  17.487  0.00  0.00    +0.000 NA
ENDBRANCH  11  12
ENDBRANCH   8  10
TORSDOF 2
ENDMDL
