MODEL 1
REMARK VINA RESULT:      -6.5      0.000      0.000
REMARK  Name = 
REMARK  15 active torsions:
REMARK  status: ('A' for Active; 'I' for Inactive)
REMARK    1  A    between atoms: C_1  and  C_2
REMARK    2  A    between atoms: C_2  and  C_3
REMARK    3  A    between atoms: C_3  and  C_4
REMARK    4  A    between atoms: C_4  and  C_5
REMARK    5  A    between atoms: C_8  and  N_9
REMARK    6  A    between atoms: N_9  and  C_10
REMARK    7  A    between atoms: C_10  and  N_12
REMARK    8  A    between atoms: N_12  and  C_13
REMARK    9  A    between atoms: C_13  and  C_14
REMARK   10  A    between atoms: C_14  and  C_15
REMARK   11  A    between atoms: C_15  and  O_16
REMARK   12  A    between atoms: O_16  and  C_17
REMARK   13  A    between atoms: C_17  and  C_18
REMARK   14  A    between atoms: C_18  and  C_19
REMARK   15  A    between atoms: C_20  and  C_21
REMARK                            x       y       z     vdW  Elec       q    Type
REMARK                         _______ _______ _______ _____ _____    ______ ____
ROOT
ATOM      1  N   UNL     1       5.564   6.383  17.284  0.00  0.00    +0.000 N 
ATOM      2  H   UNL     1       5.454   7.313  16.904  0.00  0.00    +0.000 HD
ENDROOT
BRANCH   1   6
ATOM      3  C   UNL     1       2.091   4.106  18.084  0.00  0.00    +0.000 A 
ATOM      4  C   UNL     1       3.271   3.474  17.692  0.00  0.00    +0.000 A 
ATOM      5  C   UNL     1       4.404   4.233  17.373  0.00  0.00    +0.000 A 
ATOM      6  C   UNL     1       4.377   5.633  17.425  0.00  0.00    +0.000 A 
ATOM      7  C   UNL     1       3.175   6.278  17.757  0.00  0.00    +0.000 A 
ATOM      8  C   UNL     1       3.014   7.773  17.776  0.00  0.00    +0.000 C 
ATOM      9  C   UNL     1       2.048   5.505  18.092  0.00  0.00    +0.000 A 
BRANCH   3  10
ATOM     10  C   UNL     1       0.869   3.316  18.489  0.00  0.00    +0.000 C 
BRANCH  10  11
ATOM     11  C   UNL     1       1.094   2.315  19.630  0.00  0.00    +0.000 C 
BRANCH  11  13
ATOM     12  C   UNL     1       2.546   2.917  21.593  0.00  0.00    +0.000 C 
ATOM     13  C   UNL     1       1.136   2.956  21.020  0.00  0.00    +0.000 C 
ENDBRANCH  11  13
ENDBRANCH  10  11
ENDBRANCH   3  10
ENDBRANCH   1   6
BRANCH   1  14
ATOM     14  C   UNL     1       6.867   5.992  17.440  0.00  0.00    +0.000 C 
ATOM     15  S   UNL     1       7.836   6.214  18.781  0.00  0.00    +0.000 S 
BRANCH  14  16
ATOM     16  N   UNL     1       7.397   5.297  16.383  0.00  0.00    +0.000 N 
ATOM     17  H   UNL     1       8.359   5.012  16.527  0.00  0.00    +0.000 HD
BRANCH  16  18
ATOM     18  C   UNL     1       6.922   5.336  15.005  0.00  0.00    +0.000 C 
BRANCH  18  19
ATOM     19  C   UNL     1       6.517   3.950  14.493  0.00  0.00    +0.000 C 
BRANCH  19  20
ATOM     20  C   UNL     1       6.335   3.946  12.982  0.00  0.00    +0.000 C 
BRANCH  20  21
ATOM     21  O   UNL     1       6.227   2.595  12.543  0.00  0.00    +0.000 OA
BRANCH  21  22
ATOM     22  C   UNL     1       5.417   2.471  11.380  0.00  0.00    +0.000 C 
BRANCH  22  23
ATOM     23  C   UNL     1       4.316   3.523  11.463  0.00  0.00    +0.000 C 
ATOM     24  C   UNL     1       3.220   3.278  10.443  0.00  0.00    +0.000 C 
ENDBRANCH  22  23
ENDBRANCH  21  22
ENDBRANCH  20  21
ENDBRANCH  19  20
ENDBRANCH  18  19
ENDBRANCH  16  18
ENDBRANCH  14  16
ENDBRANCH   1  14
TORSDOF 12
ENDMDL
MODEL 2
REMARK VINA RESULT:      -6.4      3.469      7.387
REMARK  Name = 
REMARK  15 active torsions:
REMARK  status: ('A' for Active; 'I' for Inactive)
REMARK    1  A    between atoms: C_1  and  C_2
REMARK    2  A    between atoms: C_2  and  C_3
REMARK    3  A    between atoms: C_3  and  C_4
REMARK    4  A    between atoms: C_4  and  C_5
REMARK    5  A    between atoms: C_8  and  N_9
REMARK    6  A    between atoms: N_9  and  C_10
REMARK    7  A    between atoms: C_10  and  N_12
REMARK    8  A    between atoms: N_12  and  C_13
REMARK    9  A    between atoms: C_13  and  C_14
REMARK   10  A    between atoms: C_14  and  C_15
REMARK   11  A    between atoms: C_15  and  O_16
REMARK   12  A    between atoms: O_16  and  C_17
REMARK   13  A    between atoms: C_17  and  C_18
REMARK   14  A    between atoms: C_18  and  C_19
REMARK   15  A    between atoms: C_20  and  C_21
REMARK                            x       y       z     vdW  Elec       q    Type
REMARK                         _______ _______ _______ _____ _____    ______ ____
ROOT
ATOM      1  N   UNL     1       5.177   3.470  17.143  0.00  0.00    +0.000 N 
ATOM      2  H   UNL     1       5.621   2.929  16.414  0.00  0.00    +0.000 HD
ENDROOT
BRANCH   1   6
ATOM      3  C   UNL     1       7.591   6.750  18.283  0.00  0.00    +0.000 A 
ATOM      4  C   UNL     1       7.331   5.720  19.188  0.00  0.00    +0.000 A 
ATOM      5  C   UNL     1       6.486   4.664  18.828  0.00  0.00    +0.000 A 
ATOM      6  C   UNL     1       5.875   4.620  17.568  0.00  0.00    +0.000 A 
ATOM      7  C   UNL     1       6.080   5.686  16.676  0.00  0.00    +0.000 A 
ATOM      8  C   UNL     1       5.420   5.777  15.328  0.00  0.00    +0.000 C 
ATOM      9  C   UNL     1       6.944   6.733  17.042  0.00  0.00    +0.000 A 
BRANCH   3  10
ATOM     10  C   UNL     1       8.541   7.875  18.619  0.00  0.00    +0.000 C 
BRANCH  10  11
ATOM     11  C   UNL     1       8.228   9.213  17.935  0.00  0.00    +0.000 C 
BRANCH  11  13
ATOM     12  C   UNL     1       9.965  11.032  17.919  0.00  0.00    +0.000 C 
ATOM     13  C   UNL     1       8.786  10.433  18.673  0.00  0.00    +0.000 C 
ENDBRANCH  11  13
ENDBRANCH  10  11
ENDBRANCH   3  10
ENDBRANCH   1   6
BRANCH   1  14
ATOM     14  C   UNL     1       3.912   3.051  17.459  0.00  0.00    +0.000 C 
ATOM     15  S   UNL     1       3.486   1.774  18.447  0.00  0.00    +0.000 S 
BRANCH  14  16
ATOM     16  N   UNL     1       2.898   3.813  16.936  0.00  0.00    +0.000 N 
ATOM     17  H   UNL     1       3.029   4.045  15.958  0.00  0.00    +0.000 HD
BRANCH  16  18
ATOM     18  C   UNL     1       1.975   4.649  17.694  0.00  0.00    +0.000 C 
BRANCH  18  19
ATOM     19  C   UNL     1       2.551   6.040  17.974  0.00  0.00    +0.000 C 
BRANCH  19  20
ATOM     20  C   UNL     1       2.935   6.200  19.438  0.00  0.00    +0.000 C 
BRANCH  20  21
ATOM     21  O   UNL     1       1.850   5.746  20.242  0.00  0.00    +0.000 OA
BRANCH  21  22
ATOM     22  C   UNL     1       2.235   4.700  21.126  0.00  0.00    +0.000 C 
BRANCH  22  23
ATOM     23  C   UNL     1       1.192   3.593  21.022  0.00  0.00    +0.000 C 
ATOM     24  C   UNL     1       1.606   2.350  21.788  0.00  0.00    +0.000 C 
ENDBRANCH  22  23
ENDBRANCH  21  22
ENDBRANCH  20  21
ENDBRANCH  19  20
ENDBRANCH  18  19
ENDBRANCH  16  18
ENDBRANCH  14  16
ENDBRANCH   1  14
TORSDOF 12
ENDMDL
MODEL 3
REMARK VINA RESULT:      -6.3      4.032      6.430
REMARK  Name = 
REMARK  15 active torsions:
REMARK  status: ('A' for Active; 'I' for Inactive)
REMARK    1  A    between atoms: C_1  and  C_2
REMARK    2  A    between atoms: C_2  and  C_3
REMARK    3  A    between atoms: C_3  and  C_4
REMARK    4  A    between atoms: C_4  and  C_5
REMARK    5  A    between atoms: C_8  and  N_9
REMARK    6  A    between atoms: N_9  and  C_10
REMARK    7  A    between atoms: C_10  and  N_12
REMARK    8  A    between atoms: N_12  and  C_13
REMARK    9  A    between atoms: C_13  and  C_14
REMARK   10  A    between atoms: C_14  and  C_15
REMARK   11  A    between atoms: C_15  and  O_16
REMARK   12  A    between atoms: O_16  and  C_17
REMARK   13  A    between atoms: C_17  and  C_18
REMARK   14  A    between atoms: C_18  and  C_19
REMARK   15  A    between atoms: C_20  and  C_21
REMARK                            x       y       z     vdW  Elec       q    Type
REMARK                         _______ _______ _______ _____ _____    ______ ____
ROOT
ATOM      1  N   UNL     1       5.269   6.729  16.955  0.00  0.00    +0.000 N 
ATOM      2  H   UNL     1       4.941   7.608  16.578  0.00  0.00    +0.000 HD
ENDROOT
BRANCH   1   6
ATOM      3  C   UNL     1       2.941   5.060  20.066  0.00  0.00    +0.000 A 
ATOM      4  C   UNL     1       4.058   4.378  19.580  0.00  0.00    +0.000 A 
ATOM      5  C   UNL     1       4.794   4.905  18.512  0.00  0.00    +0.000 A 
ATOM      6  C   UNL     1       4.425   6.111  17.901  0.00  0.00    +0.000 A 
ATOM      7  C   UNL     1       3.266   6.770  18.343  0.00  0.00    +0.000 A 
ATOM      8  C   UNL     1       2.740   8.031  17.715  0.00  0.00    +0.000 C 
ATOM      9  C   UNL     1       2.544   6.240  19.427  0.00  0.00    +0.000 A 
BRANCH   3  10
ATOM     10  C   UNL     1       2.158   4.548  21.252  0.00  0.00    +0.000 C 
BRANCH  10  11
ATOM     11  C   UNL     1       1.450   3.205  21.029  0.00  0.00    +0.000 C 
BRANCH  11  13
ATOM     12  C   UNL     1       1.176   2.168  18.755  0.00  0.00    +0.000 C 
ATOM     13  C   UNL     1       0.598   3.156  19.758  0.00  0.00    +0.000 C 
ENDBRANCH  11  13
ENDBRANCH  10  11
ENDBRANCH   3  10
ENDBRANCH   1   6
BRANCH   1  14
ATOM     14  C   UNL     1       6.400   6.248  16.349  0.00  0.00    +0.000 C 
ATOM     15  S   UNL     1       6.495   5.048  15.192  0.00  0.00    +0.000 S 
BRANCH  14  16
ATOM     16  N   UNL     1       7.566   6.874  16.709  0.00  0.00    +0.000 N 
ATOM     17  H   UNL     1       8.364   6.597  16.149  0.00  0.00    +0.000 HD
BRANCH  16  18
ATOM     18  C   UNL     1       7.849   7.479  18.005  0.00  0.00    +0.000 C 
BRANCH  18  19
ATOM     19  C   UNL     1       7.987   9.001  17.915  0.00  0.00    +0.000 C 
BRANCH  19  20
ATOM     20  C   UNL     1       9.170   9.503  18.730  0.00  0.00    +0.000 C 
BRANCH  20  21
ATOM     21  O   UNL     1       8.840  10.780  19.269  0.00  0.00    +0.000 OA
BRANCH  21  22
ATOM     22  C   UNL     1       9.355  10.959  20.583  0.00  0.00    +0.000 C 
BRANCH  22  23
ATOM     23  C   UNL     1      10.258  12.187  20.567  0.00  0.00    +0.000 C 
ATOM     24  C   UNL     1      11.637  11.871  20.018  0.00  0.00    +0.000 C 
ENDBRANCH  22  23
ENDBRANCH  21  22
ENDBRANCH  20  21
ENDBRANCH  19  20
ENDBRANCH  18  19
ENDBRANCH  16  18
ENDBRANCH  14  16
ENDBRANCH   1  14
TORSDOF 12
ENDMDL
MODEL 4
REMARK VINA RESULT:      -6.2      4.409      6.859
REMARK  Name = 
REMARK  15 active torsions:
REMARK  status: ('A' for Active; 'I' for Inactive)
REMARK    1  A    between atoms: C_1  and  C_2
REMARK    2  A    between atoms: C_2  and  C_3
REMARK    3  A    between atoms: C_3  and  C_4
REMARK    4  A    between atoms: C_4  and  C_5
REMARK    5  A    between atoms: C_8  and  N_9
REMARK    6  A    between atoms: N_9  and  C_10
REMARK    7  A    between atoms: C_10  and  N_12
REMARK    8  A    between atoms: N_12  and  C_13
REMARK    9  A    between atoms: C_13  and  C_14
REMARK   10  A    between atoms: C_14  and  C_15
REMARK   11  A    between atoms: C_15  and  O_16
REMARK   12  A    between atoms: O_16  and  C_17
REMARK   13  A    between atoms: C_17  and  C_18
REMARK   14  A    between atoms: C_18  and  C_19
REMARK   15  A    between atoms: C_20  and  C_21
REMARK                            x       y       z     vdW  Elec       q    Type
REMARK                         _______ _______ _______ _____ _____    ______ ____
ROOT
ATOM      1  N   UNL     1       6.061   6.987  16.978  0.00  0.00    +0.000 N 
ATOM      2  H   UNL     1       6.083   7.329  16.026  0.00  0.00    +0.000 HD
ENDROOT
BRANCH   1   6
ATOM      3  C   UNL     1       2.585   4.679  17.664  0.00  0.00    +0.000 A 
ATOM      4  C   UNL     1       2.681   5.974  18.174  0.00  0.00    +0.000 A 
ATOM      5  C   UNL     1       3.855   6.716  17.994  0.00  0.00    +0.000 A 
ATOM      6  C   UNL     1       4.957   6.178  17.316  0.00  0.00    +0.000 A 
ATOM      7  C   UNL     1       4.891   4.852  16.857  0.00  0.00    +0.000 A 
ATOM      8  C   UNL     1       6.037   4.152  16.180  0.00  0.00    +0.000 C 
ATOM      9  C   UNL     1       3.701   4.122  17.028  0.00  0.00    +0.000 A 
BRANCH   3  10
ATOM     10  C   UNL     1       1.314   3.873  17.791  0.00  0.00    +0.000 C 
BRANCH  10  11
ATOM     11  C   UNL     1       1.479   2.507  18.471  0.00  0.00    +0.000 C 
BRANCH  11  13
ATOM     12  C   UNL     1       1.115   3.588  20.712  0.00  0.00    +0.000 C 
ATOM     13  C   UNL     1       1.952   2.591  19.925  0.00  0.00    +0.000 C 
ENDBRANCH  11  13
ENDBRANCH  10  11
ENDBRANCH   3  10
ENDBRANCH   1   6
BRANCH   1  14
ATOM     14  C   UNL     1       7.196   7.260  17.695  0.00  0.00    +0.000 C 
ATOM     15  S   UNL     1       7.984   6.249  18.765  0.00  0.00    +0.000 S 
BRANCH  14  16
ATOM     16  N   UNL     1       7.758   8.487  17.452  0.00  0.00    +0.000 N 
ATOM     17  H   UNL     1       7.893   8.683  16.467  0.00  0.00    +0.000 HD
BRANCH  16  18
ATOM     18  C   UNL     1       8.552   9.268  18.393  0.00  0.00    +0.000 C 
BRANCH  18  19
ATOM     19  C   UNL     1       8.698  10.729  17.955  0.00  0.00    +0.000 C 
BRANCH  19  20
ATOM     20  C   UNL     1      10.155  11.167  17.953  0.00  0.00    +0.000 C 
BRANCH  20  21
ATOM     21  O   UNL     1      10.294  12.281  18.831  0.00  0.00    +0.000 OA
BRANCH  21  22
ATOM     22  C   UNL     1      10.862  11.911  20.082  0.00  0.00    +0.000 C 
BRANCH  22  23
ATOM     23  C   UNL     1       9.999  12.519  21.184  0.00  0.00    +0.000 C 
ATOM     24  C   UNL     1       8.891  11.578  21.620  0.00  0.00    +0.000 C 
ENDBRANCH  22  23
ENDBRANCH  21  22
ENDBRANCH  20  21
ENDBRANCH  19  20
ENDBRANCH  18  19
ENDBRANCH  16  18
ENDBRANCH  14  16
ENDBRANCH   1  14
TORSDOF 12
ENDMDL
MODEL 5
REMARK VINA RESULT:      -6.2      1.346      1.707
REMARK  Name = 
REMARK  15 active torsions:
REMARK  status: ('A' for Active; 'I' for Inactive)
REMARK    1  A    between atoms: C_1  and  C_2
REMARK    2  A    between atoms: C_2  and  C_3
REMARK    3  A    between atoms: C_3  and  C_4
REMARK    4  A    between atoms: C_4  and  C_5
REMARK    5  A    between atoms: C_8  and  N_9
REMARK    6  A    between atoms: N_9  and  C_10
REMARK    7  A    between atoms: C_10  and  N_12
REMARK    8  A    between atoms: N_12  and  C_13
REMARK    9  A    between atoms: C_13  and  C_14
REMARK   10  A    between atoms: C_14  and  C_15
REMARK   11  A    between atoms: C_15  and  O_16
REMARK   12  A    between atoms: O_16  and  C_17
REMARK   13  A    between atoms: C_17  and  C_18
REMARK   14  A    between atoms: C_18  and  C_19
REMARK   15  A    between atoms: C_20  and  C_21
REMARK                            x       y       z     vdW  Elec       q    Type
REMARK                         _______ _______ _______ _____ _____    ______ ____
ROOT
ATOM      1  N   UNL     1       4.950   7.092  17.125  0.00  0.00    +0.000 N 
ATOM      2  H   UNL     1       4.433   7.699  16.504  0.00  0.00    +0.000 HD
ENDROOT
BRANCH   1   6
ATOM      3  C   UNL     1       2.806   5.071  20.159  0.00  0.00    +0.000 A 
ATOM      4  C   UNL     1       4.018   4.559  19.693  0.00  0.00    +0.000 A 
ATOM      5  C   UNL     1       4.698   5.198  18.650  0.00  0.00    +0.000 A 
ATOM      6  C   UNL     1       4.179   6.349  18.043  0.00  0.00    +0.000 A 
ATOM      7  C   UNL     1       2.929   6.834  18.462  0.00  0.00    +0.000 A 
ATOM      8  C   UNL     1       2.246   8.018  17.835  0.00  0.00    +0.000 C 
ATOM      9  C   UNL     1       2.262   6.194  19.523  0.00  0.00    +0.000 A 
BRANCH   3  10
ATOM     10  C   UNL     1       2.075   4.439  21.319  0.00  0.00    +0.000 C 
BRANCH  10  11
ATOM     11  C   UNL     1       1.512   3.038  21.044  0.00  0.00    +0.000 C 
BRANCH  11  13
ATOM     12  C   UNL     1       1.289   2.152  18.701  0.00  0.00    +0.000 C 
ATOM     13  C   UNL     1       0.619   2.961  19.802  0.00  0.00    +0.000 C 
ENDBRANCH  11  13
ENDBRANCH  10  11
ENDBRANCH   3  10
ENDBRANCH   1   6
BRANCH   1  14
ATOM     14  C   UNL     1       6.286   7.006  16.837  0.00  0.00    +0.000 C 
ATOM     15  S   UNL     1       7.538   7.809  17.596  0.00  0.00    +0.000 S 
BRANCH  14  16
ATOM     16  N   UNL     1       6.613   6.115  15.846  0.00  0.00    +0.000 N 
ATOM     17  H   UNL     1       6.153   6.304  14.964  0.00  0.00    +0.000 HD
BRANCH  16  18
ATOM     18  C   UNL     1       7.133   4.767  16.042  0.00  0.00    +0.000 C 
BRANCH  18  19
ATOM     19  C   UNL     1       6.170   3.695  15.526  0.00  0.00    +0.000 C 
BRANCH  19  20
ATOM     20  C   UNL     1       5.236   4.250  14.461  0.00  0.00    +0.000 C 
BRANCH  20  21
ATOM     21  O   UNL     1       5.884   4.153  13.196  0.00  0.00    +0.000 OA
BRANCH  21  22
ATOM     22  C   UNL     1       5.328   3.126  12.384  0.00  0.00    +0.000 C 
BRANCH  22  23
ATOM     23  C   UNL     1       4.580   3.793  11.234  0.00  0.00    +0.000 C 
ATOM     24  C   UNL     1       3.416   2.949  10.750  0.00  0.00    +0.000 C 
ENDBRANCH  22  23
ENDBRANCH  21  22
ENDBRANCH  20  21
ENDBRANCH  19  20
ENDBRANCH  18  19
ENDBRANCH  16  18
ENDBRANCH  14  16
ENDBRANCH   1  14
TORSDOF 12
ENDMDL
MODEL 6
REMARK VINA RESULT:      -6.1      4.298      6.649
REMARK  Name = 
REMARK  15 active torsions:
REMARK  status: ('A' for Active; 'I' for Inactive)
REMARK    1  A    between atoms: C_1  and  C_2
REMARK    2  A    between atoms: C_2  and  C_3
REMARK    3  A    between atoms: C_3  and  C_4
REMARK    4  A    between atoms: C_4  and  C_5
REMARK    5  A    between atoms: C_8  and  N_9
REMARK    6  A    between atoms: N_9  and  C_10
REMARK    7  A    between atoms: C_10  and  N_12
REMARK    8  A    between atoms: N_12  and  C_13
REMARK    9  A    between atoms: C_13  and  C_14
REMARK   10  A    between atoms: C_14  and  C_15
REMARK   11  A    between atoms: C_15  and  O_16
REMARK   12  A    between atoms: O_16  and  C_17
REMARK   13  A    between atoms: C_17  and  C_18
REMARK   14  A    between atoms: C_18  and  C_19
REMARK   15  A    between atoms: C_20  and  C_21
REMARK                            x       y       z     vdW  Elec       q    Type
REMARK                         _______ _______ _______ _____ _____    ______ ____
ROOT
ATOM      1  N   UNL     1       5.577   6.958  17.147  0.00  0.00    +0.000 N 
ATOM      2  H   UNL     1       5.437   7.695  16.469  0.00  0.00    +0.000 HD
ENDROOT
BRANCH   1   6
ATOM      3  C   UNL     1       2.446   4.263  18.051  0.00  0.00    +0.000 A 
ATOM      4  C   UNL     1       3.652   3.791  17.531  0.00  0.00    +0.000 A 
ATOM      5  C   UNL     1       4.666   4.690  17.179  0.00  0.00    +0.000 A 
ATOM      6  C   UNL     1       4.494   6.073  17.326  0.00  0.00    +0.000 A 
ATOM      7  C   UNL     1       3.260   6.558  17.788  0.00  0.00    +0.000 A 
ATOM      8  C   UNL     1       2.942   8.022  17.918  0.00  0.00    +0.000 C 
ATOM      9  C   UNL     1       2.254   5.646  18.154  0.00  0.00    +0.000 A 
BRANCH   3  10
ATOM     10  C   UNL     1       1.353   3.319  18.492  0.00  0.00    +0.000 C 
BRANCH  10  11
ATOM     11  C   UNL     1       0.779   3.600  19.887  0.00  0.00    +0.000 C 
BRANCH  11  13
ATOM     12  C   UNL     1       2.280   2.643  21.663  0.00  0.00    +0.000 C 
ATOM     13  C   UNL     1       1.842   3.911  20.945  0.00  0.00    +0.000 C 
ENDBRANCH  11  13
ENDBRANCH  10  11
ENDBRANCH   3  10
ENDBRANCH   1   6
BRANCH   1  14
ATOM     14  C   UNL     1       6.853   6.887  17.640  0.00  0.00    +0.000 C 
ATOM     15  S   UNL     1       7.475   5.735  18.676  0.00  0.00    +0.000 S 
BRANCH  14  16
ATOM     16  N   UNL     1       7.712   7.851  17.175  0.00  0.00    +0.000 N 
ATOM     17  H   UNL     1       8.566   7.475  16.779  0.00  0.00    +0.000 HD
BRANCH  16  18
ATOM     18  C   UNL     1       7.738   9.249  17.589  0.00  0.00    +0.000 C 
BRANCH  18  19
ATOM     19  C   UNL     1       8.774   9.509  18.686  0.00  0.00    +0.000 C 
BRANCH  19  20
ATOM     20  C   UNL     1       9.372  10.903  18.569  0.00  0.00    +0.000 C 
BRANCH  20  21
ATOM     21  O   UNL     1      10.631  10.913  19.234  0.00  0.00    +0.000 OA
BRANCH  21  22
ATOM     22  C   UNL     1      10.858  12.127  19.939  0.00  0.00    +0.000 C 
BRANCH  22  23
ATOM     23  C   UNL     1      10.029  12.086  21.219  0.00  0.00    +0.000 C 
ATOM     24  C   UNL     1       9.376  13.423  21.515  0.00  0.00    +0.000 C 
ENDBRANCH  22  23
ENDBRANCH  21  22
ENDBRANCH  20  21
ENDBRANCH  19  20
ENDBRANCH  18  19
ENDBRANCH  16  18
ENDBRANCH  14  16
ENDBRANCH   1  14
TORSDOF 12
ENDMDL
MODEL 7
REMARK VINA RESULT:      -6.1      4.447      6.556
REMARK  Name = 
REMARK  15 active torsions:
REMARK  status: ('A' for Active; 'I' for Inactive)
REMARK    1  A    between atoms: C_1  and  C_2
REMARK    2  A    between atoms: C_2  and  C_3
REMARK    3  A    between atoms: C_3  and  C_4
REMARK    4  A    between atoms: C_4  and  C_5
REMARK    5  A    between atoms: C_8  and  N_9
REMARK    6  A    between atoms: N_9  and  C_10
REMARK    7  A    between atoms: C_10  and  N_12
REMARK    8  A    between atoms: N_12  and  C_13
REMARK    9  A    between atoms: C_13  and  C_14
REMARK   10  A    between atoms: C_14  and  C_15
REMARK   11  A    between atoms: C_15  and  O_16
REMARK   12  A    between atoms: O_16  and  C_17
REMARK   13  A    between atoms: C_17  and  C_18
REMARK   14  A    between atoms: C_18  and  C_19
REMARK   15  A    between atoms: C_20  and  C_21
REMARK                            x       y       z     vdW  Elec       q    Type
REMARK                         _______ _______ _______ _____ _____    ______ ____
ROOT
ATOM      1  N   UNL     1       5.834   6.550  17.011  0.00  0.00    +0.000 N 
ATOM      2  H   UNL     1       5.819   6.886  16.058  0.00  0.00    +0.000 HD
ENDROOT
BRANCH   1   6
ATOM      3  C   UNL     1       2.376   4.271  17.867  0.00  0.00    +0.000 A 
ATOM      4  C   UNL     1       2.575   5.506  18.486  0.00  0.00    +0.000 A 
ATOM      5  C   UNL     1       3.747   6.233  18.244  0.00  0.00    +0.000 A 
ATOM      6  C   UNL     1       4.746   5.738  17.396  0.00  0.00    +0.000 A 
ATOM      7  C   UNL     1       4.581   4.467  16.821  0.00  0.00    +0.000 A 
ATOM      8  C   UNL     1       5.618   3.810  15.952  0.00  0.00    +0.000 C 
ATOM      9  C   UNL     1       3.392   3.753  17.056  0.00  0.00    +0.000 A 
BRANCH   3  10
ATOM     10  C   UNL     1       1.099   3.488  18.062  0.00  0.00    +0.000 C 
BRANCH  10  11
ATOM     11  C   UNL     1       0.922   2.875  19.457  0.00  0.00    +0.000 C 
BRANCH  11  13
ATOM     12  C   UNL     1       2.337   3.015  21.531  0.00  0.00    +0.000 C 
ATOM     13  C   UNL     1       2.235   2.451  20.121  0.00  0.00    +0.000 C 
ENDBRANCH  11  13
ENDBRANCH  10  11
ENDBRANCH   3  10
ENDBRANCH   1   6
BRANCH   1  14
ATOM     14  C   UNL     1       6.993   6.832  17.685  0.00  0.00    +0.000 C 
ATOM     15  S   UNL     1       7.791   5.855  18.779  0.00  0.00    +0.000 S 
BRANCH  14  16
ATOM     16  N   UNL     1       7.572   8.035  17.370  0.00  0.00    +0.000 N 
ATOM     17  H   UNL     1       7.682   8.183  16.374  0.00  0.00    +0.000 HD
BRANCH  16  18
ATOM     18  C   UNL     1       8.408   8.841  18.252  0.00  0.00    +0.000 C 
BRANCH  18  19
ATOM     19  C   UNL     1       8.551  10.283  17.755  0.00  0.00    +0.000 C 
BRANCH  19  20
ATOM     20  C   UNL     1       9.573  11.056  18.576  0.00  0.00    +0.000 C 
BRANCH  20  21
ATOM     21  O   UNL     1       9.039  12.344  18.867  0.00  0.00    +0.000 OA
BRANCH  21  22
ATOM     22  C   UNL     1       9.452  13.324  17.922  0.00  0.00    +0.000 C 
BRANCH  22  23
ATOM     23  C   UNL     1      10.976  13.369  17.932  0.00  0.00    +0.000 C 
ATOM     24  C   UNL     1      11.552  13.417  16.529  0.00  0.00    +0.000 C 
ENDBRANCH  22  23
ENDBRANCH  21  22
ENDBRANCH  20  21
ENDBRANCH  19  20
ENDBRANCH  18  19
ENDBRANCH  16  18
ENDBRANCH  14  16
ENDBRANCH   1  14
TORSDOF 12
ENDMDL
MODEL 8
REMARK VINA RESULT:      -6.1      4.470      6.688
REMARK  Name = 
REMARK  15 active torsions:
REMARK  status: ('A' for Active; 'I' for Inactive)
REMARK    1  A    between atoms: C_1  and  C_2
REMARK    2  A    between atoms: C_2  and  C_3
REMARK    3  A    between atoms: C_3  and  C_4
REMARK    4  A    between atoms: C_4  and  C_5
REMARK    5  A    between atoms: C_8  and  N_9
REMARK    6  A    between atoms: N_9  and  C_10
REMARK    7  A    between atoms: C_10  and  N_12
REMARK    8  A    between atoms: N_12  and  C_13
REMARK    9  A    between atoms: C_13  and  C_14
REMARK   10  A    between atoms: C_14  and  C_15
REMARK   11  A    between atoms: C_15  and  O_16
REMARK   12  A    between atoms: O_16  and  C_17
REMARK   13  A    between atoms: C_17  and  C_18
REMARK   14  A    between atoms: C_18  and  C_19
REMARK   15  A    between atoms: C_20  and  C_21
REMARK                            x       y       z     vdW  Elec       q    Type
REMARK                         _______ _______ _______ _____ _____    ______ ____
ROOT
ATOM      1  N   UNL     1       5.879   6.841  16.920  0.00  0.00    +0.000 N 
ATOM      2  H   UNL     1       5.876   7.423  16.093  0.00  0.00    +0.000 HD
ENDROOT
BRANCH   1   6
ATOM      3  C   UNL     1       2.688   4.186  17.729  0.00  0.00    +0.000 A 
ATOM      4  C   UNL     1       3.860   3.716  17.133  0.00  0.00    +0.000 A 
ATOM      5  C   UNL     1       4.892   4.606  16.814  0.00  0.00    +0.000 A 
ATOM      6  C   UNL     1       4.772   5.979  17.070  0.00  0.00    +0.000 A 
ATOM      7  C   UNL     1       3.571   6.467  17.610  0.00  0.00    +0.000 A 
ATOM      8  C   UNL     1       3.308   7.926  17.860  0.00  0.00    +0.000 C 
ATOM      9  C   UNL     1       2.547   5.562  17.942  0.00  0.00    +0.000 A 
BRANCH   3  10
ATOM     10  C   UNL     1       1.578   3.246  18.136  0.00  0.00    +0.000 C 
BRANCH  10  11
ATOM     11  C   UNL     1       2.003   2.115  19.083  0.00  0.00    +0.000 C 
BRANCH  11  13
ATOM     12  C   UNL     1       0.993   3.730  20.725  0.00  0.00    +0.000 C 
ATOM     13  C   UNL     1       1.708   2.397  20.559  0.00  0.00    +0.000 C 
ENDBRANCH  11  13
ENDBRANCH  10  11
ENDBRANCH   3  10
ENDBRANCH   1   6
BRANCH   1  14
ATOM     14  C   UNL     1       7.039   6.905  17.644  0.00  0.00    +0.000 C 
ATOM     15  S   UNL     1       7.575   5.821  18.796  0.00  0.00    +0.000 S 
BRANCH  14  16
ATOM     16  N   UNL     1       7.863   7.958  17.334  0.00  0.00    +0.000 N 
ATOM     17  H   UNL     1       8.810   7.678  17.109  0.00  0.00    +0.000 HD
BRANCH  16  18
ATOM     18  C   UNL     1       7.662   9.348  17.726  0.00  0.00    +0.000 C 
BRANCH  18  19
ATOM     19  C   UNL     1       8.953   9.999  18.231  0.00  0.00    +0.000 C 
BRANCH  19  20
ATOM     20  C   UNL     1       8.943  11.504  18.006  0.00  0.00    +0.000 C 
BRANCH  20  21
ATOM     21  O   UNL     1       9.360  12.144  19.208  0.00  0.00    +0.000 OA
BRANCH  21  22
ATOM     22  C   UNL     1      10.325  13.162  18.969  0.00  0.00    +0.000 C 
BRANCH  22  23
ATOM     23  C   UNL     1      11.446  12.992  19.989  0.00  0.00    +0.000 C 
ATOM     24  C   UNL     1      12.331  11.802  19.666  0.00  0.00    +0.000 C 
ENDBRANCH  22  23
ENDBRANCH  21  22
ENDBRANCH  20  21
ENDBRANCH  19  20
ENDBRANCH  18  19
ENDBRANCH  16  18
ENDBRANCH  14  16
ENDBRANCH   1  14
TORSDOF 12
ENDMDL
MODEL 9
REMARK VINA RESULT:      -6.1      4.082      6.406
REMARK  Name = 
REMARK  15 active torsions:
REMARK  status: ('A' for Active; 'I' for Inactive)
REMARK    1  A    between atoms: C_1  and  C_2
REMARK    2  A    between atoms: C_2  and  C_3
REMARK    3  A    between atoms: C_3  and  C_4
REMARK    4  A    between atoms: C_4  and  C_5
REMARK    5  A    between atoms: C_8  and  N_9
REMARK    6  A    between atoms: N_9  and  C_10
REMARK    7  A    between atoms: C_10  and  N_12
REMARK    8  A    between atoms: N_12  and  C_13
REMARK    9  A    between atoms: C_13  and  C_14
REMARK   10  A    between atoms: C_14  and  C_15
REMARK   11  A    between atoms: C_15  and  O_16
REMARK   12  A    between atoms: O_16  and  C_17
REMARK   13  A    between atoms: C_17  and  C_18
REMARK   14  A    between atoms: C_18  and  C_19
REMARK   15  A    between atoms: C_20  and  C_21
REMARK                            x       y       z     vdW  Elec       q    Type
REMARK                         _______ _______ _______ _____ _____    ______ ____
ROOT
ATOM      1  N   UNL     1       5.595   6.328  17.496  0.00  0.00    +0.000 N 
ATOM      2  H   UNL     1       5.547   7.222  17.966  0.00  0.00    +0.000 HD
ENDROOT
BRANCH   1   6
ATOM      3  C   UNL     1       2.175   3.905  18.056  0.00  0.00    +0.000 A 
ATOM      4  C   UNL     1       3.385   3.333  17.659  0.00  0.00    +0.000 A 
ATOM      5  C   UNL     1       4.501   4.143  17.419  0.00  0.00    +0.000 A 
ATOM      6  C   UNL     1       4.430   5.536  17.557  0.00  0.00    +0.000 A 
ATOM      7  C   UNL     1       3.199   6.124  17.894  0.00  0.00    +0.000 A 
ATOM      8  C   UNL     1       2.992   7.609  18.000  0.00  0.00    +0.000 C 
ATOM      9  C   UNL     1       2.089   5.299  18.149  0.00  0.00    +0.000 A 
BRANCH   3  10
ATOM     10  C   UNL     1       0.968   3.055  18.377  0.00  0.00    +0.000 C 
BRANCH  10  11
ATOM     11  C   UNL     1       1.112   2.171  19.623  0.00  0.00    +0.000 C 
BRANCH  11  13
ATOM     12  C   UNL     1       2.580   2.750  21.581  0.00  0.00    +0.000 C 
ATOM     13  C   UNL     1       1.219   2.957  20.933  0.00  0.00    +0.000 C 
ENDBRANCH  11  13
ENDBRANCH  10  11
ENDBRANCH   3  10
ENDBRANCH   1   6
BRANCH   1  14
ATOM     14  C   UNL     1       6.739   6.143  16.765  0.00  0.00    +0.000 C 
ATOM     15  S   UNL     1       7.061   4.911  15.685  0.00  0.00    +0.000 S 
BRANCH  14  16
ATOM     16  N   UNL     1       7.691   7.119  16.916  0.00  0.00    +0.000 N 
ATOM     17  H   UNL     1       8.639   6.760  16.939  0.00  0.00    +0.000 HD
BRANCH  16  18
ATOM     18  C   UNL     1       7.477   8.447  17.477  0.00  0.00    +0.000 C 
BRANCH  18  19
ATOM     19  C   UNL     1       8.665   8.918  18.320  0.00  0.00    +0.000 C 
BRANCH  19  20
ATOM     20  C   UNL     1       8.760  10.437  18.351  0.00  0.00    +0.000 C 
BRANCH  20  21
ATOM     21  O   UNL     1       9.358  10.828  19.583  0.00  0.00    +0.000 OA
BRANCH  21  22
ATOM     22  C   UNL     1      10.708  11.243  19.418  0.00  0.00    +0.000 C 
BRANCH  22  23
ATOM     23  C   UNL     1      10.988  12.342  20.437  0.00  0.00    +0.000 C 
ATOM     24  C   UNL     1       9.866  12.476  21.449  0.00  0.00    +0.000 C 
ENDBRANCH  22  23
ENDBRANCH  21  22
ENDBRANCH  20  21
ENDBRANCH  19  20
ENDBRANCH  18  19
ENDBRANCH  16  18
ENDBRANCH  14  16
ENDBRANCH   1  14
TORSDOF 12
ENDMDL
