MODEL 1
REMARK VINA RESULT:      -7.7      0.000      0.000
REMARK  Name = 
REMARK  6 active torsions:
REMARK  status: ('A' for Active; 'I' for Inactive)
REMARK    1  A    between atoms: C_1  and  O_2
REMARK    2  A    between atoms: O_2  and  C_3
REMARK    3  A    between atoms: N_8  and  C_9
REMARK    4  A    between atoms: C_14  and  O_15
REMARK    5  A    between atoms: O_15  and  C_16
REMARK    6  A    between atoms: C_16  and  C_17
REMARK                            x       y       z     vdW  Elec       q    Type
REMARK                         _______ _______ _______ _____ _____    ______ ____
ROOT
ATOM      1  C   UNL     1       6.151   5.955  16.704  0.00  0.00    +0.000 A 
ATOM      2  C   UNL     1       5.047   6.810  16.609  0.00  0.00    +0.000 A 
ATOM      3  C   UNL     1       4.090   6.875  17.625  0.00  0.00    +0.000 A 
ATOM      4  C   UNL     1       4.204   6.050  18.743  0.00  0.00    +0.000 A 
ATOM      5 CL   UNL     1       2.987   6.155  19.963  0.00  0.00    +0.000 Cl
ATOM      6  C   UNL     1       5.269   5.147  18.840  0.00  0.00    +0.000 A 
ATOM      7  C   UNL     1       6.251   5.141  17.836  0.00  0.00    +0.000 A 
ENDROOT
BRANCH   1  13
ATOM      8  C   UNL     1       5.825   3.853  12.972  0.00  0.00    +0.000 A 
ATOM      9  C   UNL     1       6.779   4.002  12.003  0.00  0.00    +0.000 A 
ATOM     10  C   UNL     1       7.866   4.751  12.375  0.00  0.00    +0.000 A 
ATOM     11  N   UNL     1       7.997   5.333  13.584  0.00  0.00    +0.000 NA
ATOM     12  C   UNL     1       6.978   5.174  14.441  0.00  0.00    +0.000 A 
ATOM     13  N   UNL     1       7.091   5.796  15.679  0.00  0.00    +0.000 N 
ATOM     14  N   UNL     1       5.903   4.430  14.176  0.00  0.00    +0.000 NA
ATOM     15  H   UNL     1       8.018   6.170  15.810  0.00  0.00    +0.000 HD
BRANCH   8  17
ATOM     16  C   UNL     1       4.493   3.006  11.258  0.00  0.00    +0.000 C 
ATOM     17  O   UNL     1       4.708   3.106  12.668  0.00  0.00    +0.000 OA
ENDBRANCH   8  17
ENDBRANCH   1  13
BRANCH   6  18
ATOM     18  O   UNL     1       5.293   4.289  19.916  0.00  0.00    +0.000 OA
BRANCH  18  19
ATOM     19  C   UNL     1       4.748   2.992  19.644  0.00  0.00    +0.000 C 
BRANCH  19  20
ATOM     20  C   UNL     1       3.263   2.884  19.891  0.00  0.00    +0.000 A 
ATOM     21  C   UNL     1       2.739   2.821  21.196  0.00  0.00    +0.000 A 
ATOM     22  C   UNL     1       1.362   2.734  21.408  0.00  0.00    +0.000 A 
ATOM     23  C   UNL     1       0.488   2.713  20.326  0.00  0.00    +0.000 A 
ATOM     24  C   UNL     1       0.986   2.775  19.028  0.00  0.00    +0.000 A 
ATOM     25  C   UNL     1       2.364   2.850  18.812  0.00  0.00    +0.000 A 
ATOM     26 BR   UNL     1       2.952   2.920  17.001  0.00  0.00    +0.000 Br
ENDBRANCH  19  20
ENDBRANCH  18  19
ENDBRANCH   6  18
TORSDOF 5
ENDMDL
MODEL 2
REMARK VINA RESULT:      -7.6      3.422      5.174
REMARK  Name = 
REMARK  6 active torsions:
REMARK  status: ('A' for Active; 'I' for Inactive)
REMARK    1  A    between atoms: C_1  and  O_2
REMARK    2  A    between atoms: O_2  and  C_3
REMARK    3  A    between atoms: N_8  and  C_9
REMARK    4  A    between atoms: C_14  and  O_15
REMARK    5  A    between atoms: O_15  and  C_16
REMARK    6  A    between atoms: C_16  and  C_17
REMARK                            x       y       z     vdW  Elec       q    Type
REMARK                         _______ _______ _______ _____ _____    ______ ____
ROOT
ATOM      1  C   UNL     1       3.018   3.620  17.701  0.00  0.00    +0.000 A 
ATOM      2  C   UNL     1       2.936   2.343  18.269  0.00  0.00    +0.000 A 
ATOM      3  C   UNL     1       2.369   2.143  19.530  0.00  0.00    +0.000 A 
ATOM      4  C   UNL     1       1.907   3.233  20.266  0.00  0.00    +0.000 A 
ATOM      5 CL   UNL     1       1.231   2.938  21.827  0.00  0.00    +0.000 Cl
ATOM      6  C   UNL     1       2.024   4.527  19.747  0.00  0.00    +0.000 A 
ATOM      7  C   UNL     1       2.542   4.699  18.452  0.00  0.00    +0.000 A 
ENDROOT
BRANCH   1  13
ATOM      8  C   UNL     1       7.029   4.926  16.896  0.00  0.00    +0.000 A 
ATOM      9  C   UNL     1       7.525   4.908  15.621  0.00  0.00    +0.000 A 
ATOM     10  C   UNL     1       6.613   4.571  14.652  0.00  0.00    +0.000 A 
ATOM     11  N   UNL     1       5.330   4.248  14.912  0.00  0.00    +0.000 NA
ATOM     12  C   UNL     1       4.960   4.240  16.200  0.00  0.00    +0.000 A 
ATOM     13  N   UNL     1       3.647   3.880  16.479  0.00  0.00    +0.000 N 
ATOM     14  N   UNL     1       5.771   4.592  17.200  0.00  0.00    +0.000 NA
ATOM     15  H   UNL     1       3.105   3.814  15.631  0.00  0.00    +0.000 HD
BRANCH   8  17
ATOM     16  C   UNL     1       7.196   5.593  19.122  0.00  0.00    +0.000 C 
ATOM     17  O   UNL     1       7.890   5.262  17.918  0.00  0.00    +0.000 OA
ENDBRANCH   8  17
ENDBRANCH   1  13
BRANCH   6  18
ATOM     18  O   UNL     1       1.639   5.582  20.544  0.00  0.00    +0.000 OA
BRANCH  18  19
ATOM     19  C   UNL     1       2.301   6.816  20.245  0.00  0.00    +0.000 C 
BRANCH  19  20
ATOM     20  C   UNL     1       1.478   8.046  20.545  0.00  0.00    +0.000 A 
ATOM     21  C   UNL     1       0.925   8.263  21.821  0.00  0.00    +0.000 A 
ATOM     22  C   UNL     1       0.177   9.411  22.087  0.00  0.00    +0.000 A 
ATOM     23  C   UNL     1      -0.025  10.361  21.089  0.00  0.00    +0.000 A 
ATOM     24  C   UNL     1       0.514  10.164  19.822  0.00  0.00    +0.000 A 
ATOM     25  C   UNL     1       1.253   9.010  19.549  0.00  0.00    +0.000 A 
ATOM     26 BR   UNL     1       1.943   8.824  17.783  0.00  0.00    +0.000 Br
ENDBRANCH  19  20
ENDBRANCH  18  19
ENDBRANCH   6  18
TORSDOF 5
ENDMDL
MODEL 3
REMARK VINA RESULT:      -7.6      3.123      5.255
REMARK  Name = 
REMARK  6 active torsions:
REMARK  status: ('A' for Active; 'I' for Inactive)
REMARK    1  A    between atoms: C_1  and  O_2
REMARK    2  A    between atoms: O_2  and  C_3
REMARK    3  A    between atoms: N_8  and  C_9
REMARK    4  A    between atoms: C_14  and  O_15
REMARK    5  A    between atoms: O_15  and  C_16
REMARK    6  A    between atoms: C_16  and  C_17
REMARK                            x       y       z     vdW  Elec       q    Type
REMARK                         _______ _______ _______ _____ _____    ______ ____
ROOT
ATOM      1  C   UNL     1       2.988   3.518  17.628  0.00  0.00    +0.000 A 
ATOM      2  C   UNL     1       3.049   2.258  18.233  0.00  0.00    +0.000 A 
ATOM      3  C   UNL     1       2.483   2.028  19.490  0.00  0.00    +0.000 A 
ATOM      4  C   UNL     1       1.877   3.074  20.183  0.00  0.00    +0.000 A 
ATOM      5 CL   UNL     1       1.207   2.744  21.739  0.00  0.00    +0.000 Cl
ATOM      6  C   UNL     1       1.848   4.357  19.625  0.00  0.00    +0.000 A 
ATOM      7  C   UNL     1       2.370   4.553  18.336  0.00  0.00    +0.000 A 
ENDROOT
BRANCH   1  13
ATOM      8  C   UNL     1       7.024   4.748  16.824  0.00  0.00    +0.000 A 
ATOM      9  C   UNL     1       7.502   4.776  15.543  0.00  0.00    +0.000 A 
ATOM     10  C   UNL     1       6.568   4.511  14.573  0.00  0.00    +0.000 A 
ATOM     11  N   UNL     1       5.280   4.212  14.836  0.00  0.00    +0.000 NA
ATOM     12  C   UNL     1       4.927   4.154  16.129  0.00  0.00    +0.000 A 
ATOM     13  N   UNL     1       3.609   3.818  16.410  0.00  0.00    +0.000 N 
ATOM     14  N   UNL     1       5.761   4.435  17.132  0.00  0.00    +0.000 NA
ATOM     15  H   UNL     1       3.053   3.807  15.568  0.00  0.00    +0.000 HD
BRANCH   8  17
ATOM     16  C   UNL     1       7.617   6.245  18.508  0.00  0.00    +0.000 C 
ATOM     17  O   UNL     1       7.909   5.012  17.848  0.00  0.00    +0.000 OA
ENDBRANCH   8  17
ENDBRANCH   1  13
BRANCH   6  18
ATOM     18  O   UNL     1       1.320   5.379  20.382  0.00  0.00    +0.000 OA
BRANCH  18  19
ATOM     19  C   UNL     1       2.223   6.469  20.607  0.00  0.00    +0.000 C 
BRANCH  19  20
ATOM     20  C   UNL     1       1.925   7.697  19.781  0.00  0.00    +0.000 A 
ATOM     21  C   UNL     1       2.406   7.829  18.464  0.00  0.00    +0.000 A 
ATOM     22  C   UNL     1       2.112   8.964  17.709  0.00  0.00    +0.000 A 
ATOM     23  C   UNL     1       1.331   9.981  18.250  0.00  0.00    +0.000 A 
ATOM     24  C   UNL     1       0.845   9.870  19.549  0.00  0.00    +0.000 A 
ATOM     25  C   UNL     1       1.148   8.739  20.312  0.00  0.00    +0.000 A 
ATOM     26 BR   UNL     1       0.448   8.680  22.083  0.00  0.00    +0.000 Br
ENDBRANCH  19  20
ENDBRANCH  18  19
ENDBRANCH   6  18
TORSDOF 5
ENDMDL
MODEL 4
REMARK VINA RESULT:      -7.4      4.534      7.604
REMARK  Name = 
REMARK  6 active torsions:
REMARK  status: ('A' for Active; 'I' for Inactive)
REMARK    1  A    between atoms: C_1  and  O_2
REMARK    2  A    between atoms: O_2  and  C_3
REMARK    3  A    between atoms: N_8  and  C_9
REMARK    4  A    between atoms: C_14  and  O_15
REMARK    5  A    between atoms: O_15  and  C_16
REMARK    6  A    between atoms: C_16  and  C_17
REMARK                            x       y       z     vdW  Elec       q    Type
REMARK                         _______ _______ _______ _____ _____    ______ ____
ROOT
ATOM      1  C   UNL     1       1.945   5.846  20.480  0.00  0.00    +0.000 A 
ATOM      2  C   UNL     1       1.128   4.726  20.676  0.00  0.00    +0.000 A 
ATOM      3  C   UNL     1       1.211   3.612  19.837  0.00  0.00    +0.000 A 
ATOM      4  C   UNL     1       2.092   3.617  18.757  0.00  0.00    +0.000 A 
ATOM      5 CL   UNL     1       2.146   2.223  17.739  0.00  0.00    +0.000 Cl
ATOM      6  C   UNL     1       2.883   4.743  18.505  0.00  0.00    +0.000 A 
ATOM      7  C   UNL     1       2.827   5.829  19.396  0.00  0.00    +0.000 A 
ENDROOT
BRANCH   1  13
ATOM      8  C   UNL     1       0.581   9.758  19.349  0.00  0.00    +0.000 A 
ATOM      9  C   UNL     1       0.344  10.715  20.297  0.00  0.00    +0.000 A 
ATOM     10  C   UNL     1       0.695  10.359  21.575  0.00  0.00    +0.000 A 
ATOM     11  N   UNL     1       1.206   9.155  21.903  0.00  0.00    +0.000 NA
ATOM     12  C   UNL     1       1.345   8.268  20.908  0.00  0.00    +0.000 A 
ATOM     13  N   UNL     1       1.843   7.015  21.242  0.00  0.00    +0.000 N 
ATOM     14  N   UNL     1       1.065   8.545  19.632  0.00  0.00    +0.000 NA
ATOM     15  H   UNL     1       2.174   7.002  22.195  0.00  0.00    +0.000 HD
BRANCH   8  17
ATOM     16  C   UNL     1      -1.148  10.236  17.861  0.00  0.00    +0.000 C 
ATOM     17  O   UNL     1       0.258  10.053  18.041  0.00  0.00    +0.000 OA
ENDBRANCH   8  17
ENDBRANCH   1  13
BRANCH   6  18
ATOM     18  O   UNL     1       3.672   4.741  17.377  0.00  0.00    +0.000 OA
BRANCH  18  19
ATOM     19  C   UNL     1       4.970   4.165  17.570  0.00  0.00    +0.000 C 
BRANCH  19  20
ATOM     20  C   UNL     1       6.048   5.170  17.899  0.00  0.00    +0.000 A 
ATOM     21  C   UNL     1       6.813   5.065  19.075  0.00  0.00    +0.000 A 
ATOM     22  C   UNL     1       7.815   5.995  19.359  0.00  0.00    +0.000 A 
ATOM     23  C   UNL     1       8.071   7.038  18.474  0.00  0.00    +0.000 A 
ATOM     24  C   UNL     1       7.326   7.159  17.305  0.00  0.00    +0.000 A 
ATOM     25  C   UNL     1       6.315   6.236  17.024  0.00  0.00    +0.000 A 
ATOM     26 BR   UNL     1       5.341   6.488  15.406  0.00  0.00    +0.000 Br
ENDBRANCH  19  20
ENDBRANCH  18  19
ENDBRANCH   6  18
TORSDOF 5
ENDMDL
MODEL 5
REMARK VINA RESULT:      -7.3      3.286      4.046
REMARK  Name = 
REMARK  6 active torsions:
REMARK  status: ('A' for Active; 'I' for Inactive)
REMARK    1  A    between atoms: C_1  and  O_2
REMARK    2  A    between atoms: O_2  and  C_3
REMARK    3  A    between atoms: N_8  and  C_9
REMARK    4  A    between atoms: C_14  and  O_15
REMARK    5  A    between atoms: O_15  and  C_16
REMARK    6  A    between atoms: C_16  and  C_17
REMARK                            x       y       z     vdW  Elec       q    Type
REMARK                         _______ _______ _______ _____ _____    ______ ____
ROOT
ATOM      1  C   UNL     1       4.873   4.703  16.789  0.00  0.00    +0.000 A 
ATOM      2  C   UNL     1       4.582   3.418  17.263  0.00  0.00    +0.000 A 
ATOM      3  C   UNL     1       3.442   3.169  18.032  0.00  0.00    +0.000 A 
ATOM      4  C   UNL     1       2.590   4.218  18.373  0.00  0.00    +0.000 A 
ATOM      5 CL   UNL     1       1.204   3.863  19.339  0.00  0.00    +0.000 Cl
ATOM      6  C   UNL     1       2.884   5.521  17.958  0.00  0.00    +0.000 A 
ATOM      7  C   UNL     1       4.002   5.739  17.136  0.00  0.00    +0.000 A 
ENDROOT
BRANCH   1  13
ATOM      8  C   UNL     1       6.025   3.693  12.776  0.00  0.00    +0.000 A 
ATOM      9  C   UNL     1       7.112   4.284  12.193  0.00  0.00    +0.000 A 
ATOM     10  C   UNL     1       7.841   5.096  13.025  0.00  0.00    +0.000 A 
ATOM     11  N   UNL     1       7.517   5.335  14.312  0.00  0.00    +0.000 NA
ATOM     12  C   UNL     1       6.399   4.752  14.769  0.00  0.00    +0.000 A 
ATOM     13  N   UNL     1       6.042   5.017  16.085  0.00  0.00    +0.000 N 
ATOM     14  N   UNL     1       5.654   3.918  14.040  0.00  0.00    +0.000 NA
ATOM     15  H   UNL     1       6.778   5.511  16.565  0.00  0.00    +0.000 HD
BRANCH   8  17
ATOM     16  C   UNL     1       6.028   1.848  11.352  0.00  0.00    +0.000 C 
ATOM     17  O   UNL     1       5.251   2.859  11.998  0.00  0.00    +0.000 OA
ENDBRANCH   8  17
ENDBRANCH   1  13
BRANCH   6  18
ATOM     18  O   UNL     1       2.065   6.539  18.394  0.00  0.00    +0.000 OA
BRANCH  18  19
ATOM     19  C   UNL     1       2.538   7.210  19.568  0.00  0.00    +0.000 C 
BRANCH  19  20
ATOM     20  C   UNL     1       1.532   8.150  20.187  0.00  0.00    +0.000 A 
ATOM     21  C   UNL     1       0.934   7.869  21.430  0.00  0.00    +0.000 A 
ATOM     22  C   UNL     1       0.016   8.754  21.996  0.00  0.00    +0.000 A 
ATOM     23  C   UNL     1      -0.316   9.934  21.335  0.00  0.00    +0.000 A 
ATOM     24  C   UNL     1       0.265  10.231  20.107  0.00  0.00    +0.000 A 
ATOM     25  C   UNL     1       1.176   9.340  19.532  0.00  0.00    +0.000 A 
ATOM     26 BR   UNL     1       1.911   9.827  17.843  0.00  0.00    +0.000 Br
ENDBRANCH  19  20
ENDBRANCH  18  19
ENDBRANCH   6  18
TORSDOF 5
ENDMDL
MODEL 6
REMARK VINA RESULT:      -7.3      3.978      7.124
REMARK  Name = 
REMARK  6 active torsions:
REMARK  status: ('A' for Active; 'I' for Inactive)
REMARK    1  A    between atoms: C_1  and  O_2
REMARK    2  A    between atoms: O_2  and  C_3
REMARK    3  A    between atoms: N_8  and  C_9
REMARK    4  A    between atoms: C_14  and  O_15
REMARK    5  A    between atoms: O_15  and  C_16
REMARK    6  A    between atoms: C_16  and  C_17
REMARK                            x       y       z     vdW  Elec       q    Type
REMARK                         _______ _______ _______ _____ _____    ______ ____
ROOT
ATOM      1  C   UNL     1       1.897   5.063  20.640  0.00  0.00    +0.000 A 
ATOM      2  C   UNL     1       1.021   4.021  20.314  0.00  0.00    +0.000 A 
ATOM      3  C   UNL     1       1.481   2.848  19.710  0.00  0.00    +0.000 A 
ATOM      4  C   UNL     1       2.830   2.715  19.385  0.00  0.00    +0.000 A 
ATOM      5 CL   UNL     1       3.347   1.254  18.625  0.00  0.00    +0.000 Cl
ATOM      6  C   UNL     1       3.720   3.762  19.651  0.00  0.00    +0.000 A 
ATOM      7  C   UNL     1       3.247   4.907  20.312  0.00  0.00    +0.000 A 
ENDROOT
BRANCH   1  13
ATOM      8  C   UNL     1       1.736   8.947  18.814  0.00  0.00    +0.000 A 
ATOM      9  C   UNL     1       1.079   9.978  19.426  0.00  0.00    +0.000 A 
ATOM     10  C   UNL     1       0.610   9.697  20.685  0.00  0.00    +0.000 A 
ATOM     11  N   UNL     1       0.746   8.496  21.283  0.00  0.00    +0.000 NA
ATOM     12  C   UNL     1       1.355   7.535  20.573  0.00  0.00    +0.000 A 
ATOM     13  N   UNL     1       1.473   6.286  21.171  0.00  0.00    +0.000 N 
ATOM     14  N   UNL     1       1.874   7.735  19.360  0.00  0.00    +0.000 NA
ATOM     15  H   UNL     1       1.202   6.325  22.141  0.00  0.00    +0.000 HD
BRANCH   8  17
ATOM     16  C   UNL     1       3.280   8.244  17.217  0.00  0.00    +0.000 C 
ATOM     17  O   UNL     1       2.238   9.163  17.548  0.00  0.00    +0.000 OA
ENDBRANCH   8  17
ENDBRANCH   1  13
BRANCH   6  18
ATOM     18  O   UNL     1       5.024   3.624  19.231  0.00  0.00    +0.000 OA
BRANCH  18  19
ATOM     19  C   UNL     1       5.589   4.818  18.675  0.00  0.00    +0.000 C 
BRANCH  19  20
ATOM     20  C   UNL     1       5.932   4.712  17.209  0.00  0.00    +0.000 A 
ATOM     21  C   UNL     1       5.415   3.676  16.408  0.00  0.00    +0.000 A 
ATOM     22  C   UNL     1       5.731   3.599  15.051  0.00  0.00    +0.000 A 
ATOM     23  C   UNL     1       6.561   4.554  14.471  0.00  0.00    +0.000 A 
ATOM     24  C   UNL     1       7.081   5.587  15.245  0.00  0.00    +0.000 A 
ATOM     25  C   UNL     1       6.776   5.660  16.607  0.00  0.00    +0.000 A 
ATOM     26 BR   UNL     1       7.542   7.102  17.587  0.00  0.00    +0.000 Br
ENDBRANCH  19  20
ENDBRANCH  18  19
ENDBRANCH   6  18
TORSDOF 5
ENDMDL
MODEL 7
REMARK VINA RESULT:      -7.3      3.386      4.495
REMARK  Name = 
REMARK  6 active torsions:
REMARK  status: ('A' for Active; 'I' for Inactive)
REMARK    1  A    between atoms: C_1  and  O_2
REMARK    2  A    between atoms: O_2  and  C_3
REMARK    3  A    between atoms: N_8  and  C_9
REMARK    4  A    between atoms: C_14  and  O_15
REMARK    5  A    between atoms: O_15  and  C_16
REMARK    6  A    between atoms: C_16  and  C_17
REMARK                            x       y       z     vdW  Elec       q    Type
REMARK                         _______ _______ _______ _____ _____    ______ ____
ROOT
ATOM      1  C   UNL     1       4.768   4.026  18.759  0.00  0.00    +0.000 A 
ATOM      2  C   UNL     1       4.404   2.719  19.105  0.00  0.00    +0.000 A 
ATOM      3  C   UNL     1       3.220   2.455  19.799  0.00  0.00    +0.000 A 
ATOM      4  C   UNL     1       2.394   3.506  20.193  0.00  0.00    +0.000 A 
ATOM      5 CL   UNL     1       0.951   3.130  21.062  0.00  0.00    +0.000 Cl
ATOM      6  C   UNL     1       2.759   4.826  19.907  0.00  0.00    +0.000 A 
ATOM      7  C   UNL     1       3.923   5.066  19.158  0.00  0.00    +0.000 A 
ENDROOT
BRANCH   1  13
ATOM      8  C   UNL     1       5.755   4.213  14.583  0.00  0.00    +0.000 A 
ATOM      9  C   UNL     1       6.935   4.767  14.170  0.00  0.00    +0.000 A 
ATOM     10  C   UNL     1       7.791   5.121  15.183  0.00  0.00    +0.000 A 
ATOM     11  N   UNL     1       7.504   4.974  16.492  0.00  0.00    +0.000 NA
ATOM     12  C   UNL     1       6.296   4.475  16.790  0.00  0.00    +0.000 A 
ATOM     13  N   UNL     1       5.979   4.348  18.138  0.00  0.00    +0.000 N 
ATOM     14  N   UNL     1       5.419   4.070  15.869  0.00  0.00    +0.000 NA
ATOM     15  H   UNL     1       6.788   4.522  18.715  0.00  0.00    +0.000 HD
BRANCH   8  17
ATOM     16  C   UNL     1       5.490   3.486  12.385  0.00  0.00    +0.000 C 
ATOM     17  O   UNL     1       4.851   3.829  13.617  0.00  0.00    +0.000 OA
ENDBRANCH   8  17
ENDBRANCH   1  13
BRANCH   6  18
ATOM     18  O   UNL     1       1.961   5.838  20.394  0.00  0.00    +0.000 OA
BRANCH  18  19
ATOM     19  C   UNL     1       2.289   7.138  19.889  0.00  0.00    +0.000 C 
BRANCH  19  20
ATOM     20  C   UNL     1       1.443   8.251  20.457  0.00  0.00    +0.000 A 
ATOM     21  C   UNL     1       0.958   8.202  21.778  0.00  0.00    +0.000 A 
ATOM     22  C   UNL     1       0.188   9.245  22.293  0.00  0.00    +0.000 A 
ATOM     23  C   UNL     1      -0.107  10.353  21.504  0.00  0.00    +0.000 A 
ATOM     24  C   UNL     1       0.363  10.421  20.196  0.00  0.00    +0.000 A 
ATOM     25  C   UNL     1       1.125   9.372  19.673  0.00  0.00    +0.000 A 
ATOM     26 BR   UNL     1       1.715   9.549  17.871  0.00  0.00    +0.000 Br
ENDBRANCH  19  20
ENDBRANCH  18  19
ENDBRANCH   6  18
TORSDOF 5
ENDMDL
MODEL 8
REMARK VINA RESULT:      -7.3      4.216      7.370
REMARK  Name = 
REMARK  6 active torsions:
REMARK  status: ('A' for Active; 'I' for Inactive)
REMARK    1  A    between atoms: C_1  and  O_2
REMARK    2  A    between atoms: O_2  and  C_3
REMARK    3  A    between atoms: N_8  and  C_9
REMARK    4  A    between atoms: C_14  and  O_15
REMARK    5  A    between atoms: O_15  and  C_16
REMARK    6  A    between atoms: C_16  and  C_17
REMARK                            x       y       z     vdW  Elec       q    Type
REMARK                         _______ _______ _______ _____ _____    ______ ____
ROOT
ATOM      1  C   UNL     1       2.038   5.055  20.591  0.00  0.00    +0.000 A 
ATOM      2  C   UNL     1       1.122   4.136  20.067  0.00  0.00    +0.000 A 
ATOM      3  C   UNL     1       1.544   3.041  19.309  0.00  0.00    +0.000 A 
ATOM      4  C   UNL     1       2.898   2.869  19.028  0.00  0.00    +0.000 A 
ATOM      5 CL   UNL     1       3.369   1.511  18.073  0.00  0.00    +0.000 Cl
ATOM      6  C   UNL     1       3.833   3.801  19.494  0.00  0.00    +0.000 A 
ATOM      7  C   UNL     1       3.393   4.861  20.305  0.00  0.00    +0.000 A 
ENDROOT
BRANCH   1  13
ATOM      8  C   UNL     1       1.531   9.079  19.178  0.00  0.00    +0.000 A 
ATOM      9  C   UNL     1       0.938  10.025  19.968  0.00  0.00    +0.000 A 
ATOM     10  C   UNL     1       0.652   9.614  21.245  0.00  0.00    +0.000 A 
ATOM     11  N   UNL     1       0.899   8.370  21.703  0.00  0.00    +0.000 NA
ATOM     12  C   UNL     1       1.430   7.501  20.831  0.00  0.00    +0.000 A 
ATOM     13  N   UNL     1       1.659   6.209  21.287  0.00  0.00    +0.000 N 
ATOM     14  N   UNL     1       1.774   7.829  19.584  0.00  0.00    +0.000 NA
ATOM     15  H   UNL     1       1.522   6.149  22.284  0.00  0.00    +0.000 HD
BRANCH   8  17
ATOM     16  C   UNL     1       2.198  10.810  17.767  0.00  0.00    +0.000 C 
ATOM     17  O   UNL     1       1.852   9.428  17.884  0.00  0.00    +0.000 OA
ENDBRANCH   8  17
ENDBRANCH   1  13
BRANCH   6  18
ATOM     18  O   UNL     1       5.147   3.642  19.118  0.00  0.00    +0.000 OA
BRANCH  18  19
ATOM     19  C   UNL     1       5.484   4.282  17.881  0.00  0.00    +0.000 C 
BRANCH  19  20
ATOM     20  C   UNL     1       6.424   5.454  18.029  0.00  0.00    +0.000 A 
ATOM     21  C   UNL     1       7.381   5.500  19.060  0.00  0.00    +0.000 A 
ATOM     22  C   UNL     1       8.251   6.585  19.177  0.00  0.00    +0.000 A 
ATOM     23  C   UNL     1       8.185   7.635  18.266  0.00  0.00    +0.000 A 
ATOM     24  C   UNL     1       7.247   7.608  17.239  0.00  0.00    +0.000 A 
ATOM     25  C   UNL     1       6.366   6.529  17.127  0.00  0.00    +0.000 A 
ATOM     26 BR   UNL     1       5.110   6.585  15.696  0.00  0.00    +0.000 Br
ENDBRANCH  19  20
ENDBRANCH  18  19
ENDBRANCH   6  18
TORSDOF 5
ENDMDL
MODEL 9
REMARK VINA RESULT:      -7.3      3.034      4.691
REMARK  Name = 
REMARK  6 active torsions:
REMARK  status: ('A' for Active; 'I' for Inactive)
REMARK    1  A    between atoms: C_1  and  O_2
REMARK    2  A    between atoms: O_2  and  C_3
REMARK    3  A    between atoms: N_8  and  C_9
REMARK    4  A    between atoms: C_14  and  O_15
REMARK    5  A    between atoms: O_15  and  C_16
REMARK    6  A    between atoms: C_16  and  C_17
REMARK                            x       y       z     vdW  Elec       q    Type
REMARK                         _______ _______ _______ _____ _____    ______ ____
ROOT
ATOM      1  C   UNL     1       4.850   3.827  19.058  0.00  0.00    +0.000 A 
ATOM      2  C   UNL     1       4.671   2.578  19.665  0.00  0.00    +0.000 A 
ATOM      3  C   UNL     1       3.492   2.264  20.346  0.00  0.00    +0.000 A 
ATOM      4  C   UNL     1       2.481   3.216  20.465  0.00  0.00    +0.000 A 
ATOM      5 CL   UNL     1       1.051   2.786  21.330  0.00  0.00    +0.000 Cl
ATOM      6  C   UNL     1       2.654   4.491  19.915  0.00  0.00    +0.000 A 
ATOM      7  C   UNL     1       3.822   4.766  19.183  0.00  0.00    +0.000 A 
ENDROOT
BRANCH   1  13
ATOM      8  C   UNL     1       5.781   4.194  14.881  0.00  0.00    +0.000 A 
ATOM      9  C   UNL     1       6.934   4.807  14.476  0.00  0.00    +0.000 A 
ATOM     10  C   UNL     1       7.788   5.160  15.491  0.00  0.00    +0.000 A 
ATOM     11  N   UNL     1       7.521   4.957  16.797  0.00  0.00    +0.000 NA
ATOM     12  C   UNL     1       6.337   4.402  17.091  0.00  0.00    +0.000 A 
ATOM     13  N   UNL     1       6.041   4.217  18.436  0.00  0.00    +0.000 N 
ATOM     14  N   UNL     1       5.466   3.994  16.165  0.00  0.00    +0.000 NA
ATOM     15  H   UNL     1       6.849   4.402  19.010  0.00  0.00    +0.000 HD
BRANCH   8  17
ATOM     16  C   UNL     1       5.520   3.522  12.666  0.00  0.00    +0.000 C 
ATOM     17  O   UNL     1       4.881   3.808  13.912  0.00  0.00    +0.000 OA
ENDBRANCH   8  17
ENDBRANCH   1  13
BRANCH   6  18
ATOM     18  O   UNL     1       1.670   5.429  20.133  0.00  0.00    +0.000 OA
BRANCH  18  19
ATOM     19  C   UNL     1       2.148   6.665  20.677  0.00  0.00    +0.000 C 
BRANCH  19  20
ATOM     20  C   UNL     1       1.860   7.870  19.814  0.00  0.00    +0.000 A 
ATOM     21  C   UNL     1       2.261   7.919  18.466  0.00  0.00    +0.000 A 
ATOM     22  C   UNL     1       1.976   9.035  17.678  0.00  0.00    +0.000 A 
ATOM     23  C   UNL     1       1.283  10.114  18.218  0.00  0.00    +0.000 A 
ATOM     24  C   UNL     1       0.877  10.085  19.549  0.00  0.00    +0.000 A 
ATOM     25  C   UNL     1       1.171   8.974  20.344  0.00  0.00    +0.000 A 
ATOM     26 BR   UNL     1       0.585   9.029  22.155  0.00  0.00    +0.000 Br
ENDBRANCH  19  20
ENDBRANCH  18  19
ENDBRANCH   6  18
TORSDOF 5
ENDMDL
