MODEL 1
REMARK VINA RESULT:      -7.7      0.000      0.000
REMARK  Name = 
REMARK  12 active torsions:
REMARK  status: ('A' for Active; 'I' for Inactive)
REMARK    1  A    between atoms: C_1  and  C_2
REMARK    2  A    between atoms: C_2  and  C_3
REMARK    3  A    between atoms: C_3  and  C_4
REMARK    4  A    between atoms: N_6  and  C_7
REMARK    5  A    between atoms: C_7  and  C_8
REMARK    6  A    between atoms: C_8  and  C_9
REMARK    7  A    between atoms: C_9  and  C_10
REMARK    8  A    between atoms: C_12  and  O_13
REMARK    9  A    between atoms: O_13  and  C_14
REMARK   10  A    between atoms: C_17  and  O_18
REMARK   11  A    between atoms: O_18  and  C_19
REMARK   12  A    between atoms: C_19  and  C_20
REMARK                            x       y       z     vdW  Elec       q    Type
REMARK                         _______ _______ _______ _____ _____    ______ ____
ROOT
ATOM      1  C   UNL     1       6.244   6.040  17.245  0.00  0.00    +0.000 A 
ATOM      2  C   UNL     1       6.821   7.314  17.059  0.00  0.00    +0.000 A 
ATOM      3  C   UNL     1       7.824   7.803  17.899  0.00  0.00    +0.000 A 
ATOM      4  C   UNL     1       8.285   6.992  18.929  0.00  0.00    +0.000 A 
ATOM      5  C   UNL     1       7.735   5.727  19.124  0.00  0.00    +0.000 A 
ATOM      6  C   UNL     1       6.679   5.258  18.330  0.00  0.00    +0.000 A 
ENDROOT
BRANCH   3   7
ATOM      7  O   UNL     1       8.276   9.061  17.616  0.00  0.00    +0.000 OA
ATOM      8  C   UNL     1       8.860   9.777  18.698  0.00  0.00    +0.000 C 
ENDBRANCH   3   7
BRANCH   1   9
ATOM      9  C   UNL     1       5.171   5.597  16.276  0.00  0.00    +0.000 C 
BRANCH   9  10
ATOM     10  C   UNL     1       5.657   5.476  14.830  0.00  0.00    +0.000 C 
BRANCH  10  11
ATOM     11  C   UNL     1       6.352   4.143  14.580  0.00  0.00    +0.000 C 
BRANCH  11  14
ATOM     12  C   UNL     1       6.151   3.393  12.235  0.00  0.00    +0.000 C 
ATOM     13  O   UNL     1       7.097   4.063  11.838  0.00  0.00    +0.000 OA
ATOM     14  N   UNL     1       5.711   3.377  13.538  0.00  0.00    +0.000 N 
ATOM     15  H   UNL     1       4.940   2.776  13.799  0.00  0.00    +0.000 HD
BRANCH  12  16
ATOM     16  C   UNL     1       5.368   2.474  11.323  0.00  0.00    +0.000 C 
BRANCH  16  18
ATOM     17  C   UNL     1       3.601   3.835  10.162  0.00  0.00    +0.000 C 
ATOM     18  C   UNL     1       3.891   2.853  11.279  0.00  0.00    +0.000 C 
ENDBRANCH  16  18
ENDBRANCH  12  16
ENDBRANCH  11  14
ENDBRANCH  10  11
ENDBRANCH   9  10
ENDBRANCH   1   9
BRANCH   6  19
ATOM     19  O   UNL     1       6.022   4.071  18.593  0.00  0.00    +0.000 OA
BRANCH  19  20
ATOM     20  C   UNL     1       4.990   4.186  19.588  0.00  0.00    +0.000 C 
BRANCH  20  21
ATOM     21  C   UNL     1       3.607   3.751  19.159  0.00  0.00    +0.000 A 
ATOM     22  C   UNL     1       2.685   4.603  18.549  0.00  0.00    +0.000 A 
ATOM     23  C   UNL     1       1.415   4.128  18.205  0.00  0.00    +0.000 A 
ATOM     24  C   UNL     1       1.061   2.802  18.454  0.00  0.00    +0.000 A 
ATOM     25  C   UNL     1       1.982   1.936  19.036  0.00  0.00    +0.000 A 
ATOM     26  C   UNL     1       3.249   2.406  19.383  0.00  0.00    +0.000 A 
ENDBRANCH  20  21
ENDBRANCH  19  20
ENDBRANCH   6  19
TORSDOF 10
ENDMDL
MODEL 2
REMARK VINA RESULT:      -7.5      3.743      6.136
REMARK  Name = 
REMARK  12 active torsions:
REMARK  status: ('A' for Active; 'I' for Inactive)
REMARK    1  A    between atoms: C_1  and  C_2
REMARK    2  A    between atoms: C_2  and  C_3
REMARK    3  A    between atoms: C_3  and  C_4
REMARK    4  A    between atoms: N_6  and  C_7
REMARK    5  A    between atoms: C_7  and  C_8
REMARK    6  A    between atoms: C_8  and  C_9
REMARK    7  A    between atoms: C_9  and  C_10
REMARK    8  A    between atoms: C_12  and  O_13
REMARK    9  A    between atoms: O_13  and  C_14
REMARK   10  A    between atoms: C_17  and  O_18
REMARK   11  A    between atoms: O_18  and  C_19
REMARK   12  A    between atoms: C_19  and  C_20
REMARK                            x       y       z     vdW  Elec       q    Type
REMARK                         _______ _______ _______ _____ _____    ______ ____
ROOT
ATOM      1  C   UNL     1       4.376   5.809  17.223  0.00  0.00    +0.000 A 
ATOM      2  C   UNL     1       5.516   6.641  17.217  0.00  0.00    +0.000 A 
ATOM      3  C   UNL     1       6.718   6.245  16.626  0.00  0.00    +0.000 A 
ATOM      4  C   UNL     1       6.778   5.007  16.000  0.00  0.00    +0.000 A 
ATOM      5  C   UNL     1       5.662   4.174  15.987  0.00  0.00    +0.000 A 
ATOM      6  C   UNL     1       4.474   4.533  16.640  0.00  0.00    +0.000 A 
ENDROOT
BRANCH   3   7
ATOM      7  O   UNL     1       7.746   7.141  16.712  0.00  0.00    +0.000 OA
ATOM      8  C   UNL     1       7.939   7.758  17.980  0.00  0.00    +0.000 C 
ENDBRANCH   3   7
BRANCH   1   9
ATOM      9  C   UNL     1       3.119   6.331  17.881  0.00  0.00    +0.000 C 
BRANCH   9  10
ATOM     10  C   UNL     1       3.094   6.142  19.400  0.00  0.00    +0.000 C 
BRANCH  10  11
ATOM     11  C   UNL     1       2.259   7.216  20.087  0.00  0.00    +0.000 C 
BRANCH  11  14
ATOM     12  C   UNL     1       1.005   9.278  19.562  0.00  0.00    +0.000 C 
ATOM     13  O   UNL     1       0.617   9.450  20.712  0.00  0.00    +0.000 OA
ATOM     14  N   UNL     1       1.791   8.222  19.163  0.00  0.00    +0.000 N 
ATOM     15  H   UNL     1       2.097   8.161  18.202  0.00  0.00    +0.000 HD
BRANCH  12  16
ATOM     16  C   UNL     1       0.678  10.242  18.442  0.00  0.00    +0.000 C 
BRANCH  16  18
ATOM     17  C   UNL     1      -1.744  10.917  18.467  0.00  0.00    +0.000 C 
ATOM     18  C   UNL     1      -0.712   9.983  17.869  0.00  0.00    +0.000 C 
ENDBRANCH  16  18
ENDBRANCH  12  16
ENDBRANCH  11  14
ENDBRANCH  10  11
ENDBRANCH   9  10
ENDBRANCH   1   9
BRANCH   6  19
ATOM     19  O   UNL     1       3.404   3.667  16.766  0.00  0.00    +0.000 OA
BRANCH  19  20
ATOM     20  C   UNL     1       3.623   2.605  17.710  0.00  0.00    +0.000 C 
BRANCH  20  21
ATOM     21  C   UNL     1       2.874   2.719  19.018  0.00  0.00    +0.000 A 
ATOM     22  C   UNL     1       3.485   2.613  20.268  0.00  0.00    +0.000 A 
ATOM     23  C   UNL     1       2.716   2.705  21.433  0.00  0.00    +0.000 A 
ATOM     24  C   UNL     1       1.340   2.917  21.361  0.00  0.00    +0.000 A 
ATOM     25  C   UNL     1       0.724   3.053  20.120  0.00  0.00    +0.000 A 
ATOM     26  C   UNL     1       1.486   2.959  18.955  0.00  0.00    +0.000 A 
ENDBRANCH  20  21
ENDBRANCH  19  20
ENDBRANCH   6  19
TORSDOF 10
ENDMDL
MODEL 3
REMARK VINA RESULT:      -7.5      3.951      6.759
REMARK  Name = 
REMARK  12 active torsions:
REMARK  status: ('A' for Active; 'I' for Inactive)
REMARK    1  A    between atoms: C_1  and  C_2
REMARK    2  A    between atoms: C_2  and  C_3
REMARK    3  A    between atoms: C_3  and  C_4
REMARK    4  A    between atoms: N_6  and  C_7
REMARK    5  A    between atoms: C_7  and  C_8
REMARK    6  A    between atoms: C_8  and  C_9
REMARK    7  A    between atoms: C_9  and  C_10
REMARK    8  A    between atoms: C_12  and  O_13
REMARK    9  A    between atoms: O_13  and  C_14
REMARK   10  A    between atoms: C_17  and  O_18
REMARK   11  A    between atoms: O_18  and  C_19
REMARK   12  A    between atoms: C_19  and  C_20
REMARK                            x       y       z     vdW  Elec       q    Type
REMARK                         _______ _______ _______ _____ _____    ______ ____
ROOT
ATOM      1  C   UNL     1       4.015   5.681  17.421  0.00  0.00    +0.000 A 
ATOM      2  C   UNL     1       5.135   6.539  17.403  0.00  0.00    +0.000 A 
ATOM      3  C   UNL     1       6.303   6.217  16.708  0.00  0.00    +0.000 A 
ATOM      4  C   UNL     1       6.345   5.030  15.988  0.00  0.00    +0.000 A 
ATOM      5  C   UNL     1       5.247   4.174  15.985  0.00  0.00    +0.000 A 
ATOM      6  C   UNL     1       4.098   4.455  16.738  0.00  0.00    +0.000 A 
ENDROOT
BRANCH   3   7
ATOM      7  O   UNL     1       7.317   7.130  16.795  0.00  0.00    +0.000 OA
ATOM      8  C   UNL     1       7.889   7.313  18.085  0.00  0.00    +0.000 C 
ENDBRANCH   3   7
BRANCH   1   9
ATOM      9  C   UNL     1       2.794   6.122  18.196  0.00  0.00    +0.000 C 
BRANCH   9  10
ATOM     10  C   UNL     1       3.005   6.154  19.711  0.00  0.00    +0.000 C 
BRANCH  10  11
ATOM     11  C   UNL     1       1.728   6.538  20.449  0.00  0.00    +0.000 C 
BRANCH  11  14
ATOM     12  C   UNL     1       0.550   8.536  21.300  0.00  0.00    +0.000 C 
ATOM     13  O   UNL     1      -0.449   7.918  21.648  0.00  0.00    +0.000 OA
ATOM     14  N   UNL     1       1.646   7.957  20.702  0.00  0.00    +0.000 N 
ATOM     15  H   UNL     1       2.447   8.527  20.467  0.00  0.00    +0.000 HD
BRANCH  12  16
ATOM     16  C   UNL     1       0.700  10.026  21.519  0.00  0.00    +0.000 C 
BRANCH  16  18
ATOM     17  C   UNL     1      -0.482  10.620  19.381  0.00  0.00    +0.000 C 
ATOM     18  C   UNL     1      -0.449  10.803  20.885  0.00  0.00    +0.000 C 
ENDBRANCH  16  18
ENDBRANCH  12  16
ENDBRANCH  11  14
ENDBRANCH  10  11
ENDBRANCH   9  10
ENDBRANCH   1   9
BRANCH   6  19
ATOM     19  O   UNL     1       3.056   3.556  16.866  0.00  0.00    +0.000 OA
BRANCH  19  20
ATOM     20  C   UNL     1       3.324   2.483  17.786  0.00  0.00    +0.000 C 
BRANCH  20  21
ATOM     21  C   UNL     1       2.696   2.614  19.155  0.00  0.00    +0.000 A 
ATOM     22  C   UNL     1       3.414   2.498  20.346  0.00  0.00    +0.000 A 
ATOM     23  C   UNL     1       2.753   2.607  21.574  0.00  0.00    +0.000 A 
ATOM     24  C   UNL     1       1.380   2.845  21.624  0.00  0.00    +0.000 A 
ATOM     25  C   UNL     1       0.659   2.991  20.442  0.00  0.00    +0.000 A 
ATOM     26  C   UNL     1       1.313   2.880  19.215  0.00  0.00    +0.000 A 
ENDBRANCH  20  21
ENDBRANCH  19  20
ENDBRANCH   6  19
TORSDOF 10
ENDMDL
MODEL 4
REMARK VINA RESULT:      -7.5      4.032      7.787
REMARK  Name = 
REMARK  12 active torsions:
REMARK  status: ('A' for Active; 'I' for Inactive)
REMARK    1  A    between atoms: C_1  and  C_2
REMARK    2  A    between atoms: C_2  and  C_3
REMARK    3  A    between atoms: C_3  and  C_4
REMARK    4  A    between atoms: N_6  and  C_7
REMARK    5  A    between atoms: C_7  and  C_8
REMARK    6  A    between atoms: C_8  and  C_9
REMARK    7  A    between atoms: C_9  and  C_10
REMARK    8  A    between atoms: C_12  and  O_13
REMARK    9  A    between atoms: O_13  and  C_14
REMARK   10  A    between atoms: C_17  and  O_18
REMARK   11  A    between atoms: O_18  and  C_19
REMARK   12  A    between atoms: C_19  and  C_20
REMARK                            x       y       z     vdW  Elec       q    Type
REMARK                         _______ _______ _______ _____ _____    ______ ____
ROOT
ATOM      1  C   UNL     1       3.145   5.166  18.186  0.00  0.00    +0.000 A 
ATOM      2  C   UNL     1       2.232   4.651  19.131  0.00  0.00    +0.000 A 
ATOM      3  C   UNL     1       1.856   3.306  19.141  0.00  0.00    +0.000 A 
ATOM      4  C   UNL     1       2.426   2.448  18.209  0.00  0.00    +0.000 A 
ATOM      5  C   UNL     1       3.336   2.933  17.274  0.00  0.00    +0.000 A 
ATOM      6  C   UNL     1       3.663   4.296  17.211  0.00  0.00    +0.000 A 
ENDROOT
BRANCH   3   7
ATOM      7  O   UNL     1       0.948   2.950  20.098  0.00  0.00    +0.000 OA
ATOM      8  C   UNL     1       1.462   2.750  21.409  0.00  0.00    +0.000 C 
ENDBRANCH   3   7
BRANCH   1   9
ATOM      9  C   UNL     1       3.495   6.635  18.263  0.00  0.00    +0.000 C 
BRANCH   9  10
ATOM     10  C   UNL     1       2.310   7.532  18.627  0.00  0.00    +0.000 C 
BRANCH  10  11
ATOM     11  C   UNL     1       2.304   8.818  17.809  0.00  0.00    +0.000 C 
BRANCH  11  14
ATOM     12  C   UNL     1       0.444  10.169  18.713  0.00  0.00    +0.000 C 
ATOM     13  O   UNL     1       1.008  10.411  19.774  0.00  0.00    +0.000 OA
ATOM     14  N   UNL     1       0.987   9.400  17.709  0.00  0.00    +0.000 N 
ATOM     15  H   UNL     1       0.474   9.266  16.848  0.00  0.00    +0.000 HD
BRANCH  12  16
ATOM     16  C   UNL     1      -0.923  10.723  18.375  0.00  0.00    +0.000 C 
BRANCH  16  18
ATOM     17  C   UNL     1      -3.057   9.690  17.542  0.00  0.00    +0.000 C 
ATOM     18  C   UNL     1      -1.589   9.929  17.256  0.00  0.00    +0.000 C 
ENDBRANCH  16  18
ENDBRANCH  12  16
ENDBRANCH  11  14
ENDBRANCH  10  11
ENDBRANCH   9  10
ENDBRANCH   1   9
BRANCH   6  19
ATOM     19  O   UNL     1       4.449   4.825  16.205  0.00  0.00    +0.000 OA
BRANCH  19  20
ATOM     20  C   UNL     1       5.839   4.469  16.305  0.00  0.00    +0.000 C 
BRANCH  20  21
ATOM     21  C   UNL     1       6.686   5.357  17.187  0.00  0.00    +0.000 A 
ATOM     22  C   UNL     1       7.285   4.923  18.370  0.00  0.00    +0.000 A 
ATOM     23  C   UNL     1       8.034   5.816  19.144  0.00  0.00    +0.000 A 
ATOM     24  C   UNL     1       8.203   7.139  18.738  0.00  0.00    +0.000 A 
ATOM     25  C   UNL     1       7.634   7.576  17.545  0.00  0.00    +0.000 A 
ATOM     26  C   UNL     1       6.884   6.690  16.772  0.00  0.00    +0.000 A 
ENDBRANCH  20  21
ENDBRANCH  19  20
ENDBRANCH   6  19
TORSDOF 10
ENDMDL
MODEL 5
REMARK VINA RESULT:      -7.5      3.809      6.106
REMARK  Name = 
REMARK  12 active torsions:
REMARK  status: ('A' for Active; 'I' for Inactive)
REMARK    1  A    between atoms: C_1  and  C_2
REMARK    2  A    between atoms: C_2  and  C_3
REMARK    3  A    between atoms: C_3  and  C_4
REMARK    4  A    between atoms: N_6  and  C_7
REMARK    5  A    between atoms: C_7  and  C_8
REMARK    6  A    between atoms: C_8  and  C_9
REMARK    7  A    between atoms: C_9  and  C_10
REMARK    8  A    between atoms: C_12  and  O_13
REMARK    9  A    between atoms: O_13  and  C_14
REMARK   10  A    between atoms: C_17  and  O_18
REMARK   11  A    between atoms: O_18  and  C_19
REMARK   12  A    between atoms: C_19  and  C_20
REMARK                            x       y       z     vdW  Elec       q    Type
REMARK                         _______ _______ _______ _____ _____    ______ ____
ROOT
ATOM      1  C   UNL     1       4.393   6.021  17.271  0.00  0.00    +0.000 A 
ATOM      2  C   UNL     1       5.590   6.768  17.263  0.00  0.00    +0.000 A 
ATOM      3  C   UNL     1       6.778   6.256  16.736  0.00  0.00    +0.000 A 
ATOM      4  C   UNL     1       6.766   4.985  16.176  0.00  0.00    +0.000 A 
ATOM      5  C   UNL     1       5.593   4.235  16.166  0.00  0.00    +0.000 A 
ATOM      6  C   UNL     1       4.415   4.713  16.758  0.00  0.00    +0.000 A 
ENDROOT
BRANCH   3   7
ATOM      7  O   UNL     1       7.866   7.080  16.813  0.00  0.00    +0.000 OA
ATOM      8  C   UNL     1       7.745   8.202  17.680  0.00  0.00    +0.000 C 
ENDBRANCH   3   7
BRANCH   1   9
ATOM      9  C   UNL     1       3.157   6.666  17.857  0.00  0.00    +0.000 C 
BRANCH   9  10
ATOM     10  C   UNL     1       2.924   6.326  19.331  0.00  0.00    +0.000 C 
BRANCH  10  11
ATOM     11  C   UNL     1       2.214   7.457  20.064  0.00  0.00    +0.000 C 
BRANCH  11  14
ATOM     12  C   UNL     1       0.646   9.291  19.532  0.00  0.00    +0.000 C 
ATOM     13  O   UNL     1       0.123   9.295  20.640  0.00  0.00    +0.000 OA
ATOM     14  N   UNL     1       1.654   8.433  19.159  0.00  0.00    +0.000 N 
ATOM     15  H   UNL     1       2.058   8.507  18.235  0.00  0.00    +0.000 HD
BRANCH  12  16
ATOM     16  C   UNL     1       0.251  10.266  18.445  0.00  0.00    +0.000 C 
BRANCH  16  18
ATOM     17  C   UNL     1      -1.827   9.938  17.069  0.00  0.00    +0.000 C 
ATOM     18  C   UNL     1      -1.262  10.449  18.379  0.00  0.00    +0.000 C 
ENDBRANCH  16  18
ENDBRANCH  12  16
ENDBRANCH  11  14
ENDBRANCH  10  11
ENDBRANCH   9  10
ENDBRANCH   1   9
BRANCH   6  19
ATOM     19  O   UNL     1       3.281   3.933  16.889  0.00  0.00    +0.000 OA
BRANCH  19  20
ATOM     20  C   UNL     1       3.456   2.791  17.745  0.00  0.00    +0.000 C 
BRANCH  20  21
ATOM     21  C   UNL     1       2.685   2.815  19.045  0.00  0.00    +0.000 A 
ATOM     22  C   UNL     1       1.304   3.008  19.119  0.00  0.00    +0.000 A 
ATOM     23  C   UNL     1       0.668   3.043  20.364  0.00  0.00    +0.000 A 
ATOM     24  C   UNL     1       1.399   2.873  21.540  0.00  0.00    +0.000 A 
ATOM     25  C   UNL     1       2.771   2.652  21.477  0.00  0.00    +0.000 A 
ATOM     26  C   UNL     1       3.410   2.620  20.237  0.00  0.00    +0.000 A 
ENDBRANCH  20  21
ENDBRANCH  19  20
ENDBRANCH   6  19
TORSDOF 10
ENDMDL
MODEL 6
REMARK VINA RESULT:      -7.4      4.009      6.585
REMARK  Name = 
REMARK  12 active torsions:
REMARK  status: ('A' for Active; 'I' for Inactive)
REMARK    1  A    between atoms: C_1  and  C_2
REMARK    2  A    between atoms: C_2  and  C_3
REMARK    3  A    between atoms: C_3  and  C_4
REMARK    4  A    between atoms: N_6  and  C_7
REMARK    5  A    between atoms: C_7  and  C_8
REMARK    6  A    between atoms: C_8  and  C_9
REMARK    7  A    between atoms: C_9  and  C_10
REMARK    8  A    between atoms: C_12  and  O_13
REMARK    9  A    between atoms: O_13  and  C_14
REMARK   10  A    between atoms: C_17  and  O_18
REMARK   11  A    between atoms: O_18  and  C_19
REMARK   12  A    between atoms: C_19  and  C_20
REMARK                            x       y       z     vdW  Elec       q    Type
REMARK                         _______ _______ _______ _____ _____    ______ ____
ROOT
ATOM      1  C   UNL     1       4.317   5.678  17.337  0.00  0.00    +0.000 A 
ATOM      2  C   UNL     1       5.539   6.375  17.442  0.00  0.00    +0.000 A 
ATOM      3  C   UNL     1       6.736   5.851  16.949  0.00  0.00    +0.000 A 
ATOM      4  C   UNL     1       6.710   4.618  16.309  0.00  0.00    +0.000 A 
ATOM      5  C   UNL     1       5.513   3.917  16.187  0.00  0.00    +0.000 A 
ATOM      6  C   UNL     1       4.320   4.404  16.742  0.00  0.00    +0.000 A 
ENDROOT
BRANCH   3   7
ATOM      7  O   UNL     1       7.846   6.624  17.138  0.00  0.00    +0.000 OA
ATOM      8  C   UNL     1       7.615   7.969  17.541  0.00  0.00    +0.000 C 
ENDBRANCH   3   7
BRANCH   1   9
ATOM      9  C   UNL     1       3.074   6.334  17.894  0.00  0.00    +0.000 C 
BRANCH   9  10
ATOM     10  C   UNL     1       3.181   7.856  18.013  0.00  0.00    +0.000 C 
BRANCH  10  11
ATOM     11  C   UNL     1       1.827   8.531  17.833  0.00  0.00    +0.000 C 
BRANCH  11  14
ATOM     12  C   UNL     1       0.193   9.863  19.121  0.00  0.00    +0.000 C 
ATOM     13  O   UNL     1      -0.435  10.227  18.133  0.00  0.00    +0.000 OA
ATOM     14  N   UNL     1       1.305   9.054  19.073  0.00  0.00    +0.000 N 
ATOM     15  H   UNL     1       1.755   8.772  19.933  0.00  0.00    +0.000 HD
BRANCH  12  16
ATOM     16  C   UNL     1      -0.211  10.250  20.527  0.00  0.00    +0.000 C 
BRANCH  16  18
ATOM     17  C   UNL     1       0.600   9.346  22.728  0.00  0.00    +0.000 C 
ATOM     18  C   UNL     1      -0.186   9.049  21.467  0.00  0.00    +0.000 C 
ENDBRANCH  16  18
ENDBRANCH  12  16
ENDBRANCH  11  14
ENDBRANCH  10  11
ENDBRANCH   9  10
ENDBRANCH   1   9
BRANCH   6  19
ATOM     19  O   UNL     1       3.154   3.663  16.761  0.00  0.00    +0.000 OA
BRANCH  19  20
ATOM     20  C   UNL     1       3.201   2.524  17.638  0.00  0.00    +0.000 C 
BRANCH  20  21
ATOM     21  C   UNL     1       2.649   2.738  19.028  0.00  0.00    +0.000 A 
ATOM     22  C   UNL     1       3.392   2.538  20.192  0.00  0.00    +0.000 A 
ATOM     23  C   UNL     1       2.799   2.733  21.444  0.00  0.00    +0.000 A 
ATOM     24  C   UNL     1       1.469   3.140  21.544  0.00  0.00    +0.000 A 
ATOM     25  C   UNL     1       0.726   3.370  20.389  0.00  0.00    +0.000 A 
ATOM     26  C   UNL     1       1.313   3.174  19.139  0.00  0.00    +0.000 A 
ENDBRANCH  20  21
ENDBRANCH  19  20
ENDBRANCH   6  19
TORSDOF 10
ENDMDL
MODEL 7
REMARK VINA RESULT:      -7.4      4.131      6.400
REMARK  Name = 
REMARK  12 active torsions:
REMARK  status: ('A' for Active; 'I' for Inactive)
REMARK    1  A    between atoms: C_1  and  C_2
REMARK    2  A    between atoms: C_2  and  C_3
REMARK    3  A    between atoms: C_3  and  C_4
REMARK    4  A    between atoms: N_6  and  C_7
REMARK    5  A    between atoms: C_7  and  C_8
REMARK    6  A    between atoms: C_8  and  C_9
REMARK    7  A    between atoms: C_9  and  C_10
REMARK    8  A    between atoms: C_12  and  O_13
REMARK    9  A    between atoms: O_13  and  C_14
REMARK   10  A    between atoms: C_17  and  O_18
REMARK   11  A    between atoms: O_18  and  C_19
REMARK   12  A    between atoms: C_19  and  C_20
REMARK                            x       y       z     vdW  Elec       q    Type
REMARK                         _______ _______ _______ _____ _____    ______ ____
ROOT
ATOM      1  C   UNL     1       4.382   5.843  17.160  0.00  0.00    +0.000 A 
ATOM      2  C   UNL     1       5.530   6.664  17.180  0.00  0.00    +0.000 A 
ATOM      3  C   UNL     1       6.766   6.220  16.705  0.00  0.00    +0.000 A 
ATOM      4  C   UNL     1       6.854   4.941  16.169  0.00  0.00    +0.000 A 
ATOM      5  C   UNL     1       5.732   4.119  16.132  0.00  0.00    +0.000 A 
ATOM      6  C   UNL     1       4.505   4.531  16.673  0.00  0.00    +0.000 A 
ENDROOT
BRANCH   3   7
ATOM      7  O   UNL     1       7.797   7.112  16.805  0.00  0.00    +0.000 OA
ATOM      8  C   UNL     1       8.037   7.653  18.099  0.00  0.00    +0.000 C 
ENDBRANCH   3   7
BRANCH   1   9
ATOM      9  C   UNL     1       3.088   6.419  17.690  0.00  0.00    +0.000 C 
BRANCH   9  10
ATOM     10  C   UNL     1       3.098   7.944  17.817  0.00  0.00    +0.000 C 
BRANCH  10  11
ATOM     11  C   UNL     1       1.686   8.513  17.873  0.00  0.00    +0.000 C 
BRANCH  11  14
ATOM     12  C   UNL     1       1.023  10.641  18.938  0.00  0.00    +0.000 C 
ATOM     13  O   UNL     1       0.378  10.105  19.832  0.00  0.00    +0.000 OA
ATOM     14  N   UNL     1       1.678   9.956  17.942  0.00  0.00    +0.000 N 
ATOM     15  H   UNL     1       2.215  10.465  17.253  0.00  0.00    +0.000 HD
BRANCH  12  16
ATOM     16  C   UNL     1       1.192  12.142  18.849  0.00  0.00    +0.000 C 
BRANCH  16  18
ATOM     17  C   UNL     1       2.702  14.019  18.129  0.00  0.00    +0.000 C 
ATOM     18  C   UNL     1       2.492  12.518  18.145  0.00  0.00    +0.000 C 
ENDBRANCH  16  18
ENDBRANCH  12  16
ENDBRANCH  11  14
ENDBRANCH  10  11
ENDBRANCH   9  10
ENDBRANCH   1   9
BRANCH   6  19
ATOM     19  O   UNL     1       3.418   3.683  16.778  0.00  0.00    +0.000 OA
BRANCH  19  20
ATOM     20  C   UNL     1       3.588   2.637  17.750  0.00  0.00    +0.000 C 
BRANCH  20  21
ATOM     21  C   UNL     1       2.857   2.826  19.059  0.00  0.00    +0.000 A 
ATOM     22  C   UNL     1       3.435   2.587  20.307  0.00  0.00    +0.000 A 
ATOM     23  C   UNL     1       2.682   2.762  21.472  0.00  0.00    +0.000 A 
ATOM     24  C   UNL     1       1.355   3.187  21.404  0.00  0.00    +0.000 A 
ATOM     25  C   UNL     1       0.777   3.456  20.166  0.00  0.00    +0.000 A 
ATOM     26  C   UNL     1       1.524   3.280  19.001  0.00  0.00    +0.000 A 
ENDBRANCH  20  21
ENDBRANCH  19  20
ENDBRANCH   6  19
TORSDOF 10
ENDMDL
MODEL 8
REMARK VINA RESULT:      -7.3      4.056      6.341
REMARK  Name = 
REMARK  12 active torsions:
REMARK  status: ('A' for Active; 'I' for Inactive)
REMARK    1  A    between atoms: C_1  and  C_2
REMARK    2  A    between atoms: C_2  and  C_3
REMARK    3  A    between atoms: C_3  and  C_4
REMARK    4  A    between atoms: N_6  and  C_7
REMARK    5  A    between atoms: C_7  and  C_8
REMARK    6  A    between atoms: C_8  and  C_9
REMARK    7  A    between atoms: C_9  and  C_10
REMARK    8  A    between atoms: C_12  and  O_13
REMARK    9  A    between atoms: O_13  and  C_14
REMARK   10  A    between atoms: C_17  and  O_18
REMARK   11  A    between atoms: O_18  and  C_19
REMARK   12  A    between atoms: C_19  and  C_20
REMARK                            x       y       z     vdW  Elec       q    Type
REMARK                         _______ _______ _______ _____ _____    ______ ____
ROOT
ATOM      1  C   UNL     1       4.537   5.655  17.502  0.00  0.00    +0.000 A 
ATOM      2  C   UNL     1       5.706   6.444  17.451  0.00  0.00    +0.000 A 
ATOM      3  C   UNL     1       6.769   6.136  16.599  0.00  0.00    +0.000 A 
ATOM      4  C   UNL     1       6.653   5.037  15.757  0.00  0.00    +0.000 A 
ATOM      5  C   UNL     1       5.504   4.251  15.786  0.00  0.00    +0.000 A 
ATOM      6  C   UNL     1       4.463   4.511  16.689  0.00  0.00    +0.000 A 
ENDROOT
BRANCH   3   7
ATOM      7  O   UNL     1       7.848   6.972  16.668  0.00  0.00    +0.000 OA
ATOM      8  C   UNL     1       7.776   8.013  17.636  0.00  0.00    +0.000 C 
ENDBRANCH   3   7
BRANCH   1   9
ATOM      9  C   UNL     1       3.437   6.076  18.452  0.00  0.00    +0.000 C 
BRANCH   9  10
ATOM     10  C   UNL     1       2.336   6.906  17.789  0.00  0.00    +0.000 C 
BRANCH  10  11
ATOM     11  C   UNL     1       2.517   8.396  18.054  0.00  0.00    +0.000 C 
BRANCH  11  14
ATOM     12  C   UNL     1       0.676   9.859  18.813  0.00  0.00    +0.000 C 
ATOM     13  O   UNL     1       1.064   9.906  19.974  0.00  0.00    +0.000 OA
ATOM     14  N   UNL     1       1.306   9.146  17.819  0.00  0.00    +0.000 N 
ATOM     15  H   UNL     1       0.943   9.176  16.875  0.00  0.00    +0.000 HD
BRANCH  12  16
ATOM     16  C   UNL     1      -0.543  10.615  18.333  0.00  0.00    +0.000 C 
BRANCH  16  18
ATOM     17  C   UNL     1      -2.583  11.912  19.023  0.00  0.00    +0.000 C 
ATOM     18  C   UNL     1      -1.407  11.084  19.499  0.00  0.00    +0.000 C 
ENDBRANCH  16  18
ENDBRANCH  12  16
ENDBRANCH  11  14
ENDBRANCH  10  11
ENDBRANCH   9  10
ENDBRANCH   1   9
BRANCH   6  19
ATOM     19  O   UNL     1       3.380   3.665  16.837  0.00  0.00    +0.000 OA
BRANCH  19  20
ATOM     20  C   UNL     1       3.579   2.632  17.818  0.00  0.00    +0.000 C 
BRANCH  20  21
ATOM     21  C   UNL     1       2.755   2.751  19.079  0.00  0.00    +0.000 A 
ATOM     22  C   UNL     1       1.392   3.049  19.084  0.00  0.00    +0.000 A 
ATOM     23  C   UNL     1       0.706   3.167  20.298  0.00  0.00    +0.000 A 
ATOM     24  C   UNL     1       1.368   2.977  21.510  0.00  0.00    +0.000 A 
ATOM     25  C   UNL     1       2.722   2.652  21.516  0.00  0.00    +0.000 A 
ATOM     26  C   UNL     1       3.410   2.536  20.308  0.00  0.00    +0.000 A 
ENDBRANCH  20  21
ENDBRANCH  19  20
ENDBRANCH   6  19
TORSDOF 10
ENDMDL
MODEL 9
REMARK VINA RESULT:      -7.3      4.371      6.492
REMARK  Name = 
REMARK  12 active torsions:
REMARK  status: ('A' for Active; 'I' for Inactive)
REMARK    1  A    between atoms: C_1  and  C_2
REMARK    2  A    between atoms: C_2  and  C_3
REMARK    3  A    between atoms: C_3  and  C_4
REMARK    4  A    between atoms: N_6  and  C_7
REMARK    5  A    between atoms: C_7  and  C_8
REMARK    6  A    between atoms: C_8  and  C_9
REMARK    7  A    between atoms: C_9  and  C_10
REMARK    8  A    between atoms: C_12  and  O_13
REMARK    9  A    between atoms: O_13  and  C_14
REMARK   10  A    between atoms: C_17  and  O_18
REMARK   11  A    between atoms: O_18  and  C_19
REMARK   12  A    between atoms: C_19  and  C_20
REMARK                            x       y       z     vdW  Elec       q    Type
REMARK                         _______ _______ _______ _____ _____    ______ ____
ROOT
ATOM      1  C   UNL     1       4.372   5.774  17.218  0.00  0.00    +0.000 A 
ATOM      2  C   UNL     1       5.530   6.581  17.195  0.00  0.00    +0.000 A 
ATOM      3  C   UNL     1       6.722   6.149  16.609  0.00  0.00    +0.000 A 
ATOM      4  C   UNL     1       6.752   4.899  16.003  0.00  0.00    +0.000 A 
ATOM      5  C   UNL     1       5.618   4.091  16.006  0.00  0.00    +0.000 A 
ATOM      6  C   UNL     1       4.440   4.488  16.655  0.00  0.00    +0.000 A 
ENDROOT
BRANCH   3   7
ATOM      7  O   UNL     1       7.770   7.023  16.679  0.00  0.00    +0.000 OA
ATOM      8  C   UNL     1       7.656   8.066  17.640  0.00  0.00    +0.000 C 
ENDBRANCH   3   7
BRANCH   1   9
ATOM      9  C   UNL     1       3.128   6.335  17.870  0.00  0.00    +0.000 C 
BRANCH   9  10
ATOM     10  C   UNL     1       3.157   7.855  18.045  0.00  0.00    +0.000 C 
BRANCH  10  11
ATOM     11  C   UNL     1       1.829   8.492  17.652  0.00  0.00    +0.000 C 
BRANCH  11  14
ATOM     12  C   UNL     1       1.321  10.613  18.812  0.00  0.00    +0.000 C 
ATOM     13  O   UNL     1       0.752  10.073  19.754  0.00  0.00    +0.000 OA
ATOM     14  N   UNL     1       1.862   9.932  17.746  0.00  0.00    +0.000 N 
ATOM     15  H   UNL     1       2.343  10.443  17.017  0.00  0.00    +0.000 HD
BRANCH  12  16
ATOM     16  C   UNL     1       1.517  12.111  18.732  0.00  0.00    +0.000 C 
BRANCH  16  18
ATOM     17  C   UNL     1       0.112  14.067  19.450  0.00  0.00    +0.000 C 
ATOM     18  C   UNL     1       0.189  12.842  18.563  0.00  0.00    +0.000 C 
ENDBRANCH  16  18
ENDBRANCH  12  16
ENDBRANCH  11  14
ENDBRANCH  10  11
ENDBRANCH   9  10
ENDBRANCH   1   9
BRANCH   6  19
ATOM     19  O   UNL     1       3.351   3.648  16.796  0.00  0.00    +0.000 OA
BRANCH  19  20
ATOM     20  C   UNL     1       3.534   2.620  17.786  0.00  0.00    +0.000 C 
BRANCH  20  21
ATOM     21  C   UNL     1       2.724   2.772  19.053  0.00  0.00    +0.000 A 
ATOM     22  C   UNL     1       1.372   3.116  19.067  0.00  0.00    +0.000 A 
ATOM     23  C   UNL     1       0.699   3.262  20.285  0.00  0.00    +0.000 A 
ATOM     24  C   UNL     1       1.364   3.054  21.493  0.00  0.00    +0.000 A 
ATOM     25  C   UNL     1       2.706   2.683  21.490  0.00  0.00    +0.000 A 
ATOM     26  C   UNL     1       3.381   2.539  20.278  0.00  0.00    +0.000 A 
ENDBRANCH  20  21
ENDBRANCH  19  20
ENDBRANCH   6  19
TORSDOF 10
ENDMDL
