MODEL 1
REMARK VINA RESULT:      -6.9      0.000      0.000
REMARK  Name = 
REMARK  10 active torsions:
REMARK  status: ('A' for Active; 'I' for Inactive)
REMARK    1  A    between atoms: C_1  and  N_2
REMARK    2  A    between atoms: N_2  and  C_3
REMARK    3  A    between atoms: N_2  and  C_4
REMARK    4  A    between atoms: C_7  and  N_8
REMARK    5  A    between atoms: C_9  and  C_11
REMARK    6  A    between atoms: C_16  and  C_17
REMARK    7  A    between atoms: C_17  and  N_18
REMARK    8  A    between atoms: N_18  and  C_19
REMARK    9  A    between atoms: C_19  and  C_20
REMARK   10  A    between atoms: C_25  and  C_27
REMARK                            x       y       z     vdW  Elec       q    Type
REMARK                         _______ _______ _______ _____ _____    ______ ____
ROOT
ATOM      1  C   UNL     1       1.622   7.817  20.390  0.00  0.00    +0.000 A 
ATOM      2  C   UNL     1       2.135   6.500  20.588  0.00  0.00    +0.000 A 
ATOM      3  C   UNL     1       2.856   5.755  19.643  0.00  0.00    +0.000 A 
ATOM      4  C   UNL     1       3.137   6.284  18.407  0.00  0.00    +0.000 A 
ATOM      5  C   UNL     1       2.697   7.591  18.161  0.00  0.00    +0.000 A 
ATOM      6  C   UNL     1       1.921   8.385  19.101  0.00  0.00    +0.000 A 
ENDROOT
BRANCH   4   7
ATOM      7  N   UNL     1       3.725   5.531  17.352  0.00  0.00    +0.000 N 
ATOM      8  C   UNL     1       5.040   5.625  16.882  0.00  0.00    +0.000 C 
ATOM      9  O   UNL     1       5.814   6.539  17.181  0.00  0.00    +0.000 OA
ATOM     10  H   UNL     1       3.142   4.810  16.945  0.00  0.00    +0.000 HD
BRANCH   8  11
ATOM     11  C   UNL     1       5.481   4.461  15.926  0.00  0.00    +0.000 C 
ATOM     12  C   UNL     1       5.110   4.585  14.412  0.00  0.00    +0.000 C 
ATOM     13  C   UNL     1       6.493   4.004  14.072  0.00  0.00    +0.000 C 
ATOM     14  C   UNL     1       6.969   4.493  15.449  0.00  0.00    +0.000 C 
ENDBRANCH   8  11
ENDBRANCH   4   7
BRANCH   1  16
ATOM     15  C   UNL     1       1.391   9.424  22.338  0.00  0.00    +0.000 C 
ATOM     16  N   UNL     1       0.896   8.371  21.461  0.00  0.00    +0.000 N 
ATOM     17  C   UNL     1      -0.578   8.222  21.525  0.00  0.00    +0.000 C 
ENDBRANCH   1  16
BRANCH   6  18
ATOM     18  C   UNL     1       1.264   9.617  18.426  0.00  0.00    +0.000 C 
BRANCH  18  19
ATOM     19  N   UNL     1       0.659  10.764  19.169  0.00  0.00    +0.000 N 
ATOM     20  C   UNL     1      -0.761  10.766  19.169  0.00  0.00    +0.000 C 
ATOM     21  O   UNL     1      -1.376   9.962  18.465  0.00  0.00    +0.000 OA
BRANCH  20  22
ATOM     22  C   UNL     1      -1.525  11.693  19.984  0.00  0.00    +0.000 A 
ATOM     23  C   UNL     1      -2.471  12.623  19.569  0.00  0.00    +0.000 A 
ATOM     24  C   UNL     1      -2.950  13.269  20.728  0.00  0.00    +0.000 A 
ATOM     25  C   UNL     1      -2.288  12.705  21.788  0.00  0.00    +0.000 A 
ATOM     26  O   UNL     1      -1.431  11.735  21.344  0.00  0.00    +0.000 OA
ENDBRANCH  20  22
BRANCH  19  27
ATOM     27  C   UNL     1       1.453  12.002  19.466  0.00  0.00    +0.000 C 
BRANCH  27  28
ATOM     28  C   UNL     1       1.429  13.234  18.474  0.00  0.00    +0.000 C 
ATOM     29  C   UNL     1       0.802  14.585  18.864  0.00  0.00    +0.000 C 
ATOM     30  C   UNL     1       1.966  15.524  19.106  0.00  0.00    +0.000 C 
ATOM     31  C   UNL     1       2.970  15.001  18.114  0.00  0.00    +0.000 C 
ATOM     32  O   UNL     1       2.816  13.570  18.141  0.00  0.00    +0.000 OA
ENDBRANCH  27  28
ENDBRANCH  19  27
ENDBRANCH  18  19
ENDBRANCH   6  18
TORSDOF 8
ENDMDL
MODEL 2
REMARK VINA RESULT:      -6.8      0.828      1.141
REMARK  Name = 
REMARK  10 active torsions:
REMARK  status: ('A' for Active; 'I' for Inactive)
REMARK    1  A    between atoms: C_1  and  N_2
REMARK    2  A    between atoms: N_2  and  C_3
REMARK    3  A    between atoms: N_2  and  C_4
REMARK    4  A    between atoms: C_7  and  N_8
REMARK    5  A    between atoms: C_9  and  C_11
REMARK    6  A    between atoms: C_16  and  C_17
REMARK    7  A    between atoms: C_17  and  N_18
REMARK    8  A    between atoms: N_18  and  C_19
REMARK    9  A    between atoms: C_19  and  C_20
REMARK   10  A    between atoms: C_25  and  C_27
REMARK                            x       y       z     vdW  Elec       q    Type
REMARK                         _______ _______ _______ _____ _____    ______ ____
ROOT
ATOM      1  C   UNL     1       1.630   8.019  20.109  0.00  0.00    +0.000 A 
ATOM      2  C   UNL     1       2.159   6.718  20.368  0.00  0.00    +0.000 A 
ATOM      3  C   UNL     1       2.942   5.964  19.481  0.00  0.00    +0.000 A 
ATOM      4  C   UNL     1       3.274   6.467  18.246  0.00  0.00    +0.000 A 
ATOM      5  C   UNL     1       2.820   7.757  17.943  0.00  0.00    +0.000 A 
ATOM      6  C   UNL     1       1.982   8.558  18.821  0.00  0.00    +0.000 A 
ENDROOT
BRANCH   4   7
ATOM      7  N   UNL     1       3.929   5.698  17.243  0.00  0.00    +0.000 N 
ATOM      8  C   UNL     1       5.297   5.694  16.947  0.00  0.00    +0.000 C 
ATOM      9  O   UNL     1       6.098   6.527  17.379  0.00  0.00    +0.000 OA
ATOM     10  H   UNL     1       3.347   5.043  16.736  0.00  0.00    +0.000 HD
BRANCH   8  11
ATOM     11  C   UNL     1       5.761   4.526  16.006  0.00  0.00    +0.000 C 
ATOM     12  C   UNL     1       5.103   4.429  14.591  0.00  0.00    +0.000 C 
ATOM     13  C   UNL     1       6.483   4.053  14.024  0.00  0.00    +0.000 C 
ATOM     14  C   UNL     1       7.105   4.755  15.242  0.00  0.00    +0.000 C 
ENDBRANCH   8  11
ENDBRANCH   4   7
BRANCH   1  16
ATOM     15  C   UNL     1      -0.562   8.265  21.359  0.00  0.00    +0.000 C 
ATOM     16  N   UNL     1       0.840   8.584  21.127  0.00  0.00    +0.000 N 
ATOM     17  C   UNL     1       1.479   9.230  22.300  0.00  0.00    +0.000 C 
ENDBRANCH   1  16
BRANCH   6  18
ATOM     18  C   UNL     1       1.335   9.757  18.081  0.00  0.00    +0.000 C 
BRANCH  18  19
ATOM     19  N   UNL     1       0.429  10.757  18.724  0.00  0.00    +0.000 N 
ATOM     20  C   UNL     1      -0.932  10.633  18.335  0.00  0.00    +0.000 C 
ATOM     21  O   UNL     1      -1.244   9.861  17.426  0.00  0.00    +0.000 OA
BRANCH  20  22
ATOM     22  C   UNL     1      -1.985  11.393  18.985  0.00  0.00    +0.000 A 
ATOM     23  C   UNL     1      -1.919  12.108  20.175  0.00  0.00    +0.000 A 
ATOM     24  C   UNL     1      -3.187  12.693  20.376  0.00  0.00    +0.000 A 
ATOM     25  C   UNL     1      -3.960  12.319  19.307  0.00  0.00    +0.000 A 
ATOM     26  O   UNL     1      -3.231  11.541  18.449  0.00  0.00    +0.000 OA
ENDBRANCH  20  22
BRANCH  19  27
ATOM     27  C   UNL     1       0.969  12.019  19.328  0.00  0.00    +0.000 C 
BRANCH  27  28
ATOM     28  C   UNL     1       1.363  13.249  18.414  0.00  0.00    +0.000 C 
ATOM     29  C   UNL     1       1.143  14.704  18.862  0.00  0.00    +0.000 C 
ATOM     30  C   UNL     1       2.518  15.241  19.203  0.00  0.00    +0.000 C 
ATOM     31  C   UNL     1       3.373  14.491  18.218  0.00  0.00    +0.000 C 
ATOM     32  O   UNL     1       2.802  13.171  18.151  0.00  0.00    +0.000 OA
ENDBRANCH  27  28
ENDBRANCH  19  27
ENDBRANCH  18  19
ENDBRANCH   6  18
TORSDOF 8
ENDMDL
MODEL 3
REMARK VINA RESULT:      -6.8      3.308      6.794
REMARK  Name = 
REMARK  10 active torsions:
REMARK  status: ('A' for Active; 'I' for Inactive)
REMARK    1  A    between atoms: C_1  and  N_2
REMARK    2  A    between atoms: N_2  and  C_3
REMARK    3  A    between atoms: N_2  and  C_4
REMARK    4  A    between atoms: C_7  and  N_8
REMARK    5  A    between atoms: C_9  and  C_11
REMARK    6  A    between atoms: C_16  and  C_17
REMARK    7  A    between atoms: C_17  and  N_18
REMARK    8  A    between atoms: N_18  and  C_19
REMARK    9  A    between atoms: C_19  and  C_20
REMARK   10  A    between atoms: C_25  and  C_27
REMARK                            x       y       z     vdW  Elec       q    Type
REMARK                         _______ _______ _______ _____ _____    ______ ____
ROOT
ATOM      1  C   UNL     1       6.473   5.546  17.362  0.00  0.00    +0.000 A 
ATOM      2  C   UNL     1       7.466   4.745  16.722  0.00  0.00    +0.000 A 
ATOM      3  C   UNL     1       7.363   4.188  15.439  0.00  0.00    +0.000 A 
ATOM      4  C   UNL     1       6.241   4.402  14.676  0.00  0.00    +0.000 A 
ATOM      5  C   UNL     1       5.242   5.214  15.229  0.00  0.00    +0.000 A 
ATOM      6  C   UNL     1       5.298   5.785  16.565  0.00  0.00    +0.000 A 
ENDROOT
BRANCH   4   7
ATOM      7  N   UNL     1       6.005   3.744  13.436  0.00  0.00    +0.000 N 
ATOM      8  C   UNL     1       6.740   3.888  12.253  0.00  0.00    +0.000 C 
ATOM      9  O   UNL     1       7.572   4.780  12.064  0.00  0.00    +0.000 OA
ATOM     10  H   UNL     1       5.264   3.055  13.435  0.00  0.00    +0.000 HD
BRANCH   8  11
ATOM     11  C   UNL     1       6.432   2.811  11.154  0.00  0.00    +0.000 C 
ATOM     12  C   UNL     1       7.289   1.502  11.159  0.00  0.00    +0.000 C 
ATOM     13  C   UNL     1       6.011   0.716  10.822  0.00  0.00    +0.000 C 
ATOM     14  C   UNL     1       5.210   1.877  11.434  0.00  0.00    +0.000 C 
ENDBRANCH   8  11
ENDBRANCH   4   7
BRANCH   1  16
ATOM     15  C   UNL     1       6.215   5.384  19.879  0.00  0.00    +0.000 C 
ATOM     16  N   UNL     1       6.768   5.977  18.669  0.00  0.00    +0.000 N 
ATOM     17  C   UNL     1       7.979   6.791  18.935  0.00  0.00    +0.000 C 
ENDBRANCH   1  16
BRANCH   6  18
ATOM     18  C   UNL     1       3.916   6.308  17.037  0.00  0.00    +0.000 C 
BRANCH  18  19
ATOM     19  N   UNL     1       3.196   5.816  18.251  0.00  0.00    +0.000 N 
ATOM     20  C   UNL     1       2.976   4.412  18.260  0.00  0.00    +0.000 C 
ATOM     21  O   UNL     1       3.232   3.744  17.256  0.00  0.00    +0.000 OA
BRANCH  20  22
ATOM     22  C   UNL     1       2.456   3.728  19.430  0.00  0.00    +0.000 A 
ATOM     23  C   UNL     1       1.181   3.209  19.625  0.00  0.00    +0.000 A 
ATOM     24  C   UNL     1       1.168   2.620  20.908  0.00  0.00    +0.000 A 
ATOM     25  C   UNL     1       2.423   2.798  21.429  0.00  0.00    +0.000 A 
ATOM     26  O   UNL     1       3.217   3.457  20.530  0.00  0.00    +0.000 OA
ENDBRANCH  20  22
BRANCH  19  27
ATOM     27  C   UNL     1       2.397   6.749  19.111  0.00  0.00    +0.000 C 
BRANCH  27  28
ATOM     28  C   UNL     1       2.379   8.303  18.817  0.00  0.00    +0.000 C 
ATOM     29  C   UNL     1       1.657   8.896  17.594  0.00  0.00    +0.000 C 
ATOM     30  C   UNL     1       0.406   9.556  18.136  0.00  0.00    +0.000 C 
ATOM     31  C   UNL     1       0.884  10.019  19.485  0.00  0.00    +0.000 C 
ATOM     32  O   UNL     1       1.748   8.969  19.960  0.00  0.00    +0.000 OA
ENDBRANCH  27  28
ENDBRANCH  19  27
ENDBRANCH  18  19
ENDBRANCH   6  18
TORSDOF 8
ENDMDL
MODEL 4
REMARK VINA RESULT:      -6.6      1.670      3.079
REMARK  Name = 
REMARK  10 active torsions:
REMARK  status: ('A' for Active; 'I' for Inactive)
REMARK    1  A    between atoms: C_1  and  N_2
REMARK    2  A    between atoms: N_2  and  C_3
REMARK    3  A    between atoms: N_2  and  C_4
REMARK    4  A    between atoms: C_7  and  N_8
REMARK    5  A    between atoms: C_9  and  C_11
REMARK    6  A    between atoms: C_16  and  C_17
REMARK    7  A    between atoms: C_17  and  N_18
REMARK    8  A    between atoms: N_18  and  C_19
REMARK    9  A    between atoms: C_19  and  C_20
REMARK   10  A    between atoms: C_25  and  C_27
REMARK                            x       y       z     vdW  Elec       q    Type
REMARK                         _______ _______ _______ _____ _____    ______ ____
ROOT
ATOM      1  C   UNL     1       1.471   8.195  20.362  0.00  0.00    +0.000 A 
ATOM      2  C   UNL     1       1.808   6.816  20.517  0.00  0.00    +0.000 A 
ATOM      3  C   UNL     1       2.521   6.042  19.590  0.00  0.00    +0.000 A 
ATOM      4  C   UNL     1       2.971   6.599  18.418  0.00  0.00    +0.000 A 
ATOM      5  C   UNL     1       2.708   7.960  18.220  0.00  0.00    +0.000 A 
ATOM      6  C   UNL     1       1.947   8.790  19.141  0.00  0.00    +0.000 A 
ENDROOT
BRANCH   4   7
ATOM      7  N   UNL     1       3.561   5.837  17.370  0.00  0.00    +0.000 N 
ATOM      8  C   UNL     1       4.928   5.632  17.146  0.00  0.00    +0.000 C 
ATOM      9  O   UNL     1       5.821   6.269  17.709  0.00  0.00    +0.000 OA
ATOM     10  H   UNL     1       2.917   5.346  16.763  0.00  0.00    +0.000 HD
BRANCH   8  11
ATOM     11  C   UNL     1       5.259   4.505  16.104  0.00  0.00    +0.000 C 
ATOM     12  C   UNL     1       5.226   4.885  14.588  0.00  0.00    +0.000 C 
ATOM     13  C   UNL     1       6.474   4.008  14.386  0.00  0.00    +0.000 C 
ATOM     14  C   UNL     1       6.776   4.205  15.880  0.00  0.00    +0.000 C 
ENDBRANCH   8  11
ENDBRANCH   4   7
BRANCH   1  16
ATOM     15  C   UNL     1      -0.706   8.560  21.610  0.00  0.00    +0.000 C 
ATOM     16  N   UNL     1       0.720   8.773  21.403  0.00  0.00    +0.000 N 
ATOM     17  C   UNL     1       1.397   9.306  22.609  0.00  0.00    +0.000 C 
ENDBRANCH   1  16
BRANCH   6  18
ATOM     18  C   UNL     1       1.501  10.126  18.494  0.00  0.00    +0.000 C 
BRANCH  18  19
ATOM     19  N   UNL     1       0.281  10.892  18.894  0.00  0.00    +0.000 N 
ATOM     20  C   UNL     1       0.499  11.808  19.958  0.00  0.00    +0.000 C 
ATOM     21  O   UNL     1       1.575  11.804  20.561  0.00  0.00    +0.000 OA
BRANCH  20  22
ATOM     22  C   UNL     1      -0.515  12.765  20.363  0.00  0.00    +0.000 A 
ATOM     23  C   UNL     1      -1.353  12.711  21.471  0.00  0.00    +0.000 A 
ATOM     24  C   UNL     1      -2.144  13.879  21.446  0.00  0.00    +0.000 A 
ATOM     25  C   UNL     1      -1.753  14.589  20.341  0.00  0.00    +0.000 A 
ATOM     26  O   UNL     1      -0.752  13.925  19.686  0.00  0.00    +0.000 OA
ENDBRANCH  20  22
BRANCH  19  27
ATOM     27  C   UNL     1      -1.092  10.408  18.534  0.00  0.00    +0.000 C 
BRANCH  27  28
ATOM     28  C   UNL     1      -1.991  11.213  17.511  0.00  0.00    +0.000 C 
ATOM     29  C   UNL     1      -2.525  10.577  16.215  0.00  0.00    +0.000 C 
ATOM     30  C   UNL     1      -4.002  10.337  16.454  0.00  0.00    +0.000 C 
ATOM     31  C   UNL     1      -4.341  11.495  17.355  0.00  0.00    +0.000 C 
ATOM     32  O   UNL     1      -3.199  11.647  18.219  0.00  0.00    +0.000 OA
ENDBRANCH  27  28
ENDBRANCH  19  27
ENDBRANCH  18  19
ENDBRANCH   6  18
TORSDOF 8
ENDMDL
MODEL 5
REMARK VINA RESULT:      -6.6      3.917      6.921
REMARK  Name = 
REMARK  10 active torsions:
REMARK  status: ('A' for Active; 'I' for Inactive)
REMARK    1  A    between atoms: C_1  and  N_2
REMARK    2  A    between atoms: N_2  and  C_3
REMARK    3  A    between atoms: N_2  and  C_4
REMARK    4  A    between atoms: C_7  and  N_8
REMARK    5  A    between atoms: C_9  and  C_11
REMARK    6  A    between atoms: C_16  and  C_17
REMARK    7  A    between atoms: C_17  and  N_18
REMARK    8  A    between atoms: N_18  and  C_19
REMARK    9  A    between atoms: C_19  and  C_20
REMARK   10  A    between atoms: C_25  and  C_27
REMARK                            x       y       z     vdW  Elec       q    Type
REMARK                         _______ _______ _______ _____ _____    ______ ____
ROOT
ATOM      1  C   UNL     1       5.923   5.700  17.769  0.00  0.00    +0.000 A 
ATOM      2  C   UNL     1       7.340   5.859  17.832  0.00  0.00    +0.000 A 
ATOM      3  C   UNL     1       8.026   7.082  17.820  0.00  0.00    +0.000 A 
ATOM      4  C   UNL     1       7.334   8.267  17.754  0.00  0.00    +0.000 A 
ATOM      5  C   UNL     1       5.936   8.185  17.729  0.00  0.00    +0.000 A 
ATOM      6  C   UNL     1       5.188   6.938  17.710  0.00  0.00    +0.000 A 
ENDROOT
BRANCH   4   7
ATOM      7  N   UNL     1       7.967   9.531  17.581  0.00  0.00    +0.000 N 
ATOM      8  C   UNL     1       8.884  10.137  18.448  0.00  0.00    +0.000 C 
ATOM      9  O   UNL     1       9.107   9.748  19.598  0.00  0.00    +0.000 OA
ATOM     10  H   UNL     1       7.775  10.007  16.709  0.00  0.00    +0.000 HD
BRANCH   8  11
ATOM     11  C   UNL     1       9.636  11.376  17.845  0.00  0.00    +0.000 C 
ATOM     12  C   UNL     1       9.496  12.744  18.591  0.00  0.00    +0.000 C 
ATOM     13  C   UNL     1      10.985  13.001  18.303  0.00  0.00    +0.000 C 
ATOM     14  C   UNL     1      11.160  11.480  18.175  0.00  0.00    +0.000 C 
ENDBRANCH   8  11
ENDBRANCH   4   7
BRANCH   1  16
ATOM     15  C   UNL     1       5.178   3.588  18.957  0.00  0.00    +0.000 C 
ATOM     16  N   UNL     1       5.444   4.377  17.761  0.00  0.00    +0.000 N 
ATOM     17  C   UNL     1       4.776   3.828  16.556  0.00  0.00    +0.000 C 
ENDBRANCH   1  16
BRANCH   6  18
ATOM     18  C   UNL     1       3.706   7.148  17.307  0.00  0.00    +0.000 C 
BRANCH  18  19
ATOM     19  N   UNL     1       2.631   7.597  18.244  0.00  0.00    +0.000 N 
ATOM     20  C   UNL     1       2.172   8.920  18.001  0.00  0.00    +0.000 C 
ATOM     21  O   UNL     1       2.760   9.634  17.186  0.00  0.00    +0.000 OA
BRANCH  20  22
ATOM     22  C   UNL     1       1.015   9.465  18.687  0.00  0.00    +0.000 A 
ATOM     23  C   UNL     1       0.887   9.787  20.033  0.00  0.00    +0.000 A 
ATOM     24  C   UNL     1      -0.414  10.304  20.212  0.00  0.00    +0.000 A 
ATOM     25  C   UNL     1      -1.013  10.281  18.979  0.00  0.00    +0.000 A 
ATOM     26  O   UNL     1      -0.145   9.786  18.044  0.00  0.00    +0.000 OA
ENDBRANCH  20  22
BRANCH  19  27
ATOM     27  C   UNL     1       2.411   6.910  19.559  0.00  0.00    +0.000 C 
BRANCH  27  28
ATOM     28  C   UNL     1       2.600   5.345  19.695  0.00  0.00    +0.000 C 
ATOM     29  C   UNL     1       2.136   4.571  20.941  0.00  0.00    +0.000 C 
ATOM     30  C   UNL     1       0.894   3.816  20.517  0.00  0.00    +0.000 C 
ATOM     31  C   UNL     1       1.210   3.527  19.074  0.00  0.00    +0.000 C 
ATOM     32  O   UNL     1       1.877   4.708  18.591  0.00  0.00    +0.000 OA
ENDBRANCH  27  28
ENDBRANCH  19  27
ENDBRANCH  18  19
ENDBRANCH   6  18
TORSDOF 8
ENDMDL
MODEL 6
REMARK VINA RESULT:      -6.6      0.978      1.096
REMARK  Name = 
REMARK  10 active torsions:
REMARK  status: ('A' for Active; 'I' for Inactive)
REMARK    1  A    between atoms: C_1  and  N_2
REMARK    2  A    between atoms: N_2  and  C_3
REMARK    3  A    between atoms: N_2  and  C_4
REMARK    4  A    between atoms: C_7  and  N_8
REMARK    5  A    between atoms: C_9  and  C_11
REMARK    6  A    between atoms: C_16  and  C_17
REMARK    7  A    between atoms: C_17  and  N_18
REMARK    8  A    between atoms: N_18  and  C_19
REMARK    9  A    between atoms: C_19  and  C_20
REMARK   10  A    between atoms: C_25  and  C_27
REMARK                            x       y       z     vdW  Elec       q    Type
REMARK                         _______ _______ _______ _____ _____    ______ ____
ROOT
ATOM      1  C   UNL     1       1.481   8.378  20.106  0.00  0.00    +0.000 A 
ATOM      2  C   UNL     1       2.006   7.089  20.419  0.00  0.00    +0.000 A 
ATOM      3  C   UNL     1       2.778   6.292  19.561  0.00  0.00    +0.000 A 
ATOM      4  C   UNL     1       3.102   6.736  18.302  0.00  0.00    +0.000 A 
ATOM      5  C   UNL     1       2.651   8.012  17.944  0.00  0.00    +0.000 A 
ATOM      6  C   UNL     1       1.823   8.857  18.791  0.00  0.00    +0.000 A 
ENDROOT
BRANCH   4   7
ATOM      7  N   UNL     1       3.745   5.919  17.330  0.00  0.00    +0.000 N 
ATOM      8  C   UNL     1       5.124   5.750  17.152  0.00  0.00    +0.000 C 
ATOM      9  O   UNL     1       5.979   6.464  17.684  0.00  0.00    +0.000 OA
ATOM     10  H   UNL     1       3.135   5.358  16.749  0.00  0.00    +0.000 HD
BRANCH   8  11
ATOM     11  C   UNL     1       5.523   4.560  16.209  0.00  0.00    +0.000 C 
ATOM     12  C   UNL     1       5.119   4.662  14.702  0.00  0.00    +0.000 C 
ATOM     13  C   UNL     1       6.484   4.051  14.341  0.00  0.00    +0.000 C 
ATOM     14  C   UNL     1       6.999   4.558  15.697  0.00  0.00    +0.000 C 
ENDBRANCH   8  11
ENDBRANCH   4   7
BRANCH   1  16
ATOM     15  C   UNL     1       0.976  10.306  21.674  0.00  0.00    +0.000 C 
ATOM     16  N   UNL     1       0.702   8.993  21.104  0.00  0.00    +0.000 N 
ATOM     17  C   UNL     1      -0.688   8.543  21.354  0.00  0.00    +0.000 C 
ENDBRANCH   1  16
BRANCH   6  18
ATOM     18  C   UNL     1       1.176  10.024  18.003  0.00  0.00    +0.000 C 
BRANCH  18  19
ATOM     19  N   UNL     1       0.242  11.029  18.597  0.00  0.00    +0.000 N 
ATOM     20  C   UNL     1      -1.132  10.708  18.429  0.00  0.00    +0.000 C 
ATOM     21  O   UNL     1      -1.458   9.761  17.709  0.00  0.00    +0.000 OA
BRANCH  20  22
ATOM     22  C   UNL     1      -2.180  11.465  19.089  0.00  0.00    +0.000 A 
ATOM     23  C   UNL     1      -3.448  11.773  18.612  0.00  0.00    +0.000 A 
ATOM     24  C   UNL     1      -4.105  12.504  19.625  0.00  0.00    +0.000 A 
ATOM     25  C   UNL     1      -3.219  12.601  20.667  0.00  0.00    +0.000 A 
ATOM     26  O   UNL     1      -2.053  11.959  20.355  0.00  0.00    +0.000 OA
ENDBRANCH  20  22
BRANCH  19  27
ATOM     27  C   UNL     1       0.698  12.424  18.907  0.00  0.00    +0.000 C 
BRANCH  27  28
ATOM     28  C   UNL     1       2.239  12.773  18.982  0.00  0.00    +0.000 C 
ATOM     29  C   UNL     1       2.884  13.825  18.064  0.00  0.00    +0.000 C 
ATOM     30  C   UNL     1       3.146  15.032  18.942  0.00  0.00    +0.000 C 
ATOM     31  C   UNL     1       3.435  14.371  20.263  0.00  0.00    +0.000 C 
ATOM     32  O   UNL     1       2.524  13.258  20.335  0.00  0.00    +0.000 OA
ENDBRANCH  27  28
ENDBRANCH  19  27
ENDBRANCH  18  19
ENDBRANCH   6  18
TORSDOF 8
ENDMDL
MODEL 7
REMARK VINA RESULT:      -6.6      0.767      1.153
REMARK  Name = 
REMARK  10 active torsions:
REMARK  status: ('A' for Active; 'I' for Inactive)
REMARK    1  A    between atoms: C_1  and  N_2
REMARK    2  A    between atoms: N_2  and  C_3
REMARK    3  A    between atoms: N_2  and  C_4
REMARK    4  A    between atoms: C_7  and  N_8
REMARK    5  A    between atoms: C_9  and  C_11
REMARK    6  A    between atoms: C_16  and  C_17
REMARK    7  A    between atoms: C_17  and  N_18
REMARK    8  A    between atoms: N_18  and  C_19
REMARK    9  A    between atoms: C_19  and  C_20
REMARK   10  A    between atoms: C_25  and  C_27
REMARK                            x       y       z     vdW  Elec       q    Type
REMARK                         _______ _______ _______ _____ _____    ______ ____
ROOT
ATOM      1  C   UNL     1       1.543   8.281  20.194  0.00  0.00    +0.000 A 
ATOM      2  C   UNL     1       2.157   6.993  20.259  0.00  0.00    +0.000 A 
ATOM      3  C   UNL     1       2.949   6.415  19.257  0.00  0.00    +0.000 A 
ATOM      4  C   UNL     1       3.204   7.097  18.091  0.00  0.00    +0.000 A 
ATOM      5  C   UNL     1       2.664   8.384  17.978  0.00  0.00    +0.000 A 
ATOM      6  C   UNL     1       1.814   9.007  18.980  0.00  0.00    +0.000 A 
ENDROOT
BRANCH   4   7
ATOM      7  N   UNL     1       3.866   6.511  16.975  0.00  0.00    +0.000 N 
ATOM      8  C   UNL     1       5.227   6.603  16.661  0.00  0.00    +0.000 C 
ATOM      9  O   UNL     1       6.006   7.394  17.200  0.00  0.00    +0.000 OA
ATOM     10  H   UNL     1       3.297   5.917  16.385  0.00  0.00    +0.000 HD
BRANCH   8  11
ATOM     11  C   UNL     1       5.712   5.607  15.549  0.00  0.00    +0.000 C 
ATOM     12  C   UNL     1       7.020   4.795  15.823  0.00  0.00    +0.000 C 
ATOM     13  C   UNL     1       6.346   3.574  15.173  0.00  0.00    +0.000 C 
ATOM     14  C   UNL     1       4.993   4.219  15.513  0.00  0.00    +0.000 C 
ENDBRANCH   8  11
ENDBRANCH   4   7
BRANCH   1  16
ATOM     15  C   UNL     1      -0.591   8.174  21.559  0.00  0.00    +0.000 C 
ATOM     16  N   UNL     1       0.760   8.655  21.301  0.00  0.00    +0.000 N 
ATOM     17  C   UNL     1       1.397   9.236  22.508  0.00  0.00    +0.000 C 
ENDBRANCH   1  16
BRANCH   6  18
ATOM     18  C   UNL     1       1.071  10.251  18.428  0.00  0.00    +0.000 C 
BRANCH  18  19
ATOM     19  N   UNL     1       0.402  11.283  19.279  0.00  0.00    +0.000 N 
ATOM     20  C   UNL     1      -1.004  11.113  19.391  0.00  0.00    +0.000 C 
ATOM     21  O   UNL     1      -1.579  10.273  18.695  0.00  0.00    +0.000 OA
BRANCH  20  22
ATOM     22  C   UNL     1      -1.798  11.904  20.314  0.00  0.00    +0.000 A 
ATOM     23  C   UNL     1      -2.865  12.745  20.026  0.00  0.00    +0.000 A 
ATOM     24  C   UNL     1      -3.321  13.269  21.254  0.00  0.00    +0.000 A 
ATOM     25  C   UNL     1      -2.524  12.724  22.227  0.00  0.00    +0.000 A 
ATOM     26  O   UNL     1      -1.606  11.881  21.665  0.00  0.00    +0.000 OA
ENDBRANCH  20  22
BRANCH  19  27
ATOM     27  C   UNL     1       1.069  12.592  19.579  0.00  0.00    +0.000 C 
BRANCH  27  28
ATOM     28  C   UNL     1       0.880  13.834  18.618  0.00  0.00    +0.000 C 
ATOM     29  C   UNL     1      -0.130  14.955  18.921  0.00  0.00    +0.000 C 
ATOM     30  C   UNL     1       0.696  16.143  19.368  0.00  0.00    +0.000 C 
ATOM     31  C   UNL     1       1.944  15.953  18.548  0.00  0.00    +0.000 C 
ATOM     32  O   UNL     1       2.166  14.530  18.524  0.00  0.00    +0.000 OA
ENDBRANCH  27  28
ENDBRANCH  19  27
ENDBRANCH  18  19
ENDBRANCH   6  18
TORSDOF 8
ENDMDL
MODEL 8
REMARK VINA RESULT:      -6.5      1.670      3.198
REMARK  Name = 
REMARK  10 active torsions:
REMARK  status: ('A' for Active; 'I' for Inactive)
REMARK    1  A    between atoms: C_1  and  N_2
REMARK    2  A    between atoms: N_2  and  C_3
REMARK    3  A    between atoms: N_2  and  C_4
REMARK    4  A    between atoms: C_7  and  N_8
REMARK    5  A    between atoms: C_9  and  C_11
REMARK    6  A    between atoms: C_16  and  C_17
REMARK    7  A    between atoms: C_17  and  N_18
REMARK    8  A    between atoms: N_18  and  C_19
REMARK    9  A    between atoms: C_19  and  C_20
REMARK   10  A    between atoms: C_25  and  C_27
REMARK                            x       y       z     vdW  Elec       q    Type
REMARK                         _______ _______ _______ _____ _____    ______ ____
ROOT
ATOM      1  C   UNL     1       1.457   8.331  19.956  0.00  0.00    +0.000 A 
ATOM      2  C   UNL     1       2.174   7.143  20.295  0.00  0.00    +0.000 A 
ATOM      3  C   UNL     1       3.076   6.469  19.460  0.00  0.00    +0.000 A 
ATOM      4  C   UNL     1       3.348   6.945  18.200  0.00  0.00    +0.000 A 
ATOM      5  C   UNL     1       2.708   8.131  17.818  0.00  0.00    +0.000 A 
ATOM      6  C   UNL     1       1.744   8.843  18.641  0.00  0.00    +0.000 A 
ENDROOT
BRANCH   4   7
ATOM      7  N   UNL     1       4.129   6.229  17.249  0.00  0.00    +0.000 N 
ATOM      8  C   UNL     1       5.494   6.395  16.987  0.00  0.00    +0.000 C 
ATOM      9  O   UNL     1       6.165   7.344  17.401  0.00  0.00    +0.000 OA
ATOM     10  H   UNL     1       3.654   5.483  16.758  0.00  0.00    +0.000 HD
BRANCH   8  11
ATOM     11  C   UNL     1       6.135   5.261  16.111  0.00  0.00    +0.000 C 
ATOM     12  C   UNL     1       5.471   3.845  16.156  0.00  0.00    +0.000 C 
ATOM     13  C   UNL     1       5.715   3.732  14.641  0.00  0.00    +0.000 C 
ATOM     14  C   UNL     1       5.753   5.268  14.595  0.00  0.00    +0.000 C 
ENDBRANCH   8  11
ENDBRANCH   4   7
BRANCH   1  16
ATOM     15  C   UNL     1      -0.604   8.119  21.418  0.00  0.00    +0.000 C 
ATOM     16  N   UNL     1       0.575   8.826  20.934  0.00  0.00    +0.000 N 
ATOM     17  C   UNL     1       1.001   9.914  21.847  0.00  0.00    +0.000 C 
ENDBRANCH   1  16
BRANCH   6  18
ATOM     18  C   UNL     1       0.934   9.885  17.827  0.00  0.00    +0.000 C 
BRANCH  18  19
ATOM     19  N   UNL     1       0.064  10.939  18.433  0.00  0.00    +0.000 N 
ATOM     20  C   UNL     1       0.785  12.017  19.013  0.00  0.00    +0.000 C 
ATOM     21  O   UNL     1       2.012  11.949  19.120  0.00  0.00    +0.000 OA
BRANCH  20  22
ATOM     22  C   UNL     1       0.118  13.216  19.488  0.00  0.00    +0.000 A 
ATOM     23  C   UNL     1      -0.211  14.358  18.768  0.00  0.00    +0.000 A 
ATOM     24  C   UNL     1      -0.868  15.233  19.660  0.00  0.00    +0.000 A 
ATOM     25  C   UNL     1      -0.917  14.588  20.869  0.00  0.00    +0.000 A 
ATOM     26  O   UNL     1      -0.334  13.355  20.768  0.00  0.00    +0.000 OA
ENDBRANCH  20  22
BRANCH  19  27
ATOM     27  C   UNL     1      -1.363  10.654  18.795  0.00  0.00    +0.000 C 
BRANCH  27  28
ATOM     28  C   UNL     1      -2.362  10.048  17.729  0.00  0.00    +0.000 C 
ATOM     29  C   UNL     1      -3.885  10.240  17.834  0.00  0.00    +0.000 C 
ATOM     30  C   UNL     1      -4.247  11.250  16.764  0.00  0.00    +0.000 C 
ATOM     31  C   UNL     1      -3.230  10.923  15.703  0.00  0.00    +0.000 C 
ATOM     32  O   UNL     1      -2.021  10.615  16.421  0.00  0.00    +0.000 OA
ENDBRANCH  27  28
ENDBRANCH  19  27
ENDBRANCH  18  19
ENDBRANCH   6  18
TORSDOF 8
ENDMDL
MODEL 9
REMARK VINA RESULT:      -6.5      1.001      1.349
REMARK  Name = 
REMARK  10 active torsions:
REMARK  status: ('A' for Active; 'I' for Inactive)
REMARK    1  A    between atoms: C_1  and  N_2
REMARK    2  A    between atoms: N_2  and  C_3
REMARK    3  A    between atoms: N_2  and  C_4
REMARK    4  A    between atoms: C_7  and  N_8
REMARK    5  A    between atoms: C_9  and  C_11
REMARK    6  A    between atoms: C_16  and  C_17
REMARK    7  A    between atoms: C_17  and  N_18
REMARK    8  A    between atoms: N_18  and  C_19
REMARK    9  A    between atoms: C_19  and  C_20
REMARK   10  A    between atoms: C_25  and  C_27
REMARK                            x       y       z     vdW  Elec       q    Type
REMARK                         _______ _______ _______ _____ _____    ______ ____
ROOT
ATOM      1  C   UNL     1       1.501   8.138  20.295  0.00  0.00    +0.000 A 
ATOM      2  C   UNL     1       2.004   6.823  20.530  0.00  0.00    +0.000 A 
ATOM      3  C   UNL     1       2.771   6.070  19.629  0.00  0.00    +0.000 A 
ATOM      4  C   UNL     1       3.112   6.588  18.403  0.00  0.00    +0.000 A 
ATOM      5  C   UNL     1       2.684   7.892  18.123  0.00  0.00    +0.000 A 
ATOM      6  C   UNL     1       1.863   8.694  19.017  0.00  0.00    +0.000 A 
ENDROOT
BRANCH   4   7
ATOM      7  N   UNL     1       3.751   5.825  17.385  0.00  0.00    +0.000 N 
ATOM      8  C   UNL     1       5.128   5.716  17.155  0.00  0.00    +0.000 C 
ATOM      9  O   UNL     1       5.974   6.447  17.677  0.00  0.00    +0.000 OA
ATOM     10  H   UNL     1       3.143   5.256  16.810  0.00  0.00    +0.000 HD
BRANCH   8  11
ATOM     11  C   UNL     1       5.539   4.569  16.165  0.00  0.00    +0.000 C 
ATOM     12  C   UNL     1       5.253   4.787  14.643  0.00  0.00    +0.000 C 
ATOM     13  C   UNL     1       6.610   4.130  14.340  0.00  0.00    +0.000 C 
ATOM     14  C   UNL     1       7.047   4.522  15.760  0.00  0.00    +0.000 C 
ENDBRANCH   8  11
ENDBRANCH   4   7
BRANCH   1  16
ATOM     15  C   UNL     1      -0.603   8.235  21.707  0.00  0.00    +0.000 C 
ATOM     16  N   UNL     1       0.724   8.701  21.324  0.00  0.00    +0.000 N 
ATOM     17  C   UNL     1       1.358   9.536  22.373  0.00  0.00    +0.000 C 
ENDBRANCH   1  16
BRANCH   6  18
ATOM     18  C   UNL     1       1.240   9.919  18.299  0.00  0.00    +0.000 C 
BRANCH  18  19
ATOM     19  N   UNL     1       0.637  11.093  19.002  0.00  0.00    +0.000 N 
ATOM     20  C   UNL     1      -0.746  10.941  19.292  0.00  0.00    +0.000 C 
ATOM     21  O   UNL     1      -1.368   9.980  18.834  0.00  0.00    +0.000 OA
BRANCH  20  22
ATOM     22  C   UNL     1      -1.461  11.892  20.124  0.00  0.00    +0.000 A 
ATOM     23  C   UNL     1      -2.147  13.034  19.729  0.00  0.00    +0.000 A 
ATOM     24  C   UNL     1      -2.693  13.612  20.894  0.00  0.00    +0.000 A 
ATOM     25  C   UNL     1      -2.325  12.802  21.937  0.00  0.00    +0.000 A 
ATOM     26  O   UNL     1      -1.589  11.745  21.475  0.00  0.00    +0.000 OA
ENDBRANCH  20  22
BRANCH  19  27
ATOM     27  C   UNL     1       1.298  12.438  18.974  0.00  0.00    +0.000 C 
BRANCH  27  28
ATOM     28  C   UNL     1       2.168  12.937  20.198  0.00  0.00    +0.000 C 
ATOM     29  C   UNL     1       3.224  14.047  20.052  0.00  0.00    +0.000 C 
ATOM     30  C   UNL     1       2.623  15.274  20.706  0.00  0.00    +0.000 C 
ATOM     31  C   UNL     1       1.803  14.646  21.801  0.00  0.00    +0.000 C 
ATOM     32  O   UNL     1       1.251  13.450  21.221  0.00  0.00    +0.000 OA
ENDBRANCH  27  28
ENDBRANCH  19  27
ENDBRANCH  18  19
ENDBRANCH   6  18
TORSDOF 8
ENDMDL
