MODEL 1
REMARK VINA RESULT:      -8.5      0.000      0.000
REMARK  Name = 
REMARK  5 active torsions:
REMARK  status: ('A' for Active; 'I' for Inactive)
REMARK    1  A    between atoms: C_1  and  C_2
REMARK    2  A    between atoms: C_9  and  S_10
REMARK    3  A    between atoms: S_10  and  N_13
REMARK    4  A    between atoms: N_13  and  N_14
REMARK    5  A    between atoms: N_14  and  C_15
REMARK                            x       y       z     vdW  Elec       q    Type
REMARK                         _______ _______ _______ _____ _____    ______ ____
ROOT
ATOM      1  S   UNL     1       3.970   3.289  18.741  0.00  0.00    +0.000 S 
ATOM      2  O   UNL     1       5.011   3.085  19.729  0.00  0.00    +0.000 OA
ATOM      3  O   UNL     1       2.917   2.313  18.553  0.00  0.00    +0.000 OA
ENDROOT
BRANCH   1  12
ATOM      4  C   UNL     1       0.531   8.754  21.946  0.00  0.00    +0.000 C 
ATOM      5  C   UNL     1       0.837   9.367  20.609  0.00  0.00    +0.000 C 
ATOM      6  O   UNL     1       0.503  10.537  20.395  0.00  0.00    +0.000 OA
ATOM      7  N   UNL     1       1.509   8.629  19.656  0.00  0.00    +0.000 N 
ATOM      8  C   UNL     1       1.917   9.292  18.408  0.00  0.00    +0.000 C 
ATOM      9  C   UNL     1       2.577   8.240  17.515  0.00  0.00    +0.000 C 
ATOM     10  C   UNL     1       2.656   7.064  18.438  0.00  0.00    +0.000 A 
ATOM     11  C   UNL     1       3.260   5.842  18.168  0.00  0.00    +0.000 A 
ATOM     12  C   UNL     1       3.184   4.832  19.136  0.00  0.00    +0.000 A 
ATOM     13  C   UNL     1       2.506   5.061  20.340  0.00  0.00    +0.000 A 
ATOM     14  C   UNL     1       1.905   6.303  20.592  0.00  0.00    +0.000 A 
ATOM     15  C   UNL     1       1.995   7.309  19.644  0.00  0.00    +0.000 A 
ENDBRANCH   1  12
BRANCH   1  16
ATOM     16  N   UNL     1       4.743   3.487  17.242  0.00  0.00    +0.000 NA
ATOM     17  H   UNL     1       4.211   3.446  16.381  0.00  0.00    +0.000 HD
BRANCH  16  18
ATOM     18  N   UNL     1       6.157   3.834  17.220  0.00  0.00    +0.000 N 
ATOM     19  H   UNL     1       6.786   3.100  16.890  0.00  0.00    +0.000 HD
BRANCH  18  20
ATOM     20  C   UNL     1       6.721   5.087  17.491  0.00  0.00    +0.000 A 
ATOM     21  C   UNL     1       7.578   5.317  18.573  0.00  0.00    +0.000 A 
ATOM     22  C   UNL     1       8.114   6.591  18.807  0.00  0.00    +0.000 A 
ATOM     23  C   UNL     1       7.799   7.643  17.951  0.00  0.00    +0.000 A 
ATOM     24 BR   UNL     1       8.510   9.364  18.272  0.00  0.00    +0.000 Br
ATOM     25  C   UNL     1       6.961   7.433  16.862  0.00  0.00    +0.000 A 
ATOM     26  C   UNL     1       6.431   6.160  16.635  0.00  0.00    +0.000 A 
ENDBRANCH  18  20
ENDBRANCH  16  18
ENDBRANCH   1  16
TORSDOF 4
ENDMDL
MODEL 2
REMARK VINA RESULT:      -8.3      2.842      6.208
REMARK  Name = 
REMARK  5 active torsions:
REMARK  status: ('A' for Active; 'I' for Inactive)
REMARK    1  A    between atoms: C_1  and  C_2
REMARK    2  A    between atoms: C_9  and  S_10
REMARK    3  A    between atoms: S_10  and  N_13
REMARK    4  A    between atoms: N_13  and  N_14
REMARK    5  A    between atoms: N_14  and  C_15
REMARK                            x       y       z     vdW  Elec       q    Type
REMARK                         _______ _______ _______ _____ _____    ______ ____
ROOT
ATOM      1  S   UNL     1       2.039   3.292  20.179  0.00  0.00    +0.000 S 
ATOM      2  O   UNL     1       0.998   2.568  19.476  0.00  0.00    +0.000 OA
ATOM      3  O   UNL     1       2.729   2.700  21.306  0.00  0.00    +0.000 OA
ENDROOT
BRANCH   1  12
ATOM      4  C   UNL     1       5.832   4.331  14.139  0.00  0.00    +0.000 C 
ATOM      5  C   UNL     1       6.763   4.928  15.156  0.00  0.00    +0.000 C 
ATOM      6  O   UNL     1       7.825   5.431  14.773  0.00  0.00    +0.000 OA
ATOM      7  N   UNL     1       6.409   4.930  16.489  0.00  0.00    +0.000 N 
ATOM      8  C   UNL     1       7.271   5.639  17.448  0.00  0.00    +0.000 C 
ATOM      9  C   UNL     1       6.686   5.430  18.845  0.00  0.00    +0.000 C 
ATOM     10  C   UNL     1       5.391   4.748  18.533  0.00  0.00    +0.000 A 
ATOM     11  C   UNL     1       4.400   4.402  19.444  0.00  0.00    +0.000 A 
ATOM     12  C   UNL     1       3.274   3.712  18.975  0.00  0.00    +0.000 A 
ATOM     13  C   UNL     1       3.167   3.379  17.619  0.00  0.00    +0.000 A 
ATOM     14  C   UNL     1       4.179   3.740  16.716  0.00  0.00    +0.000 A 
ATOM     15  C   UNL     1       5.284   4.438  17.175  0.00  0.00    +0.000 A 
ENDBRANCH   1  12
BRANCH   1  16
ATOM     16  N   UNL     1       1.349   4.746  20.722  0.00  0.00    +0.000 NA
ATOM     17  H   UNL     1       0.402   4.762  21.082  0.00  0.00    +0.000 HD
BRANCH  16  18
ATOM     18  N   UNL     1       2.179   5.941  20.774  0.00  0.00    +0.000 N 
ATOM     19  H   UNL     1       3.115   5.811  21.163  0.00  0.00    +0.000 HD
BRANCH  18  20
ATOM     20  C   UNL     1       1.873   7.203  20.250  0.00  0.00    +0.000 A 
ATOM     21  C   UNL     1       2.209   7.587  18.947  0.00  0.00    +0.000 A 
ATOM     22  C   UNL     1       1.886   8.864  18.468  0.00  0.00    +0.000 A 
ATOM     23  C   UNL     1       1.217   9.764  19.292  0.00  0.00    +0.000 A 
ATOM     24 BR   UNL     1       0.792  11.491  18.654  0.00  0.00    +0.000 Br
ATOM     25  C   UNL     1       0.860   9.398  20.586  0.00  0.00    +0.000 A 
ATOM     26  C   UNL     1       1.185   8.122  21.056  0.00  0.00    +0.000 A 
ENDBRANCH  18  20
ENDBRANCH  16  18
ENDBRANCH   1  16
TORSDOF 4
ENDMDL
MODEL 3
REMARK VINA RESULT:      -8.3      0.201      1.001
REMARK  Name = 
REMARK  5 active torsions:
REMARK  status: ('A' for Active; 'I' for Inactive)
REMARK    1  A    between atoms: C_1  and  C_2
REMARK    2  A    between atoms: C_9  and  S_10
REMARK    3  A    between atoms: S_10  and  N_13
REMARK    4  A    between atoms: N_13  and  N_14
REMARK    5  A    between atoms: N_14  and  C_15
REMARK                            x       y       z     vdW  Elec       q    Type
REMARK                         _______ _______ _______ _____ _____    ______ ____
ROOT
ATOM      1  S   UNL     1       3.718   3.235  18.673  0.00  0.00    +0.000 S 
ATOM      2  O   UNL     1       4.613   2.866  19.751  0.00  0.00    +0.000 OA
ATOM      3  O   UNL     1       2.627   2.368  18.278  0.00  0.00    +0.000 OA
ENDROOT
BRANCH   1  12
ATOM      4  C   UNL     1       0.689   8.820  22.076  0.00  0.00    +0.000 C 
ATOM      5  C   UNL     1       0.903   9.411  20.712  0.00  0.00    +0.000 C 
ATOM      6  O   UNL     1       0.583  10.588  20.512  0.00  0.00    +0.000 OA
ATOM      7  N   UNL     1       1.477   8.647  19.717  0.00  0.00    +0.000 N 
ATOM      8  C   UNL     1       1.801   9.286  18.433  0.00  0.00    +0.000 C 
ATOM      9  C   UNL     1       2.360   8.208  17.503  0.00  0.00    +0.000 C 
ATOM     10  C   UNL     1       2.483   7.040  18.430  0.00  0.00    +0.000 A 
ATOM     11  C   UNL     1       3.030   5.799  18.127  0.00  0.00    +0.000 A 
ATOM     12  C   UNL     1       3.007   4.802  19.111  0.00  0.00    +0.000 A 
ATOM     13  C   UNL     1       2.433   5.060  20.362  0.00  0.00    +0.000 A 
ATOM     14  C   UNL     1       1.887   6.320  20.647  0.00  0.00    +0.000 A 
ATOM     15  C   UNL     1       1.926   7.314  19.682  0.00  0.00    +0.000 A 
ENDBRANCH   1  12
BRANCH   1  16
ATOM     16  N   UNL     1       4.681   3.485  17.296  0.00  0.00    +0.000 NA
ATOM     17  H   UNL     1       4.267   3.474  16.372  0.00  0.00    +0.000 HD
BRANCH  16  18
ATOM     18  N   UNL     1       6.083   3.837  17.473  0.00  0.00    +0.000 N 
ATOM     19  H   UNL     1       6.744   3.060  17.403  0.00  0.00    +0.000 HD
BRANCH  18  20
ATOM     20  C   UNL     1       6.618   5.123  17.611  0.00  0.00    +0.000 A 
ATOM     21  C   UNL     1       6.225   6.201  16.811  0.00  0.00    +0.000 A 
ATOM     22  C   UNL     1       6.794   7.470  16.984  0.00  0.00    +0.000 A 
ATOM     23  C   UNL     1       7.759   7.668  17.967  0.00  0.00    +0.000 A 
ATOM     24 BR   UNL     1       8.538   9.375  18.193  0.00  0.00    +0.000 Br
ATOM     25  C   UNL     1       8.155   6.614  18.782  0.00  0.00    +0.000 A 
ATOM     26  C   UNL     1       7.582   5.352  18.605  0.00  0.00    +0.000 A 
ENDBRANCH  18  20
ENDBRANCH  16  18
ENDBRANCH   1  16
TORSDOF 4
ENDMDL
MODEL 4
REMARK VINA RESULT:      -8.1      2.961      6.561
REMARK  Name = 
REMARK  5 active torsions:
REMARK  status: ('A' for Active; 'I' for Inactive)
REMARK    1  A    between atoms: C_1  and  C_2
REMARK    2  A    between atoms: C_9  and  S_10
REMARK    3  A    between atoms: S_10  and  N_13
REMARK    4  A    between atoms: N_13  and  N_14
REMARK    5  A    between atoms: N_14  and  C_15
REMARK                            x       y       z     vdW  Elec       q    Type
REMARK                         _______ _______ _______ _____ _____    ______ ____
ROOT
ATOM      1  S   UNL     1       2.003   4.480  20.551  0.00  0.00    +0.000 S 
ATOM      2  O   UNL     1       0.772   4.061  19.912  0.00  0.00    +0.000 OA
ATOM      3  O   UNL     1       2.582   3.712  21.633  0.00  0.00    +0.000 OA
ENDROOT
BRANCH   1  12
ATOM      4  C   UNL     1       5.614   4.411  14.313  0.00  0.00    +0.000 C 
ATOM      5  C   UNL     1       6.688   4.890  15.248  0.00  0.00    +0.000 C 
ATOM      6  O   UNL     1       7.802   5.163  14.790  0.00  0.00    +0.000 OA
ATOM      7  N   UNL     1       6.407   5.044  16.589  0.00  0.00    +0.000 N 
ATOM      8  C   UNL     1       7.430   5.642  17.461  0.00  0.00    +0.000 C 
ATOM      9  C   UNL     1       6.888   5.635  18.891  0.00  0.00    +0.000 C 
ATOM     10  C   UNL     1       5.477   5.185  18.678  0.00  0.00    +0.000 A 
ATOM     11  C   UNL     1       4.486   5.086  19.649  0.00  0.00    +0.000 A 
ATOM     12  C   UNL     1       3.233   4.587  19.273  0.00  0.00    +0.000 A 
ATOM     13  C   UNL     1       2.999   4.192  17.950  0.00  0.00    +0.000 A 
ATOM     14  C   UNL     1       4.012   4.302  16.987  0.00  0.00    +0.000 A 
ATOM     15  C   UNL     1       5.248   4.812  17.351  0.00  0.00    +0.000 A 
ENDBRANCH   1  12
BRANCH   1  16
ATOM     16  N   UNL     1       1.746   6.054  21.135  0.00  0.00    +0.000 NA
ATOM     17  H   UNL     1       1.305   6.202  22.036  0.00  0.00    +0.000 HD
BRANCH  16  18
ATOM     18  N   UNL     1       2.276   7.180  20.380  0.00  0.00    +0.000 N 
ATOM     19  H   UNL     1       3.253   7.095  20.090  0.00  0.00    +0.000 HD
BRANCH  18  20
ATOM     20  C   UNL     1       1.567   8.296  19.921  0.00  0.00    +0.000 A 
ATOM     21  C   UNL     1       1.681   8.786  18.615  0.00  0.00    +0.000 A 
ATOM     22  C   UNL     1       0.954   9.910  18.203  0.00  0.00    +0.000 A 
ATOM     23  C   UNL     1       0.100  10.550  19.098  0.00  0.00    +0.000 A 
ATOM     24 BR   UNL     1      -0.872  12.074  18.548  0.00  0.00    +0.000 Br
ATOM     25  C   UNL     1      -0.039  10.071  20.396  0.00  0.00    +0.000 A 
ATOM     26  C   UNL     1       0.688   8.949  20.799  0.00  0.00    +0.000 A 
ENDBRANCH  18  20
ENDBRANCH  16  18
ENDBRANCH   1  16
TORSDOF 4
ENDMDL
MODEL 5
REMARK VINA RESULT:      -8.0      3.071      6.663
REMARK  Name = 
REMARK  5 active torsions:
REMARK  status: ('A' for Active; 'I' for Inactive)
REMARK    1  A    between atoms: C_1  and  C_2
REMARK    2  A    between atoms: C_9  and  S_10
REMARK    3  A    between atoms: S_10  and  N_13
REMARK    4  A    between atoms: N_13  and  N_14
REMARK    5  A    between atoms: N_14  and  C_15
REMARK                            x       y       z     vdW  Elec       q    Type
REMARK                         _______ _______ _______ _____ _____    ______ ____
ROOT
ATOM      1  S   UNL     1       2.266   4.120  20.327  0.00  0.00    +0.000 S 
ATOM      2  O   UNL     1       0.990   3.863  19.690  0.00  0.00    +0.000 OA
ATOM      3  O   UNL     1       2.833   3.179  21.271  0.00  0.00    +0.000 OA
ENDROOT
BRANCH   1  12
ATOM      4  C   UNL     1       5.812   4.172  14.051  0.00  0.00    +0.000 C 
ATOM      5  C   UNL     1       6.797   4.890  14.931  0.00  0.00    +0.000 C 
ATOM      6  O   UNL     1       7.849   5.307  14.436  0.00  0.00    +0.000 OA
ATOM      7  N   UNL     1       6.501   5.096  16.262  0.00  0.00    +0.000 N 
ATOM      8  C   UNL     1       7.415   5.918  17.070  0.00  0.00    +0.000 C 
ATOM      9  C   UNL     1       6.887   5.930  18.505  0.00  0.00    +0.000 C 
ATOM     10  C   UNL     1       5.569   5.240  18.350  0.00  0.00    +0.000 A 
ATOM     11  C   UNL     1       4.612   5.054  19.341  0.00  0.00    +0.000 A 
ATOM     12  C   UNL     1       3.456   4.330  19.025  0.00  0.00    +0.000 A 
ATOM     13  C   UNL     1       3.284   3.804  17.739  0.00  0.00    +0.000 A 
ATOM     14  C   UNL     1       4.262   4.004  16.753  0.00  0.00    +0.000 A 
ATOM     15  C   UNL     1       5.398   4.736  17.058  0.00  0.00    +0.000 A 
ENDBRANCH   1  12
BRANCH   1  16
ATOM     16  N   UNL     1       2.128   5.611  21.128  0.00  0.00    +0.000 NA
ATOM     17  H   UNL     1       2.029   5.645  22.136  0.00  0.00    +0.000 HD
BRANCH  16  18
ATOM     18  N   UNL     1       2.275   6.838  20.360  0.00  0.00    +0.000 N 
ATOM     19  H   UNL     1       2.980   6.814  19.620  0.00  0.00    +0.000 HD
BRANCH  18  20
ATOM     20  C   UNL     1       1.485   7.991  20.452  0.00  0.00    +0.000 A 
ATOM     21  C   UNL     1       0.686   8.278  21.565  0.00  0.00    +0.000 A 
ATOM     22  C   UNL     1      -0.092   9.442  21.610  0.00  0.00    +0.000 A 
ATOM     23  C   UNL     1      -0.071  10.332  20.539  0.00  0.00    +0.000 A 
ATOM     24 BR   UNL     1      -1.130  11.896  20.591  0.00  0.00    +0.000 Br
ATOM     25  C   UNL     1       0.727  10.073  19.430  0.00  0.00    +0.000 A 
ATOM     26  C   UNL     1       1.501   8.910  19.393  0.00  0.00    +0.000 A 
ENDBRANCH  18  20
ENDBRANCH  16  18
ENDBRANCH   1  16
TORSDOF 4
ENDMDL
MODEL 6
REMARK VINA RESULT:      -8.0      3.109      6.856
REMARK  Name = 
REMARK  5 active torsions:
REMARK  status: ('A' for Active; 'I' for Inactive)
REMARK    1  A    between atoms: C_1  and  C_2
REMARK    2  A    between atoms: C_9  and  S_10
REMARK    3  A    between atoms: S_10  and  N_13
REMARK    4  A    between atoms: N_13  and  N_14
REMARK    5  A    between atoms: N_14  and  C_15
REMARK                            x       y       z     vdW  Elec       q    Type
REMARK                         _______ _______ _______ _____ _____    ______ ____
ROOT
ATOM      1  S   UNL     1       2.158   4.459  20.446  0.00  0.00    +0.000 S 
ATOM      2  O   UNL     1       0.875   4.217  19.816  0.00  0.00    +0.000 OA
ATOM      3  O   UNL     1       2.694   3.538  21.426  0.00  0.00    +0.000 OA
ENDROOT
BRANCH   1  12
ATOM      4  C   UNL     1       5.678   4.260  14.159  0.00  0.00    +0.000 C 
ATOM      5  C   UNL     1       6.714   4.907  15.035  0.00  0.00    +0.000 C 
ATOM      6  O   UNL     1       7.791   5.249  14.536  0.00  0.00    +0.000 OA
ATOM      7  N   UNL     1       6.437   5.135  16.367  0.00  0.00    +0.000 N 
ATOM      8  C   UNL     1       7.410   5.890  17.172  0.00  0.00    +0.000 C 
ATOM      9  C   UNL     1       6.888   5.940  18.609  0.00  0.00    +0.000 C 
ATOM     10  C   UNL     1       5.524   5.344  18.458  0.00  0.00    +0.000 A 
ATOM     11  C   UNL     1       4.560   5.226  19.452  0.00  0.00    +0.000 A 
ATOM     12  C   UNL     1       3.355   4.585  19.140  0.00  0.00    +0.000 A 
ATOM     13  C   UNL     1       3.143   4.071  17.855  0.00  0.00    +0.000 A 
ATOM     14  C   UNL     1       4.129   4.203  16.866  0.00  0.00    +0.000 A 
ATOM     15  C   UNL     1       5.315   4.853  17.167  0.00  0.00    +0.000 A 
ENDBRANCH   1  12
BRANCH   1  16
ATOM     16  N   UNL     1       2.063   5.983  21.190  0.00  0.00    +0.000 NA
ATOM     17  H   UNL     1       2.223   6.079  22.186  0.00  0.00    +0.000 HD
BRANCH  16  18
ATOM     18  N   UNL     1       1.868   7.161  20.358  0.00  0.00    +0.000 N 
ATOM     19  H   UNL     1       2.132   7.056  19.376  0.00  0.00    +0.000 HD
BRANCH  18  20
ATOM     20  C   UNL     1       1.261   8.366  20.732  0.00  0.00    +0.000 A 
ATOM     21  C   UNL     1       0.996   9.398  19.824  0.00  0.00    +0.000 A 
ATOM     22  C   UNL     1       0.391  10.589  20.247  0.00  0.00    +0.000 A 
ATOM     23  C   UNL     1       0.039  10.751  21.584  0.00  0.00    +0.000 A 
ATOM     24 BR   UNL     1      -0.765  12.362  22.159  0.00  0.00    +0.000 Br
ATOM     25  C   UNL     1       0.280   9.733  22.500  0.00  0.00    +0.000 A 
ATOM     26  C   UNL     1       0.883   8.548  22.071  0.00  0.00    +0.000 A 
ENDBRANCH  18  20
ENDBRANCH  16  18
ENDBRANCH   1  16
TORSDOF 4
ENDMDL
MODEL 7
REMARK VINA RESULT:      -7.9      4.137      5.368
REMARK  Name = 
REMARK  5 active torsions:
REMARK  status: ('A' for Active; 'I' for Inactive)
REMARK    1  A    between atoms: C_1  and  C_2
REMARK    2  A    between atoms: C_9  and  S_10
REMARK    3  A    between atoms: S_10  and  N_13
REMARK    4  A    between atoms: N_13  and  N_14
REMARK    5  A    between atoms: N_14  and  C_15
REMARK                            x       y       z     vdW  Elec       q    Type
REMARK                         _______ _______ _______ _____ _____    ______ ____
ROOT
ATOM      1  S   UNL     1       7.523   5.422  17.872  0.00  0.00    +0.000 S 
ATOM      2  O   UNL     1       7.946   6.353  18.898  0.00  0.00    +0.000 OA
ATOM      3  O   UNL     1       8.306   4.243  17.564  0.00  0.00    +0.000 OA
ENDROOT
BRANCH   1  12
ATOM      4  C   UNL     1       0.900   4.713  20.627  0.00  0.00    +0.000 C 
ATOM      5  C   UNL     1       0.982   3.473  19.782  0.00  0.00    +0.000 C 
ATOM      6  O   UNL     1       0.004   2.720  19.728  0.00  0.00    +0.000 OA
ATOM      7  N   UNL     1       2.128   3.211  19.061  0.00  0.00    +0.000 N 
ATOM      8  C   UNL     1       2.136   2.066  18.137  0.00  0.00    +0.000 C 
ATOM      9  C   UNL     1       3.533   1.970  17.525  0.00  0.00    +0.000 C 
ATOM     10  C   UNL     1       4.174   3.224  18.031  0.00  0.00    +0.000 A 
ATOM     11  C   UNL     1       5.440   3.695  17.704  0.00  0.00    +0.000 A 
ATOM     12  C   UNL     1       5.898   4.864  18.324  0.00  0.00    +0.000 A 
ATOM     13  C   UNL     1       5.092   5.528  19.257  0.00  0.00    +0.000 A 
ATOM     14  C   UNL     1       3.817   5.037  19.571  0.00  0.00    +0.000 A 
ATOM     15  C   UNL     1       3.354   3.890  18.945  0.00  0.00    +0.000 A 
ENDBRANCH   1  12
BRANCH   1  16
ATOM     16  N   UNL     1       7.368   6.310  16.432  0.00  0.00    +0.000 NA
ATOM     17  H   UNL     1       7.053   7.272  16.454  0.00  0.00    +0.000 HD
BRANCH  16  18
ATOM     18  N   UNL     1       7.809   5.706  15.183  0.00  0.00    +0.000 N 
ATOM     19  H   UNL     1       8.816   5.735  15.011  0.00  0.00    +0.000 HD
BRANCH  18  20
ATOM     20  C   UNL     1       7.022   5.001  14.264  0.00  0.00    +0.000 A 
ATOM     21  C   UNL     1       5.733   4.543  14.559  0.00  0.00    +0.000 A 
ATOM     22  C   UNL     1       4.986   3.836  13.608  0.00  0.00    +0.000 A 
ATOM     23  C   UNL     1       5.525   3.588  12.348  0.00  0.00    +0.000 A 
ATOM     24 BR   UNL     1       4.524   2.624  11.068  0.00  0.00    +0.000 Br
ATOM     25  C   UNL     1       6.798   4.047  12.029  0.00  0.00    +0.000 A 
ATOM     26  C   UNL     1       7.537   4.752  12.983  0.00  0.00    +0.000 A 
ENDBRANCH  18  20
ENDBRANCH  16  18
ENDBRANCH   1  16
TORSDOF 4
ENDMDL
MODEL 8
REMARK VINA RESULT:      -7.6      0.955      1.979
REMARK  Name = 
REMARK  5 active torsions:
REMARK  status: ('A' for Active; 'I' for Inactive)
REMARK    1  A    between atoms: C_1  and  C_2
REMARK    2  A    between atoms: C_9  and  S_10
REMARK    3  A    between atoms: S_10  and  N_13
REMARK    4  A    between atoms: N_13  and  N_14
REMARK    5  A    between atoms: N_14  and  C_15
REMARK                            x       y       z     vdW  Elec       q    Type
REMARK                         _______ _______ _______ _____ _____    ______ ____
ROOT
ATOM      1  S   UNL     1       3.743   3.603  18.319  0.00  0.00    +0.000 S 
ATOM      2  O   UNL     1       2.903   2.684  19.061  0.00  0.00    +0.000 OA
ATOM      3  O   UNL     1       3.902   3.477  16.885  0.00  0.00    +0.000 OA
ENDROOT
BRANCH   1  12
ATOM      4  C   UNL     1       1.797  10.531  17.905  0.00  0.00    +0.000 C 
ATOM      5  C   UNL     1       1.278  10.180  19.270  0.00  0.00    +0.000 C 
ATOM      6  O   UNL     1       0.677  11.040  19.922  0.00  0.00    +0.000 OA
ATOM      7  N   UNL     1       1.451   8.902  19.760  0.00  0.00    +0.000 N 
ATOM      8  C   UNL     1       0.817   8.542  21.038  0.00  0.00    +0.000 C 
ATOM      9  C   UNL     1       1.221   7.106  21.371  0.00  0.00    +0.000 C 
ATOM     10  C   UNL     1       1.928   6.690  20.120  0.00  0.00    +0.000 A 
ATOM     11  C   UNL     1       2.431   5.426  19.837  0.00  0.00    +0.000 A 
ATOM     12  C   UNL     1       3.119   5.236  18.631  0.00  0.00    +0.000 A 
ATOM     13  C   UNL     1       3.294   6.306  17.745  0.00  0.00    +0.000 A 
ATOM     14  C   UNL     1       2.776   7.573  18.050  0.00  0.00    +0.000 A 
ATOM     15  C   UNL     1       2.080   7.759  19.233  0.00  0.00    +0.000 A 
ENDBRANCH   1  12
BRANCH   1  16
ATOM     16  N   UNL     1       5.294   3.517  19.004  0.00  0.00    +0.000 NA
ATOM     17  H   UNL     1       5.435   3.067  19.901  0.00  0.00    +0.000 HD
BRANCH  16  18
ATOM     18  N   UNL     1       6.433   3.991  18.230  0.00  0.00    +0.000 N 
ATOM     19  H   UNL     1       6.831   3.316  17.574  0.00  0.00    +0.000 HD
BRANCH  18  20
ATOM     20  C   UNL     1       6.956   5.289  18.210  0.00  0.00    +0.000 A 
ATOM     21  C   UNL     1       7.887   5.749  19.148  0.00  0.00    +0.000 A 
ATOM     22  C   UNL     1       8.378   7.060  19.090  0.00  0.00    +0.000 A 
ATOM     23  C   UNL     1       7.943   7.919  18.085  0.00  0.00    +0.000 A 
ATOM     24 BR   UNL     1       8.595   9.692  18.012  0.00  0.00    +0.000 Br
ATOM     25  C   UNL     1       7.030   7.479  17.134  0.00  0.00    +0.000 A 
ATOM     26  C   UNL     1       6.545   6.170  17.198  0.00  0.00    +0.000 A 
ENDBRANCH  18  20
ENDBRANCH  16  18
ENDBRANCH   1  16
TORSDOF 4
ENDMDL
MODEL 9
REMARK VINA RESULT:      -7.4      3.924      5.341
REMARK  Name = 
REMARK  5 active torsions:
REMARK  status: ('A' for Active; 'I' for Inactive)
REMARK    1  A    between atoms: C_1  and  C_2
REMARK    2  A    between atoms: C_9  and  S_10
REMARK    3  A    between atoms: S_10  and  N_13
REMARK    4  A    between atoms: N_13  and  N_14
REMARK    5  A    between atoms: N_14  and  C_15
REMARK                            x       y       z     vdW  Elec       q    Type
REMARK                         _______ _______ _______ _____ _____    ______ ____
ROOT
ATOM      1  S   UNL     1       7.462   5.366  17.871  0.00  0.00    +0.000 S 
ATOM      2  O   UNL     1       7.800   6.397  18.832  0.00  0.00    +0.000 OA
ATOM      3  O   UNL     1       8.281   4.180  17.728  0.00  0.00    +0.000 OA
ENDROOT
BRANCH   1  12
ATOM      4  C   UNL     1       1.312   1.670  18.555  0.00  0.00    +0.000 C 
ATOM      5  C   UNL     1       0.982   2.903  19.348  0.00  0.00    +0.000 C 
ATOM      6  O   UNL     1      -0.120   2.983  19.901  0.00  0.00    +0.000 OA
ATOM      7  N   UNL     1       1.920   3.907  19.472  0.00  0.00    +0.000 N 
ATOM      8  C   UNL     1       1.628   5.041  20.364  0.00  0.00    +0.000 C 
ATOM      9  C   UNL     1       2.794   6.025  20.264  0.00  0.00    +0.000 C 
ATOM     10  C   UNL     1       3.772   5.255  19.434  0.00  0.00    +0.000 A 
ATOM     11  C   UNL     1       5.064   5.648  19.103  0.00  0.00    +0.000 A 
ATOM     12  C   UNL     1       5.818   4.819  18.263  0.00  0.00    +0.000 A 
ATOM     13  C   UNL     1       5.268   3.631  17.767  0.00  0.00    +0.000 A 
ATOM     14  C   UNL     1       3.962   3.253  18.114  0.00  0.00    +0.000 A 
ATOM     15  C   UNL     1       3.221   4.062  18.960  0.00  0.00    +0.000 A 
ENDBRANCH   1  12
BRANCH   1  16
ATOM     16  N   UNL     1       7.395   6.115  16.348  0.00  0.00    +0.000 NA
ATOM     17  H   UNL     1       7.138   7.091  16.267  0.00  0.00    +0.000 HD
BRANCH  16  18
ATOM     18  N   UNL     1       7.827   5.366  15.177  0.00  0.00    +0.000 N 
ATOM     19  H   UNL     1       8.829   5.171  15.123  0.00  0.00    +0.000 HD
BRANCH  18  20
ATOM     20  C   UNL     1       7.011   4.795  14.193  0.00  0.00    +0.000 A 
ATOM     21  C   UNL     1       7.444   4.572  12.881  0.00  0.00    +0.000 A 
ATOM     22  C   UNL     1       6.588   4.003  11.928  0.00  0.00    +0.000 A 
ATOM     23  C   UNL     1       5.291   3.647  12.287  0.00  0.00    +0.000 A 
ATOM     24 BR   UNL     1       4.130   2.892  11.001  0.00  0.00    +0.000 Br
ATOM     25  C   UNL     1       4.845   3.848  13.589  0.00  0.00    +0.000 A 
ATOM     26  C   UNL     1       5.704   4.415  14.533  0.00  0.00    +0.000 A 
ENDBRANCH  18  20
ENDBRANCH  16  18
ENDBRANCH   1  16
TORSDOF 4
ENDMDL
