MODEL 1
REMARK VINA RESULT:      -8.3      0.000      0.000
REMARK  Name = 
REMARK  6 active torsions:
REMARK  status: ('A' for Active; 'I' for Inactive)
REMARK    1  A    between atoms: C_1  and  C_2
REMARK    2  A    between atoms: C_2  and  P_3
REMARK    3  A    between atoms: P_3  and  O_5
REMARK    4  A    between atoms: P_3  and  C_7
REMARK    5  A    between atoms: O_5  and  C_6
REMARK    6  A    between atoms: C_12  and  C_13
REMARK                            x       y       z     vdW  Elec       q    Type
REMARK                         _______ _______ _______ _____ _____    ______ ____
ROOT
ATOM      1  C   UNL     1       5.368   5.553  17.343  0.00  0.00    +0.000 A 
ATOM      2  C   UNL     1       5.039   4.808  18.497  0.00  0.00    +0.000 A 
ATOM      3  C   UNL     1       3.997   5.174  19.354  0.00  0.00    +0.000 A 
ATOM      4  C   UNL     1       3.321   6.328  18.995  0.00  0.00    +0.000 A 
ATOM      5  O   UNL     1       2.365   6.972  19.718  0.00  0.00    +0.000 OA
ATOM      6  C   UNL     1       2.069   8.085  18.977  0.00  0.00    +0.000 A 
ATOM      7  N   UNL     1       2.720   8.158  17.824  0.00  0.00    +0.000 NA
ATOM      8  C   UNL     1       3.547   7.058  17.843  0.00  0.00    +0.000 A 
ATOM      9  C   UNL     1       4.566   6.650  16.963  0.00  0.00    +0.000 A 
ENDROOT
BRANCH   6  10
ATOM     10  C   UNL     1       1.120   9.032  19.555  0.00  0.00    +0.000 A 
ATOM     11  C   UNL     1       0.497   9.975  18.723  0.00  0.00    +0.000 A 
ATOM     12  C   UNL     1      -0.415  10.903  19.236  0.00  0.00    +0.000 A 
ATOM     13  C   UNL     1      -0.717  10.906  20.597  0.00  0.00    +0.000 A 
ATOM     14  C   UNL     1      -0.098   9.982  21.438  0.00  0.00    +0.000 A 
ATOM     15 CL   UNL     1      -0.471  10.002  23.121  0.00  0.00    +0.000 Cl
ATOM     16  C   UNL     1       0.814   9.056  20.926  0.00  0.00    +0.000 A 
ATOM     17  F   UNL     1       1.400   8.192  21.770  0.00  0.00    +0.000 F 
ENDBRANCH   6  10
BRANCH   1  18
ATOM     18  P   UNL     1       6.983   5.273  16.660  0.00  0.00    +0.000 P 
ATOM     19  O   UNL     1       7.930   4.442  17.495  0.00  0.00    +0.000 OA
BRANCH  18  21
ATOM     20  C   UNL     1       5.741   4.215  14.384  0.00  0.00    +0.000 C 
ATOM     21  C   UNL     1       7.032   4.789  14.929  0.00  0.00    +0.000 C 
ENDBRANCH  18  21
BRANCH  18  22
ATOM     22  O   UNL     1       7.485   6.814  16.570  0.00  0.00    +0.000 OA
ATOM     23  C   UNL     1       7.837   7.529  17.733  0.00  0.00    +0.000 C 
ENDBRANCH  18  22
ENDBRANCH   1  18
TORSDOF 4
ENDMDL
MODEL 2
REMARK VINA RESULT:      -8.2      1.318      1.670
REMARK  Name = 
REMARK  6 active torsions:
REMARK  status: ('A' for Active; 'I' for Inactive)
REMARK    1  A    between atoms: C_1  and  C_2
REMARK    2  A    between atoms: C_2  and  P_3
REMARK    3  A    between atoms: P_3  and  O_5
REMARK    4  A    between atoms: P_3  and  C_7
REMARK    5  A    between atoms: O_5  and  C_6
REMARK    6  A    between atoms: C_12  and  C_13
REMARK                            x       y       z     vdW  Elec       q    Type
REMARK                         _______ _______ _______ _____ _____    ______ ____
ROOT
ATOM      1  C   UNL     1       5.401   5.442  17.221  0.00  0.00    +0.000 A 
ATOM      2  C   UNL     1       5.098   4.551  18.274  0.00  0.00    +0.000 A 
ATOM      3  C   UNL     1       4.085   4.805  19.204  0.00  0.00    +0.000 A 
ATOM      4  C   UNL     1       3.413   6.003  19.025  0.00  0.00    +0.000 A 
ATOM      5  O   UNL     1       2.487   6.551  19.858  0.00  0.00    +0.000 OA
ATOM      6  C   UNL     1       2.183   7.756  19.283  0.00  0.00    +0.000 A 
ATOM      7  N   UNL     1       2.800   7.979  18.131  0.00  0.00    +0.000 NA
ATOM      8  C   UNL     1       3.614   6.880  17.975  0.00  0.00    +0.000 A 
ATOM      9  C   UNL     1       4.601   6.587  17.018  0.00  0.00    +0.000 A 
ENDROOT
BRANCH   6  10
ATOM     10  C   UNL     1       1.263   8.624  20.013  0.00  0.00    +0.000 A 
ATOM     11  C   UNL     1       1.190   8.525  21.412  0.00  0.00    +0.000 A 
ATOM     12  C   UNL     1       0.320   9.334  22.150  0.00  0.00    +0.000 A 
ATOM     13  C   UNL     1      -0.497  10.256  21.498  0.00  0.00    +0.000 A 
ATOM     14  C   UNL     1      -0.443  10.359  20.109  0.00  0.00    +0.000 A 
ATOM     15 CL   UNL     1      -1.466  11.496  19.313  0.00  0.00    +0.000 Cl
ATOM     16  C   UNL     1       0.425   9.550  19.372  0.00  0.00    +0.000 A 
ATOM     17  F   UNL     1       0.438   9.668  18.034  0.00  0.00    +0.000 F 
ENDBRANCH   6  10
BRANCH   1  18
ATOM     18  P   UNL     1       6.991   5.244  16.457  0.00  0.00    +0.000 P 
ATOM     19  O   UNL     1       7.966   4.330  17.164  0.00  0.00    +0.000 OA
BRANCH  18  21
ATOM     20  C   UNL     1       6.011   3.889  14.211  0.00  0.00    +0.000 C 
ATOM     21  C   UNL     1       6.981   4.953  14.683  0.00  0.00    +0.000 C 
ENDBRANCH  18  21
BRANCH  18  22
ATOM     22  O   UNL     1       7.491   6.787  16.519  0.00  0.00    +0.000 OA
ATOM     23  C   UNL     1       7.842   7.384  17.746  0.00  0.00    +0.000 C 
ENDBRANCH  18  22
ENDBRANCH   1  18
TORSDOF 4
ENDMDL
MODEL 3
REMARK VINA RESULT:      -7.8      1.717      2.802
REMARK  Name = 
REMARK  6 active torsions:
REMARK  status: ('A' for Active; 'I' for Inactive)
REMARK    1  A    between atoms: C_1  and  C_2
REMARK    2  A    between atoms: C_2  and  P_3
REMARK    3  A    between atoms: P_3  and  O_5
REMARK    4  A    between atoms: P_3  and  C_7
REMARK    5  A    between atoms: O_5  and  C_6
REMARK    6  A    between atoms: C_12  and  C_13
REMARK                            x       y       z     vdW  Elec       q    Type
REMARK                         _______ _______ _______ _____ _____    ______ ____
ROOT
ATOM      1  C   UNL     1       4.154   6.310  17.673  0.00  0.00    +0.000 A 
ATOM      2  C   UNL     1       3.950   5.377  18.715  0.00  0.00    +0.000 A 
ATOM      3  C   UNL     1       3.055   5.609  19.764  0.00  0.00    +0.000 A 
ATOM      4  C   UNL     1       2.396   6.825  19.714  0.00  0.00    +0.000 A 
ATOM      5  O   UNL     1       1.583   7.353  20.669  0.00  0.00    +0.000 OA
ATOM      6  C   UNL     1       1.246   8.588  20.185  0.00  0.00    +0.000 A 
ATOM      7  N   UNL     1       1.734   8.852  18.981  0.00  0.00    +0.000 NA
ATOM      8  C   UNL     1       2.498   7.746  18.687  0.00  0.00    +0.000 A 
ATOM      9  C   UNL     1       3.364   7.478  17.612  0.00  0.00    +0.000 A 
ENDROOT
BRANCH   6  10
ATOM     10  C   UNL     1       0.435   9.440  21.052  0.00  0.00    +0.000 A 
ATOM     11  C   UNL     1       0.404   9.184  22.432  0.00  0.00    +0.000 A 
ATOM     12  C   UNL     1      -0.362   9.971  23.297  0.00  0.00    +0.000 A 
ATOM     13  C   UNL     1      -1.116  11.031  22.793  0.00  0.00    +0.000 A 
ATOM     14  C   UNL     1      -1.103  11.291  21.423  0.00  0.00    +0.000 A 
ATOM     15 CL   UNL     1      -2.048  12.596  20.811  0.00  0.00    +0.000 Cl
ATOM     16  C   UNL     1      -0.339  10.504  20.560  0.00  0.00    +0.000 A 
ATOM     17  F   UNL     1      -0.364  10.776  19.245  0.00  0.00    +0.000 F 
ENDBRANCH   6  10
BRANCH   1  18
ATOM     18  P   UNL     1       5.643   6.116  16.726  0.00  0.00    +0.000 P 
ATOM     19  O   UNL     1       5.616   6.656  15.314  0.00  0.00    +0.000 OA
BRANCH  18  21
ATOM     20  C   UNL     1       7.574   8.005  17.467  0.00  0.00    +0.000 C 
ATOM     21  C   UNL     1       7.172   6.548  17.567  0.00  0.00    +0.000 C 
ENDBRANCH  18  21
BRANCH  18  22
ATOM     22  O   UNL     1       5.730   4.496  16.728  0.00  0.00    +0.000 OA
ATOM     23  C   UNL     1       5.963   3.783  15.534  0.00  0.00    +0.000 C 
ENDBRANCH  18  22
ENDBRANCH   1  18
TORSDOF 4
ENDMDL
MODEL 4
REMARK VINA RESULT:      -7.8      1.821      2.059
REMARK  Name = 
REMARK  6 active torsions:
REMARK  status: ('A' for Active; 'I' for Inactive)
REMARK    1  A    between atoms: C_1  and  C_2
REMARK    2  A    between atoms: C_2  and  P_3
REMARK    3  A    between atoms: P_3  and  O_5
REMARK    4  A    between atoms: P_3  and  C_7
REMARK    5  A    between atoms: O_5  and  C_6
REMARK    6  A    between atoms: C_12  and  C_13
REMARK                            x       y       z     vdW  Elec       q    Type
REMARK                         _______ _______ _______ _____ _____    ______ ____
ROOT
ATOM      1  C   UNL     1       4.784   5.746  17.893  0.00  0.00    +0.000 A 
ATOM      2  C   UNL     1       4.301   5.172  19.090  0.00  0.00    +0.000 A 
ATOM      3  C   UNL     1       3.231   5.718  19.805  0.00  0.00    +0.000 A 
ATOM      4  C   UNL     1       2.691   6.871  19.262  0.00  0.00    +0.000 A 
ATOM      5  O   UNL     1       1.743   7.670  19.822  0.00  0.00    +0.000 OA
ATOM      6  C   UNL     1       1.606   8.708  18.938  0.00  0.00    +0.000 A 
ATOM      7  N   UNL     1       2.349   8.591  17.846  0.00  0.00    +0.000 NA
ATOM      8  C   UNL     1       3.071   7.439  18.060  0.00  0.00    +0.000 A 
ATOM      9  C   UNL     1       4.115   6.850  17.324  0.00  0.00    +0.000 A 
ENDROOT
BRANCH   6  10
ATOM     10  C   UNL     1       0.703   9.789  19.322  0.00  0.00    +0.000 A 
ATOM     11  C   UNL     1       0.906  10.453  20.542  0.00  0.00    +0.000 A 
ATOM     12  C   UNL     1       0.062  11.491  20.950  0.00  0.00    +0.000 A 
ATOM     13  C   UNL     1      -1.005  11.882  20.142  0.00  0.00    +0.000 A 
ATOM     14  C   UNL     1      -1.224  11.225  18.932  0.00  0.00    +0.000 A 
ATOM     15 CL   UNL     1      -2.553  11.710  17.946  0.00  0.00    +0.000 Cl
ATOM     16  C   UNL     1      -0.383  10.188  18.525  0.00  0.00    +0.000 A 
ATOM     17  F   UNL     1      -0.635   9.570  17.360  0.00  0.00    +0.000 F 
ENDBRANCH   6  10
BRANCH   1  18
ATOM     18  P   UNL     1       6.415   5.260  17.391  0.00  0.00    +0.000 P 
ATOM     19  O   UNL     1       7.341   4.780  18.487  0.00  0.00    +0.000 OA
BRANCH  18  21
ATOM     20  C   UNL     1       6.080   4.852  14.640  0.00  0.00    +0.000 C 
ATOM     21  C   UNL     1       6.510   4.203  15.940  0.00  0.00    +0.000 C 
ENDBRANCH  18  21
BRANCH  18  22
ATOM     22  O   UNL     1       6.921   6.676  16.781  0.00  0.00    +0.000 OA
ATOM     23  C   UNL     1       7.706   7.556  17.553  0.00  0.00    +0.000 C 
ENDBRANCH  18  22
ENDBRANCH   1  18
TORSDOF 4
ENDMDL
MODEL 5
REMARK VINA RESULT:      -7.7      1.541      1.975
REMARK  Name = 
REMARK  6 active torsions:
REMARK  status: ('A' for Active; 'I' for Inactive)
REMARK    1  A    between atoms: C_1  and  C_2
REMARK    2  A    between atoms: C_2  and  P_3
REMARK    3  A    between atoms: P_3  and  O_5
REMARK    4  A    between atoms: P_3  and  C_7
REMARK    5  A    between atoms: O_5  and  C_6
REMARK    6  A    between atoms: C_12  and  C_13
REMARK                            x       y       z     vdW  Elec       q    Type
REMARK                         _______ _______ _______ _____ _____    ______ ____
ROOT
ATOM      1  C   UNL     1       4.405   5.307  18.093  0.00  0.00    +0.000 A 
ATOM      2  C   UNL     1       3.974   4.461  19.139  0.00  0.00    +0.000 A 
ATOM      3  C   UNL     1       2.997   4.847  20.061  0.00  0.00    +0.000 A 
ATOM      4  C   UNL     1       2.494   6.125  19.882  0.00  0.00    +0.000 A 
ATOM      5  O   UNL     1       1.643   6.790  20.709  0.00  0.00    +0.000 OA
ATOM      6  C   UNL     1       1.510   8.027  20.137  0.00  0.00    +0.000 A 
ATOM      7  N   UNL     1       2.162   8.169  18.991  0.00  0.00    +0.000 NA
ATOM      8  C   UNL     1       2.821   6.971  18.838  0.00  0.00    +0.000 A 
ATOM      9  C   UNL     1       3.769   6.550  17.888  0.00  0.00    +0.000 A 
ENDROOT
BRANCH   6  10
ATOM     10  C   UNL     1       0.708   9.009  20.863  0.00  0.00    +0.000 A 
ATOM     11  C   UNL     1       0.675   8.966  22.266  0.00  0.00    +0.000 A 
ATOM     12  C   UNL     1      -0.083   9.884  23.000  0.00  0.00    +0.000 A 
ATOM     13  C   UNL     1      -0.825  10.862  22.340  0.00  0.00    +0.000 A 
ATOM     14  C   UNL     1      -0.810  10.911  20.947  0.00  0.00    +0.000 A 
ATOM     15 CL   UNL     1      -1.741  12.118  20.142  0.00  0.00    +0.000 Cl
ATOM     16  C   UNL     1      -0.055   9.994  20.214  0.00  0.00    +0.000 A 
ATOM     17  F   UNL     1      -0.077  10.064  18.873  0.00  0.00    +0.000 F 
ENDBRANCH   6  10
BRANCH   1  18
ATOM     18  P   UNL     1       5.961   4.899  17.342  0.00  0.00    +0.000 P 
ATOM     19  O   UNL     1       7.027   4.350  18.263  0.00  0.00    +0.000 OA
BRANCH  18  21
ATOM     20  C   UNL     1       6.659   4.556  14.652  0.00  0.00    +0.000 C 
ATOM     21  C   UNL     1       5.874   3.969  15.807  0.00  0.00    +0.000 C 
ENDBRANCH  18  21
BRANCH  18  22
ATOM     22  O   UNL     1       6.367   6.372  16.795  0.00  0.00    +0.000 OA
ATOM     23  C   UNL     1       7.381   7.123  17.424  0.00  0.00    +0.000 C 
ENDBRANCH  18  22
ENDBRANCH   1  18
TORSDOF 4
ENDMDL
MODEL 6
REMARK VINA RESULT:      -7.6      4.082      7.920
REMARK  Name = 
REMARK  6 active torsions:
REMARK  status: ('A' for Active; 'I' for Inactive)
REMARK    1  A    between atoms: C_1  and  C_2
REMARK    2  A    between atoms: C_2  and  P_3
REMARK    3  A    between atoms: P_3  and  O_5
REMARK    4  A    between atoms: P_3  and  C_7
REMARK    5  A    between atoms: O_5  and  C_6
REMARK    6  A    between atoms: C_12  and  C_13
REMARK                            x       y       z     vdW  Elec       q    Type
REMARK                         _______ _______ _______ _____ _____    ______ ____
ROOT
ATOM      1  C   UNL     1       0.218  10.909  19.126  0.00  0.00    +0.000 A 
ATOM      2  C   UNL     1       0.181  10.259  20.380  0.00  0.00    +0.000 A 
ATOM      3  C   UNL     1       0.871   9.070  20.628  0.00  0.00    +0.000 A 
ATOM      4  C   UNL     1       1.581   8.567  19.551  0.00  0.00    +0.000 A 
ATOM      5  O   UNL     1       2.222   7.369  19.483  0.00  0.00    +0.000 OA
ATOM      6  C   UNL     1       2.699   7.311  18.201  0.00  0.00    +0.000 A 
ATOM      7  N   UNL     1       2.459   8.398  17.481  0.00  0.00    +0.000 NA
ATOM      8  C   UNL     1       1.715   9.192  18.324  0.00  0.00    +0.000 A 
ATOM      9  C   UNL     1       1.056  10.415  18.104  0.00  0.00    +0.000 A 
ENDROOT
BRANCH   6  10
ATOM     10  C   UNL     1       3.369   6.076  17.800  0.00  0.00    +0.000 A 
ATOM     11  C   UNL     1       4.686   6.136  17.316  0.00  0.00    +0.000 A 
ATOM     12  C   UNL     1       5.363   4.979  16.916  0.00  0.00    +0.000 A 
ATOM     13  C   UNL     1       4.730   3.738  16.993  0.00  0.00    +0.000 A 
ATOM     14  C   UNL     1       3.419   3.665  17.462  0.00  0.00    +0.000 A 
ATOM     15 CL   UNL     1       2.644   2.127  17.542  0.00  0.00    +0.000 Cl
ATOM     16  C   UNL     1       2.743   4.820  17.859  0.00  0.00    +0.000 A 
ATOM     17  F   UNL     1       1.476   4.711  18.292  0.00  0.00    +0.000 F 
ENDBRANCH   6  10
BRANCH   1  18
ATOM     18  P   UNL     1      -1.073  12.086  18.812  0.00  0.00    +0.000 P 
ATOM     19  O   UNL     1      -0.631  13.480  18.427  0.00  0.00    +0.000 OA
BRANCH  18  21
ATOM     20  C   UNL     1      -2.642  10.014  17.770  0.00  0.00    +0.000 C 
ATOM     21  C   UNL     1      -2.425  11.513  17.775  0.00  0.00    +0.000 C 
ENDBRANCH  18  21
BRANCH  18  22
ATOM     22  O   UNL     1      -1.774  12.082  20.275  0.00  0.00    +0.000 OA
ATOM     23  C   UNL     1      -3.015  12.718  20.483  0.00  0.00    +0.000 C 
ENDBRANCH  18  22
ENDBRANCH   1  18
TORSDOF 4
ENDMDL
MODEL 7
REMARK VINA RESULT:      -7.6      2.049      2.299
REMARK  Name = 
REMARK  6 active torsions:
REMARK  status: ('A' for Active; 'I' for Inactive)
REMARK    1  A    between atoms: C_1  and  C_2
REMARK    2  A    between atoms: C_2  and  P_3
REMARK    3  A    between atoms: P_3  and  O_5
REMARK    4  A    between atoms: P_3  and  C_7
REMARK    5  A    between atoms: O_5  and  C_6
REMARK    6  A    between atoms: C_12  and  C_13
REMARK                            x       y       z     vdW  Elec       q    Type
REMARK                         _______ _______ _______ _____ _____    ______ ____
ROOT
ATOM      1  C   UNL     1       4.565   5.836  17.783  0.00  0.00    +0.000 A 
ATOM      2  C   UNL     1       4.022   5.417  19.018  0.00  0.00    +0.000 A 
ATOM      3  C   UNL     1       2.996   6.115  19.662  0.00  0.00    +0.000 A 
ATOM      4  C   UNL     1       2.563   7.256  19.007  0.00  0.00    +0.000 A 
ATOM      5  O   UNL     1       1.682   8.181  19.476  0.00  0.00    +0.000 OA
ATOM      6  C   UNL     1       1.645   9.141  18.500  0.00  0.00    +0.000 A 
ATOM      7  N   UNL     1       2.387   8.863  17.436  0.00  0.00    +0.000 NA
ATOM      8  C   UNL     1       3.003   7.678  17.766  0.00  0.00    +0.000 A 
ATOM      9  C   UNL     1       4.000   6.937  17.106  0.00  0.00    +0.000 A 
ENDROOT
BRANCH   6  10
ATOM     10  C   UNL     1       0.835  10.326  18.768  0.00  0.00    +0.000 A 
ATOM     11  C   UNL     1      -0.509  10.169  19.140  0.00  0.00    +0.000 A 
ATOM     12  C   UNL     1      -1.322  11.277  19.402  0.00  0.00    +0.000 A 
ATOM     13  C   UNL     1      -0.801  12.566  19.291  0.00  0.00    +0.000 A 
ATOM     14  C   UNL     1       0.530  12.738  18.913  0.00  0.00    +0.000 A 
ATOM     15 CL   UNL     1       1.159  14.337  18.770  0.00  0.00    +0.000 Cl
ATOM     16  C   UNL     1       1.340  11.632  18.651  0.00  0.00    +0.000 A 
ATOM     17  F   UNL     1       2.613  11.838  18.275  0.00  0.00    +0.000 F 
ENDBRANCH   6  10
BRANCH   1  18
ATOM     18  P   UNL     1       6.154   5.169  17.357  0.00  0.00    +0.000 P 
ATOM     19  O   UNL     1       6.974   4.607  18.496  0.00  0.00    +0.000 OA
BRANCH  18  21
ATOM     20  C   UNL     1       6.743   4.714  14.657  0.00  0.00    +0.000 C 
ATOM     21  C   UNL     1       6.193   4.087  15.921  0.00  0.00    +0.000 C 
ENDBRANCH  18  21
BRANCH  18  22
ATOM     22  O   UNL     1       6.835   6.513  16.756  0.00  0.00    +0.000 OA
ATOM     23  C   UNL     1       7.605   7.362  17.577  0.00  0.00    +0.000 C 
ENDBRANCH  18  22
ENDBRANCH   1  18
TORSDOF 4
ENDMDL
MODEL 8
REMARK VINA RESULT:      -7.5      4.260      8.016
REMARK  Name = 
REMARK  6 active torsions:
REMARK  status: ('A' for Active; 'I' for Inactive)
REMARK    1  A    between atoms: C_1  and  C_2
REMARK    2  A    between atoms: C_2  and  P_3
REMARK    3  A    between atoms: P_3  and  O_5
REMARK    4  A    between atoms: P_3  and  C_7
REMARK    5  A    between atoms: O_5  and  C_6
REMARK    6  A    between atoms: C_12  and  C_13
REMARK                            x       y       z     vdW  Elec       q    Type
REMARK                         _______ _______ _______ _____ _____    ______ ____
ROOT
ATOM      1  C   UNL     1       0.247  10.864  19.143  0.00  0.00    +0.000 A 
ATOM      2  C   UNL     1       0.199  10.199  20.388  0.00  0.00    +0.000 A 
ATOM      3  C   UNL     1       0.891   9.008  20.628  0.00  0.00    +0.000 A 
ATOM      4  C   UNL     1       1.613   8.522  19.551  0.00  0.00    +0.000 A 
ATOM      5  O   UNL     1       2.258   7.326  19.474  0.00  0.00    +0.000 OA
ATOM      6  C   UNL     1       2.747   7.285  18.196  0.00  0.00    +0.000 A 
ATOM      7  N   UNL     1       2.511   8.381  17.488  0.00  0.00    +0.000 NA
ATOM      8  C   UNL     1       1.757   9.162  18.334  0.00  0.00    +0.000 A 
ATOM      9  C   UNL     1       1.097  10.386  18.123  0.00  0.00    +0.000 A 
ENDROOT
BRANCH   6  10
ATOM     10  C   UNL     1       3.425   6.058  17.786  0.00  0.00    +0.000 A 
ATOM     11  C   UNL     1       2.711   4.849  17.778  0.00  0.00    +0.000 A 
ATOM     12  C   UNL     1       3.322   3.650  17.397  0.00  0.00    +0.000 A 
ATOM     13  C   UNL     1       4.664   3.640  17.019  0.00  0.00    +0.000 A 
ATOM     14  C   UNL     1       5.388   4.831  17.031  0.00  0.00    +0.000 A 
ATOM     15 CL   UNL     1       7.050   4.804  16.572  0.00  0.00    +0.000 Cl
ATOM     16  C   UNL     1       4.779   6.028  17.413  0.00  0.00    +0.000 A 
ATOM     17  F   UNL     1       5.514   7.152  17.426  0.00  0.00    +0.000 F 
ENDBRANCH   6  10
BRANCH   1  18
ATOM     18  P   UNL     1      -1.044  12.042  18.831  0.00  0.00    +0.000 P 
ATOM     19  O   UNL     1      -0.604  13.458  18.533  0.00  0.00    +0.000 OA
BRANCH  18  21
ATOM     20  C   UNL     1      -2.590  10.012  17.678  0.00  0.00    +0.000 C 
ATOM     21  C   UNL     1      -2.345  11.506  17.712  0.00  0.00    +0.000 C 
ENDBRANCH  18  21
BRANCH  18  22
ATOM     22  O   UNL     1      -1.806  11.960  20.262  0.00  0.00    +0.000 OA
ATOM     23  C   UNL     1      -2.920  12.780  20.536  0.00  0.00    +0.000 C 
ENDBRANCH  18  22
ENDBRANCH   1  18
TORSDOF 4
ENDMDL
MODEL 9
REMARK VINA RESULT:      -7.5      3.155      4.260
REMARK  Name = 
REMARK  6 active torsions:
REMARK  status: ('A' for Active; 'I' for Inactive)
REMARK    1  A    between atoms: C_1  and  C_2
REMARK    2  A    between atoms: C_2  and  P_3
REMARK    3  A    between atoms: P_3  and  O_5
REMARK    4  A    between atoms: P_3  and  C_7
REMARK    5  A    between atoms: O_5  and  C_6
REMARK    6  A    between atoms: C_12  and  C_13
REMARK                            x       y       z     vdW  Elec       q    Type
REMARK                         _______ _______ _______ _____ _____    ______ ____
ROOT
ATOM      1  C   UNL     1       3.495   5.400  19.300  0.00  0.00    +0.000 A 
ATOM      2  C   UNL     1       4.000   5.803  18.044  0.00  0.00    +0.000 A 
ATOM      3  C   UNL     1       3.651   7.020  17.451  0.00  0.00    +0.000 A 
ATOM      4  C   UNL     1       2.763   7.793  18.179  0.00  0.00    +0.000 A 
ATOM      5  O   UNL     1       2.162   8.945  17.775  0.00  0.00    +0.000 OA
ATOM      6  C   UNL     1       1.329   9.276  18.810  0.00  0.00    +0.000 A 
ATOM      7  N   UNL     1       1.403   8.457  19.850  0.00  0.00    +0.000 NA
ATOM      8  C   UNL     1       2.290   7.488  19.443  0.00  0.00    +0.000 A 
ATOM      9  C   UNL     1       2.690   6.283  20.050  0.00  0.00    +0.000 A 
ENDROOT
BRANCH   6  10
ATOM     10  C   UNL     1       0.472  10.444  18.622  0.00  0.00    +0.000 A 
ATOM     11  C   UNL     1      -0.863  10.259  18.228  0.00  0.00    +0.000 A 
ATOM     12  C   UNL     1      -1.717  11.349  18.032  0.00  0.00    +0.000 A 
ATOM     13  C   UNL     1      -1.247  12.647  18.225  0.00  0.00    +0.000 A 
ATOM     14  C   UNL     1       0.079  12.846  18.607  0.00  0.00    +0.000 A 
ATOM     15 CL   UNL     1       0.652  14.457  18.832  0.00  0.00    +0.000 Cl
ATOM     16  C   UNL     1       0.932  11.759  18.801  0.00  0.00    +0.000 A 
ATOM     17  F   UNL     1       2.206  11.992  19.154  0.00  0.00    +0.000 F 
ENDBRANCH   6  10
BRANCH   1  18
ATOM     18  P   UNL     1       3.613   3.669  19.676  0.00  0.00    +0.000 P 
ATOM     19  O   UNL     1       5.005   3.079  19.695  0.00  0.00    +0.000 OA
BRANCH  18  21
ATOM     20  C   UNL     1       1.143   3.035  20.833  0.00  0.00    +0.000 C 
ATOM     21  C   UNL     1       2.637   3.099  21.074  0.00  0.00    +0.000 C 
ENDBRANCH  18  21
BRANCH  18  22
ATOM     22  O   UNL     1       2.751   3.085  18.431  0.00  0.00    +0.000 OA
ATOM     23  C   UNL     1       3.079   1.847  17.842  0.00  0.00    +0.000 C 
ENDBRANCH  18  22
ENDBRANCH   1  18
TORSDOF 4
ENDMDL
