MODEL 1
REMARK VINA RESULT:      -7.8      0.000      0.000
REMARK  Name = 
REMARK  3 active torsions:
REMARK  status: ('A' for Active; 'I' for Inactive)
REMARK    1  A    between atoms: C_2  and  C_10
REMARK    2  A    between atoms: N_3  and  C_4
REMARK    3  A    between atoms: C_14  and  C_16
REMARK                            x       y       z     vdW  Elec       q    Type
REMARK                         _______ _______ _______ _____ _____    ______ ____
ROOT
ATOM      1  C   UNL     1       0.065  10.147  19.172  0.00  0.00    +0.000 C 
ATOM      2  C   UNL     1       0.004   9.148  20.335  0.00  0.00    +0.000 C 
ATOM      3  C   UNL     1       1.370   8.534  20.641  0.00  0.00    +0.000 C 
ATOM      4  N   UNL     1       1.970   7.947  19.443  0.00  0.00    +0.000 N 
ATOM      5  C   UNL     1       2.466   6.642  19.513  0.00  0.00    +0.000 C 
ATOM      6  O   UNL     1       2.265   5.911  20.483  0.00  0.00    +0.000 OA
ATOM      7  C   UNL     1       2.060   8.850  18.288  0.00  0.00    +0.000 C 
ATOM      8  C   UNL     1       0.709   9.471  17.953  0.00  0.00    +0.000 C 
ENDROOT
BRANCH   5   9
ATOM      9  C   UNL     1       3.226   6.055  18.375  0.00  0.00    +0.000 A 
ATOM     10  C   UNL     1       3.025   4.745  17.923  0.00  0.00    +0.000 A 
ATOM     11  C   UNL     1       3.845   4.205  16.928  0.00  0.00    +0.000 A 
ATOM     12  C   UNL     1       4.805   5.007  16.316  0.00  0.00    +0.000 A 
ATOM     13 BR   UNL     1       5.912   4.276  14.970  0.00  0.00    +0.000 Br
ATOM     14  C   UNL     1       4.948   6.344  16.682  0.00  0.00    +0.000 A 
ATOM     15  C   UNL     1       4.163   6.866  17.717  0.00  0.00    +0.000 A 
ENDBRANCH   5   9
BRANCH   1  17
ATOM     16  O   UNL     1       1.242  11.652  20.629  0.00  0.00    +0.000 OA
ATOM     17  C   UNL     1       0.814  11.441  19.496  0.00  0.00    +0.000 C 
ATOM     18  N   UNL     1       0.968  12.298  18.421  0.00  0.00    +0.000 N 
ATOM     19  H   UNL     1       0.465  12.085  17.569  0.00  0.00    +0.000 HD
BRANCH  18  20
ATOM     20  C   UNL     1       1.682  13.516  18.445  0.00  0.00    +0.000 A 
ATOM     21  C   UNL     1       1.096  14.745  18.772  0.00  0.00    +0.000 A 
ATOM     22  C   UNL     1       1.843  15.924  18.748  0.00  0.00    +0.000 A 
ATOM     23  C   UNL     1       3.189  15.886  18.404  0.00  0.00    +0.000 A 
ATOM     24  C   UNL     1       3.792  14.668  18.099  0.00  0.00    +0.000 A 
ATOM     25  C   UNL     1       3.043  13.486  18.130  0.00  0.00    +0.000 A 
ENDBRANCH  18  20
ENDBRANCH   1  17
TORSDOF 3
ENDMDL
MODEL 2
REMARK VINA RESULT:      -7.8      4.167      8.369
REMARK  Name = 
REMARK  3 active torsions:
REMARK  status: ('A' for Active; 'I' for Inactive)
REMARK    1  A    between atoms: C_2  and  C_10
REMARK    2  A    between atoms: N_3  and  C_4
REMARK    3  A    between atoms: C_14  and  C_16
REMARK                            x       y       z     vdW  Elec       q    Type
REMARK                         _______ _______ _______ _____ _____    ______ ____
ROOT
ATOM      1  C   UNL     1       7.317   5.821  18.124  0.00  0.00    +0.000 C 
ATOM      2  C   UNL     1       6.727   5.021  19.293  0.00  0.00    +0.000 C 
ATOM      3  C   UNL     1       5.242   4.716  19.092  0.00  0.00    +0.000 C 
ATOM      4  N   UNL     1       4.480   5.934  18.819  0.00  0.00    +0.000 N 
ATOM      5  C   UNL     1       3.319   6.178  19.558  0.00  0.00    +0.000 C 
ATOM      6  O   UNL     1       3.008   5.502  20.540  0.00  0.00    +0.000 OA
ATOM      7  C   UNL     1       4.992   6.749  17.709  0.00  0.00    +0.000 C 
ATOM      8  C   UNL     1       6.469   7.079  17.887  0.00  0.00    +0.000 C 
ENDROOT
BRANCH   5   9
ATOM      9  C   UNL     1       2.423   7.316  19.213  0.00  0.00    +0.000 A 
ATOM     10  C   UNL     1       2.230   7.759  17.899  0.00  0.00    +0.000 A 
ATOM     11  C   UNL     1       1.471   8.904  17.642  0.00  0.00    +0.000 A 
ATOM     12  C   UNL     1       0.822   9.550  18.691  0.00  0.00    +0.000 A 
ATOM     13 BR   UNL     1      -0.206  11.098  18.341  0.00  0.00    +0.000 Br
ATOM     14  C   UNL     1       0.919   9.060  19.992  0.00  0.00    +0.000 A 
ATOM     15  C   UNL     1       1.725   7.947  20.254  0.00  0.00    +0.000 A 
ENDBRANCH   5   9
BRANCH   1  17
ATOM     16  O   UNL     1       8.095   3.992  16.773  0.00  0.00    +0.000 OA
ATOM     17  C   UNL     1       7.436   5.029  16.821  0.00  0.00    +0.000 C 
ATOM     18  N   UNL     1       6.735   5.569  15.756  0.00  0.00    +0.000 N 
ATOM     19  H   UNL     1       6.335   6.491  15.873  0.00  0.00    +0.000 HD
BRANCH  18  20
ATOM     20  C   UNL     1       6.628   4.991  14.473  0.00  0.00    +0.000 A 
ATOM     21  C   UNL     1       5.601   4.110  14.110  0.00  0.00    +0.000 A 
ATOM     22  C   UNL     1       5.563   3.541  12.836  0.00  0.00    +0.000 A 
ATOM     23  C   UNL     1       6.548   3.853  11.906  0.00  0.00    +0.000 A 
ATOM     24  C   UNL     1       7.562   4.746  12.245  0.00  0.00    +0.000 A 
ATOM     25  C   UNL     1       7.595   5.321  13.521  0.00  0.00    +0.000 A 
ENDBRANCH  18  20
ENDBRANCH   1  17
TORSDOF 3
ENDMDL
MODEL 3
REMARK VINA RESULT:      -7.8      0.306      1.422
REMARK  Name = 
REMARK  3 active torsions:
REMARK  status: ('A' for Active; 'I' for Inactive)
REMARK    1  A    between atoms: C_2  and  C_10
REMARK    2  A    between atoms: N_3  and  C_4
REMARK    3  A    between atoms: C_14  and  C_16
REMARK                            x       y       z     vdW  Elec       q    Type
REMARK                         _______ _______ _______ _____ _____    ______ ____
ROOT
ATOM      1  C   UNL     1       0.179   9.924  19.053  0.00  0.00    +0.000 C 
ATOM      2  C   UNL     1       0.145   8.896  20.192  0.00  0.00    +0.000 C 
ATOM      3  C   UNL     1       1.535   8.345  20.514  0.00  0.00    +0.000 C 
ATOM      4  N   UNL     1       2.189   7.819  19.316  0.00  0.00    +0.000 N 
ATOM      5  C   UNL     1       2.751   6.540  19.368  0.00  0.00    +0.000 C 
ATOM      6  O   UNL     1       2.567   5.776  20.317  0.00  0.00    +0.000 OA
ATOM      7  C   UNL     1       2.256   8.753  18.185  0.00  0.00    +0.000 C 
ATOM      8  C   UNL     1       0.882   9.311  17.834  0.00  0.00    +0.000 C 
ENDROOT
BRANCH   5   9
ATOM      9  C   UNL     1       3.564   6.020  18.234  0.00  0.00    +0.000 A 
ATOM     10  C   UNL     1       4.505   6.803  17.554  0.00  0.00    +0.000 A 
ATOM     11  C   UNL     1       5.158   6.303  16.424  0.00  0.00    +0.000 A 
ATOM     12  C   UNL     1       4.943   4.985  16.030  0.00  0.00    +0.000 A 
ATOM     13 BR   UNL     1       5.827   4.310  14.502  0.00  0.00    +0.000 Br
ATOM     14  C   UNL     1       4.088   4.160  16.759  0.00  0.00    +0.000 A 
ATOM     15  C   UNL     1       3.393   4.679  17.856  0.00  0.00    +0.000 A 
ENDBRANCH   5   9
BRANCH   1  17
ATOM     16  O   UNL     1       1.196  11.474  20.582  0.00  0.00    +0.000 OA
ATOM     17  C   UNL     1       0.853  11.246  19.424  0.00  0.00    +0.000 C 
ATOM     18  N   UNL     1       1.044  12.110  18.359  0.00  0.00    +0.000 N 
ATOM     19  H   UNL     1       0.607  11.877  17.477  0.00  0.00    +0.000 HD
BRANCH  18  20
ATOM     20  C   UNL     1       1.706  13.355  18.428  0.00  0.00    +0.000 A 
ATOM     21  C   UNL     1       3.067  13.520  18.143  0.00  0.00    +0.000 A 
ATOM     22  C   UNL     1       3.677  14.770  18.259  0.00  0.00    +0.000 A 
ATOM     23  C   UNL     1       2.930  15.873  18.656  0.00  0.00    +0.000 A 
ATOM     24  C   UNL     1       1.570  15.729  18.920  0.00  0.00    +0.000 A 
ATOM     25  C   UNL     1       0.958  14.476  18.796  0.00  0.00    +0.000 A 
ENDBRANCH  18  20
ENDBRANCH   1  17
TORSDOF 3
ENDMDL
MODEL 4
REMARK VINA RESULT:      -7.6      3.780      8.470
REMARK  Name = 
REMARK  3 active torsions:
REMARK  status: ('A' for Active; 'I' for Inactive)
REMARK    1  A    between atoms: C_2  and  C_10
REMARK    2  A    between atoms: N_3  and  C_4
REMARK    3  A    between atoms: C_14  and  C_16
REMARK                            x       y       z     vdW  Elec       q    Type
REMARK                         _______ _______ _______ _____ _____    ______ ____
ROOT
ATOM      1  C   UNL     1       6.034   5.008  18.048  0.00  0.00    +0.000 C 
ATOM      2  C   UNL     1       5.197   4.317  19.134  0.00  0.00    +0.000 C 
ATOM      3  C   UNL     1       3.697   4.530  18.929  0.00  0.00    +0.000 C 
ATOM      4  N   UNL     1       3.373   5.951  18.806  0.00  0.00    +0.000 N 
ATOM      5  C   UNL     1       2.339   6.472  19.590  0.00  0.00    +0.000 C 
ATOM      6  O   UNL     1       1.810   5.829  20.497  0.00  0.00    +0.000 OA
ATOM      7  C   UNL     1       4.139   6.675  17.783  0.00  0.00    +0.000 C 
ATOM      8  C   UNL     1       5.640   6.490  17.968  0.00  0.00    +0.000 C 
ENDROOT
BRANCH   5   9
ATOM      9  C   UNL     1       1.864   7.869  19.391  0.00  0.00    +0.000 A 
ATOM     10  C   UNL     1       1.925   8.522  18.153  0.00  0.00    +0.000 A 
ATOM     11  C   UNL     1       1.574   9.870  18.046  0.00  0.00    +0.000 A 
ATOM     12  C   UNL     1       1.067  10.541  19.156  0.00  0.00    +0.000 A 
ATOM     13 BR   UNL     1       0.592  12.365  19.010  0.00  0.00    +0.000 Br
ATOM     14  C   UNL     1       0.902   9.876  20.370  0.00  0.00    +0.000 A 
ATOM     15  C   UNL     1       1.307   8.542  20.489  0.00  0.00    +0.000 A 
ENDBRANCH   5   9
BRANCH   1  17
ATOM     16  O   UNL     1       5.144   3.430  16.469  0.00  0.00    +0.000 OA
ATOM     17  C   UNL     1       5.914   4.369  16.664  0.00  0.00    +0.000 C 
ATOM     18  N   UNL     1       6.712   4.950  15.693  0.00  0.00    +0.000 N 
ATOM     19  H   UNL     1       7.401   5.629  15.992  0.00  0.00    +0.000 HD
BRANCH  18  20
ATOM     20  C   UNL     1       6.728   4.591  14.329  0.00  0.00    +0.000 A 
ATOM     21  C   UNL     1       5.908   3.594  13.786  0.00  0.00    +0.000 A 
ATOM     22  C   UNL     1       5.989   3.257  12.434  0.00  0.00    +0.000 A 
ATOM     23  C   UNL     1       6.888   3.919  11.605  0.00  0.00    +0.000 A 
ATOM     24  C   UNL     1       7.693   4.930  12.126  0.00  0.00    +0.000 A 
ATOM     25  C   UNL     1       7.606   5.271  13.481  0.00  0.00    +0.000 A 
ENDBRANCH  18  20
ENDBRANCH   1  17
TORSDOF 3
ENDMDL
MODEL 5
REMARK VINA RESULT:      -7.6      4.078      8.522
REMARK  Name = 
REMARK  3 active torsions:
REMARK  status: ('A' for Active; 'I' for Inactive)
REMARK    1  A    between atoms: C_2  and  C_10
REMARK    2  A    between atoms: N_3  and  C_4
REMARK    3  A    between atoms: C_14  and  C_16
REMARK                            x       y       z     vdW  Elec       q    Type
REMARK                         _______ _______ _______ _____ _____    ______ ____
ROOT
ATOM      1  C   UNL     1       6.145   4.215  18.173  0.00  0.00    +0.000 C 
ATOM      2  C   UNL     1       4.835   3.416  18.125  0.00  0.00    +0.000 C 
ATOM      3  C   UNL     1       3.727   4.168  17.387  0.00  0.00    +0.000 C 
ATOM      4  N   UNL     1       3.533   5.507  17.941  0.00  0.00    +0.000 N 
ATOM      5  C   UNL     1       2.237   5.915  18.270  0.00  0.00    +0.000 C 
ATOM      6  O   UNL     1       1.282   5.138  18.275  0.00  0.00    +0.000 OA
ATOM      7  C   UNL     1       4.748   6.329  18.017  0.00  0.00    +0.000 C 
ATOM      8  C   UNL     1       5.870   5.609  18.756  0.00  0.00    +0.000 C 
ENDROOT
BRANCH   5   9
ATOM      9  C   UNL     1       1.964   7.318  18.686  0.00  0.00    +0.000 A 
ATOM     10  C   UNL     1       1.781   7.692  20.024  0.00  0.00    +0.000 A 
ATOM     11  C   UNL     1       1.412   8.999  20.350  0.00  0.00    +0.000 A 
ATOM     12  C   UNL     1       1.321   9.961  19.346  0.00  0.00    +0.000 A 
ATOM     13 BR   UNL     1       0.822  11.729  19.789  0.00  0.00    +0.000 Br
ATOM     14  C   UNL     1       1.601   9.629  18.022  0.00  0.00    +0.000 A 
ATOM     15  C   UNL     1       1.915   8.306  17.691  0.00  0.00    +0.000 A 
ENDBRANCH   5   9
BRANCH   1  17
ATOM     16  O   UNL     1       8.061   4.512  16.754  0.00  0.00    +0.000 OA
ATOM     17  C   UNL     1       6.843   4.354  16.820  0.00  0.00    +0.000 C 
ATOM     18  N   UNL     1       5.998   4.267  15.726  0.00  0.00    +0.000 N 
ATOM     19  H   UNL     1       5.001   4.268  15.898  0.00  0.00    +0.000 HD
BRANCH  18  20
ATOM     20  C   UNL     1       6.407   4.292  14.376  0.00  0.00    +0.000 A 
ATOM     21  C   UNL     1       5.902   3.422  13.402  0.00  0.00    +0.000 A 
ATOM     22  C   UNL     1       6.367   3.471  12.087  0.00  0.00    +0.000 A 
ATOM     23  C   UNL     1       7.339   4.397  11.728  0.00  0.00    +0.000 A 
ATOM     24  C   UNL     1       7.834   5.285  12.680  0.00  0.00    +0.000 A 
ATOM     25  C   UNL     1       7.361   5.240  13.997  0.00  0.00    +0.000 A 
ENDBRANCH  18  20
ENDBRANCH   1  17
TORSDOF 3
ENDMDL
MODEL 6
REMARK VINA RESULT:      -7.6      3.815      8.511
REMARK  Name = 
REMARK  3 active torsions:
REMARK  status: ('A' for Active; 'I' for Inactive)
REMARK    1  A    between atoms: C_2  and  C_10
REMARK    2  A    between atoms: N_3  and  C_4
REMARK    3  A    between atoms: C_14  and  C_16
REMARK                            x       y       z     vdW  Elec       q    Type
REMARK                         _______ _______ _______ _____ _____    ______ ____
ROOT
ATOM      1  C   UNL     1       6.291   5.163  17.888  0.00  0.00    +0.000 C 
ATOM      2  C   UNL     1       5.519   4.441  19.001  0.00  0.00    +0.000 C 
ATOM      3  C   UNL     1       4.005   4.565  18.828  0.00  0.00    +0.000 C 
ATOM      4  N   UNL     1       3.598   5.963  18.695  0.00  0.00    +0.000 N 
ATOM      5  C   UNL     1       2.554   6.436  19.495  0.00  0.00    +0.000 C 
ATOM      6  O   UNL     1       2.082   5.777  20.422  0.00  0.00    +0.000 OA
ATOM      7  C   UNL     1       4.299   6.716  17.646  0.00  0.00    +0.000 C 
ATOM      8  C   UNL     1       5.812   6.619  17.798  0.00  0.00    +0.000 C 
ENDROOT
BRANCH   5   9
ATOM      9  C   UNL     1       1.995   7.801  19.289  0.00  0.00    +0.000 A 
ATOM     10  C   UNL     1       2.005   8.445  18.045  0.00  0.00    +0.000 A 
ATOM     11  C   UNL     1       1.574   9.769  17.930  0.00  0.00    +0.000 A 
ATOM     12  C   UNL     1       1.041  10.420  19.041  0.00  0.00    +0.000 A 
ATOM     13 BR   UNL     1       0.457  12.211  18.884  0.00  0.00    +0.000 Br
ATOM     14  C   UNL     1       0.928   9.757  20.262  0.00  0.00    +0.000 A 
ATOM     15  C   UNL     1       1.412   8.450  20.388  0.00  0.00    +0.000 A 
ENDBRANCH   5   9
BRANCH   1  17
ATOM     16  O   UNL     1       5.454   3.519  16.349  0.00  0.00    +0.000 OA
ATOM     17  C   UNL     1       6.177   4.499  16.515  0.00  0.00    +0.000 C 
ATOM     18  N   UNL     1       6.925   5.107  15.521  0.00  0.00    +0.000 N 
ATOM     19  H   UNL     1       7.583   5.825  15.796  0.00  0.00    +0.000 HD
BRANCH  18  20
ATOM     20  C   UNL     1       6.932   4.730  14.161  0.00  0.00    +0.000 A 
ATOM     21  C   UNL     1       7.780   5.306  13.207  0.00  0.00    +0.000 A 
ATOM     22  C   UNL     1       7.721   4.916  11.868  0.00  0.00    +0.000 A 
ATOM     23  C   UNL     1       6.818   3.939  11.467  0.00  0.00    +0.000 A 
ATOM     24  C   UNL     1       5.985   3.339  12.409  0.00  0.00    +0.000 A 
ATOM     25  C   UNL     1       6.050   3.726  13.753  0.00  0.00    +0.000 A 
ENDBRANCH  18  20
ENDBRANCH   1  17
TORSDOF 3
ENDMDL
MODEL 7
REMARK VINA RESULT:      -7.5      3.854      8.394
REMARK  Name = 
REMARK  3 active torsions:
REMARK  status: ('A' for Active; 'I' for Inactive)
REMARK    1  A    between atoms: C_2  and  C_10
REMARK    2  A    between atoms: N_3  and  C_4
REMARK    3  A    between atoms: C_14  and  C_16
REMARK                            x       y       z     vdW  Elec       q    Type
REMARK                         _______ _______ _______ _____ _____    ______ ____
ROOT
ATOM      1  C   UNL     1       5.943   4.884  18.233  0.00  0.00    +0.000 C 
ATOM      2  C   UNL     1       5.057   4.151  19.250  0.00  0.00    +0.000 C 
ATOM      3  C   UNL     1       3.570   4.426  19.025  0.00  0.00    +0.000 C 
ATOM      4  N   UNL     1       3.294   5.862  18.989  0.00  0.00    +0.000 N 
ATOM      5  C   UNL     1       2.257   6.364  19.781  0.00  0.00    +0.000 C 
ATOM      6  O   UNL     1       1.685   5.681  20.631  0.00  0.00    +0.000 OA
ATOM      7  C   UNL     1       4.107   6.626  18.034  0.00  0.00    +0.000 C 
ATOM      8  C   UNL     1       5.597   6.380  18.242  0.00  0.00    +0.000 C 
ENDROOT
BRANCH   5   9
ATOM      9  C   UNL     1       1.830   7.786  19.663  0.00  0.00    +0.000 A 
ATOM     10  C   UNL     1       1.304   8.512  20.739  0.00  0.00    +0.000 A 
ATOM     11  C   UNL     1       0.811   9.805  20.547  0.00  0.00    +0.000 A 
ATOM     12  C   UNL     1       0.934  10.411  19.299  0.00  0.00    +0.000 A 
ATOM     13 BR   UNL     1       0.267  12.161  19.040  0.00  0.00    +0.000 Br
ATOM     14  C   UNL     1       1.550   9.740  18.244  0.00  0.00    +0.000 A 
ATOM     15  C   UNL     1       1.992   8.425  18.424  0.00  0.00    +0.000 A 
ENDBRANCH   5   9
BRANCH   1  17
ATOM     16  O   UNL     1       5.013   3.475  16.523  0.00  0.00    +0.000 OA
ATOM     17  C   UNL     1       5.838   4.342  16.807  0.00  0.00    +0.000 C 
ATOM     18  N   UNL     1       6.717   4.920  15.908  0.00  0.00    +0.000 N 
ATOM     19  H   UNL     1       7.439   5.526  16.275  0.00  0.00    +0.000 HD
BRANCH  18  20
ATOM     20  C   UNL     1       6.768   4.644  14.525  0.00  0.00    +0.000 A 
ATOM     21  C   UNL     1       5.947   3.698  13.898  0.00  0.00    +0.000 A 
ATOM     22  C   UNL     1       6.062   3.442  12.531  0.00  0.00    +0.000 A 
ATOM     23  C   UNL     1       6.996   4.136  11.771  0.00  0.00    +0.000 A 
ATOM     24  C   UNL     1       7.804   5.097  12.375  0.00  0.00    +0.000 A 
ATOM     25  C   UNL     1       7.682   5.358  13.745  0.00  0.00    +0.000 A 
ENDBRANCH  18  20
ENDBRANCH   1  17
TORSDOF 3
ENDMDL
MODEL 8
REMARK VINA RESULT:      -7.4      3.975      8.493
REMARK  Name = 
REMARK  3 active torsions:
REMARK  status: ('A' for Active; 'I' for Inactive)
REMARK    1  A    between atoms: C_2  and  C_10
REMARK    2  A    between atoms: N_3  and  C_4
REMARK    3  A    between atoms: C_14  and  C_16
REMARK                            x       y       z     vdW  Elec       q    Type
REMARK                         _______ _______ _______ _____ _____    ______ ____
ROOT
ATOM      1  C   UNL     1       6.352   5.045  17.949  0.00  0.00    +0.000 C 
ATOM      2  C   UNL     1       5.628   4.298  19.077  0.00  0.00    +0.000 C 
ATOM      3  C   UNL     1       4.107   4.383  18.943  0.00  0.00    +0.000 C 
ATOM      4  N   UNL     1       3.660   5.770  18.827  0.00  0.00    +0.000 N 
ATOM      5  C   UNL     1       2.625   6.212  19.657  0.00  0.00    +0.000 C 
ATOM      6  O   UNL     1       2.194   5.535  20.592  0.00  0.00    +0.000 OA
ATOM      7  C   UNL     1       4.314   6.547  17.765  0.00  0.00    +0.000 C 
ATOM      8  C   UNL     1       5.832   6.489  17.879  0.00  0.00    +0.000 C 
ENDROOT
BRANCH   5   9
ATOM      9  C   UNL     1       2.025   7.562  19.472  0.00  0.00    +0.000 A 
ATOM     10  C   UNL     1       1.513   8.317  20.535  0.00  0.00    +0.000 A 
ATOM     11  C   UNL     1       0.857   9.526  20.293  0.00  0.00    +0.000 A 
ATOM     12  C   UNL     1       0.797  10.031  18.996  0.00  0.00    +0.000 A 
ATOM     13 BR   UNL     1      -0.090  11.668  18.670  0.00  0.00    +0.000 Br
ATOM     14  C   UNL     1       1.394   9.342  17.941  0.00  0.00    +0.000 A 
ATOM     15  C   UNL     1       2.001   8.104  18.178  0.00  0.00    +0.000 A 
ENDBRANCH   5   9
BRANCH   1  17
ATOM     16  O   UNL     1       5.562   3.357  16.433  0.00  0.00    +0.000 OA
ATOM     17  C   UNL     1       6.221   4.386  16.576  0.00  0.00    +0.000 C 
ATOM     18  N   UNL     1       6.876   5.052  15.555  0.00  0.00    +0.000 N 
ATOM     19  H   UNL     1       7.493   5.813  15.806  0.00  0.00    +0.000 HD
BRANCH  18  20
ATOM     20  C   UNL     1       6.846   4.686  14.192  0.00  0.00    +0.000 A 
ATOM     21  C   UNL     1       7.737   5.195  13.239  0.00  0.00    +0.000 A 
ATOM     22  C   UNL     1       7.640   4.823  11.897  0.00  0.00    +0.000 A 
ATOM     23  C   UNL     1       6.655   3.929  11.493  0.00  0.00    +0.000 A 
ATOM     24  C   UNL     1       5.777   3.397  12.434  0.00  0.00    +0.000 A 
ATOM     25  C   UNL     1       5.879   3.766  13.780  0.00  0.00    +0.000 A 
ENDBRANCH  18  20
ENDBRANCH   1  17
TORSDOF 3
ENDMDL
MODEL 9
REMARK VINA RESULT:      -7.4      4.079      8.519
REMARK  Name = 
REMARK  3 active torsions:
REMARK  status: ('A' for Active; 'I' for Inactive)
REMARK    1  A    between atoms: C_2  and  C_10
REMARK    2  A    between atoms: N_3  and  C_4
REMARK    3  A    between atoms: C_14  and  C_16
REMARK                            x       y       z     vdW  Elec       q    Type
REMARK                         _______ _______ _______ _____ _____    ______ ____
ROOT
ATOM      1  C   UNL     1       6.202   4.311  18.283  0.00  0.00    +0.000 C 
ATOM      2  C   UNL     1       4.921   3.466  18.261  0.00  0.00    +0.000 C 
ATOM      3  C   UNL     1       3.796   4.143  17.477  0.00  0.00    +0.000 C 
ATOM      4  N   UNL     1       3.551   5.500  17.963  0.00  0.00    +0.000 N 
ATOM      5  C   UNL     1       2.238   5.879  18.260  0.00  0.00    +0.000 C 
ATOM      6  O   UNL     1       1.310   5.070  18.293  0.00  0.00    +0.000 OA
ATOM      7  C   UNL     1       4.737   6.366  18.011  0.00  0.00    +0.000 C 
ATOM      8  C   UNL     1       5.873   5.721  18.795  0.00  0.00    +0.000 C 
ENDROOT
BRANCH   5   9
ATOM      9  C   UNL     1       1.912   7.290  18.604  0.00  0.00    +0.000 A 
ATOM     10  C   UNL     1       1.865   8.313  17.648  0.00  0.00    +0.000 A 
ATOM     11  C   UNL     1       1.669   9.640  18.040  0.00  0.00    +0.000 A 
ATOM     12  C   UNL     1       1.423   9.934  19.379  0.00  0.00    +0.000 A 
ATOM     13 BR   UNL     1       1.157  11.729  19.908  0.00  0.00    +0.000 Br
ATOM     14  C   UNL     1       1.363   8.914  20.328  0.00  0.00    +0.000 A 
ATOM     15  C   UNL     1       1.615   7.593  19.942  0.00  0.00    +0.000 A 
ENDBRANCH   5   9
BRANCH   1  17
ATOM     16  O   UNL     1       8.136   4.494  16.868  0.00  0.00    +0.000 OA
ATOM     17  C   UNL     1       6.911   4.409  16.931  0.00  0.00    +0.000 C 
ATOM     18  N   UNL     1       6.064   4.372  15.836  0.00  0.00    +0.000 N 
ATOM     19  H   UNL     1       5.069   4.432  16.006  0.00  0.00    +0.000 HD
BRANCH  18  20
ATOM     20  C   UNL     1       6.477   4.373  14.486  0.00  0.00    +0.000 A 
ATOM     21  C   UNL     1       7.476   5.218  13.988  0.00  0.00    +0.000 A 
ATOM     22  C   UNL     1       7.821   5.200  12.636  0.00  0.00    +0.000 A 
ATOM     23  C   UNL     1       7.176   4.329  11.766  0.00  0.00    +0.000 A 
ATOM     24  C   UNL     1       6.196   3.466  12.251  0.00  0.00    +0.000 A 
ATOM     25  C   UNL     1       5.856   3.481  13.609  0.00  0.00    +0.000 A 
ENDBRANCH  18  20
ENDBRANCH   1  17
TORSDOF 3
ENDMDL
