MODEL 1
REMARK VINA RESULT:      -4.4      0.000      0.000
REMARK  Name = 
REMARK  4 active torsions:
REMARK  status: ('A' for Active; 'I' for Inactive)
REMARK    1  A    between atoms: C_1  and  C_2
REMARK    2  A    between atoms: C_2  and  C_3
REMARK    3  A    between atoms: C_4  and  C_6
REMARK    4  A    between atoms: C_6  and  O_8
REMARK                            x       y       z     vdW  Elec       q    Type
REMARK                         _______ _______ _______ _____ _____    ______ ____
ROOT
ATOM      1  C   UNL     1       0.772   2.461  18.957  0.00  0.00    +0.000 C 
ATOM      2  C   UNL     1       2.054   2.684  19.710  0.00  0.00    +0.000 C 
ATOM      3  C   UNL     1       1.960   3.418  21.019  0.00  0.00    +0.000 C 
ATOM      4  C   UNL     1       3.216   2.233  19.206  0.00  0.00    +0.000 C 
ATOM      5  F   UNL     1       3.224   1.579  18.019  0.00  0.00    +0.000 F 
ENDROOT
BRANCH   4   6
ATOM      6  C   UNL     1       4.564   2.370  19.820  0.00  0.00    +0.000 C 
ATOM      7  O   UNL     1       4.991   1.725  20.761  0.00  0.00    +0.000 OA
BRANCH   6   8
ATOM      8  O   UNL     1       5.288   3.327  19.192  0.00  0.00    +0.000 OA
ATOM      9  H   UNL     1       5.020   4.228  19.463  0.00  0.00    +0.000 HD
ENDBRANCH   6   8
ENDBRANCH   4   6
TORSDOF 2
ENDMDL
MODEL 2
REMARK VINA RESULT:      -4.3      0.725      1.282
REMARK  Name = 
REMARK  4 active torsions:
REMARK  status: ('A' for Active; 'I' for Inactive)
REMARK    1  A    between atoms: C_1  and  C_2
REMARK    2  A    between atoms: C_2  and  C_3
REMARK    3  A    between atoms: C_4  and  C_6
REMARK    4  A    between atoms: C_6  and  O_8
REMARK                            x       y       z     vdW  Elec       q    Type
REMARK                         _______ _______ _______ _____ _____    ______ ____
ROOT
ATOM      1  C   UNL     1       0.727   2.805  19.603  0.00  0.00    +0.000 C 
ATOM      2  C   UNL     1       2.143   2.885  20.101  0.00  0.00    +0.000 C 
ATOM      3  C   UNL     1       2.340   3.043  21.583  0.00  0.00    +0.000 C 
ATOM      4  C   UNL     1       3.165   2.813  19.230  0.00  0.00    +0.000 C 
ATOM      5  F   UNL     1       2.912   2.670  17.907  0.00  0.00    +0.000 F 
ENDROOT
BRANCH   4   6
ATOM      6  C   UNL     1       4.616   2.876  19.556  0.00  0.00    +0.000 C 
ATOM      7  O   UNL     1       5.336   3.851  19.434  0.00  0.00    +0.000 OA
BRANCH   6   8
ATOM      8  O   UNL     1       5.060   1.684  20.021  0.00  0.00    +0.000 OA
ATOM      9  H   UNL     1       4.476   0.945  19.756  0.00  0.00    +0.000 HD
ENDBRANCH   6   8
ENDBRANCH   4   6
TORSDOF 2
ENDMDL
MODEL 3
REMARK VINA RESULT:      -4.3      1.783      2.434
REMARK  Name = 
REMARK  4 active torsions:
REMARK  status: ('A' for Active; 'I' for Inactive)
REMARK    1  A    between atoms: C_1  and  C_2
REMARK    2  A    between atoms: C_2  and  C_3
REMARK    3  A    between atoms: C_4  and  C_6
REMARK    4  A    between atoms: C_6  and  O_8
REMARK                            x       y       z     vdW  Elec       q    Type
REMARK                         _______ _______ _______ _____ _____    ______ ____
ROOT
ATOM      1  C   UNL     1       1.437   2.803  21.530  0.00  0.00    +0.000 C 
ATOM      2  C   UNL     1       1.835   2.552  20.102  0.00  0.00    +0.000 C 
ATOM      3  C   UNL     1       0.740   2.564  19.074  0.00  0.00    +0.000 C 
ATOM      4  C   UNL     1       3.126   2.332  19.796  0.00  0.00    +0.000 C 
ATOM      5  F   UNL     1       4.060   2.336  20.777  0.00  0.00    +0.000 F 
ENDROOT
BRANCH   4   6
ATOM      6  C   UNL     1       3.684   2.068  18.442  0.00  0.00    +0.000 C 
ATOM      7  O   UNL     1       3.887   2.901  17.576  0.00  0.00    +0.000 OA
BRANCH   6   8
ATOM      8  O   UNL     1       3.951   0.751  18.275  0.00  0.00    +0.000 OA
ATOM      9  H   UNL     1       4.838   0.601  17.892  0.00  0.00    +0.000 HD
ENDBRANCH   6   8
ENDBRANCH   4   6
TORSDOF 2
ENDMDL
MODEL 4
REMARK VINA RESULT:      -4.3      2.800      3.333
REMARK  Name = 
REMARK  4 active torsions:
REMARK  status: ('A' for Active; 'I' for Inactive)
REMARK    1  A    between atoms: C_1  and  C_2
REMARK    2  A    between atoms: C_2  and  C_3
REMARK    3  A    between atoms: C_4  and  C_6
REMARK    4  A    between atoms: C_6  and  O_8
REMARK                            x       y       z     vdW  Elec       q    Type
REMARK                         _______ _______ _______ _____ _____    ______ ____
ROOT
ATOM      1  C   UNL     1       1.938   5.682  20.574  0.00  0.00    +0.000 C 
ATOM      2  C   UNL     1       1.683   4.234  20.258  0.00  0.00    +0.000 C 
ATOM      3  C   UNL     1       1.631   3.280  21.418  0.00  0.00    +0.000 C 
ATOM      4  C   UNL     1       1.514   3.846  18.982  0.00  0.00    +0.000 C 
ATOM      5  F   UNL     1       1.574   4.764  17.987  0.00  0.00    +0.000 F 
ENDROOT
BRANCH   4   6
ATOM      6  C   UNL     1       1.255   2.462  18.501  0.00  0.00    +0.000 C 
ATOM      7  O   UNL     1       0.167   1.917  18.439  0.00  0.00    +0.000 OA
BRANCH   6   8
ATOM      8  O   UNL     1       2.407   1.855  18.128  0.00  0.00    +0.000 OA
ATOM      9  H   UNL     1       2.303   0.886  18.046  0.00  0.00    +0.000 HD
ENDBRANCH   6   8
ENDBRANCH   4   6
TORSDOF 2
ENDMDL
MODEL 5
REMARK VINA RESULT:      -4.3      3.749      4.470
REMARK  Name = 
REMARK  4 active torsions:
REMARK  status: ('A' for Active; 'I' for Inactive)
REMARK    1  A    between atoms: C_1  and  C_2
REMARK    2  A    between atoms: C_2  and  C_3
REMARK    3  A    between atoms: C_4  and  C_6
REMARK    4  A    between atoms: C_6  and  O_8
REMARK                            x       y       z     vdW  Elec       q    Type
REMARK                         _______ _______ _______ _____ _____    ______ ____
ROOT
ATOM      1  C   UNL     1       3.555   3.733  17.377  0.00  0.00    +0.000 C 
ATOM      2  C   UNL     1       4.879   4.413  17.582  0.00  0.00    +0.000 C 
ATOM      3  C   UNL     1       5.079   5.143  18.881  0.00  0.00    +0.000 C 
ATOM      4  C   UNL     1       5.822   4.349  16.625  0.00  0.00    +0.000 C 
ATOM      5  F   UNL     1       5.571   3.671  15.479  0.00  0.00    +0.000 F 
ENDROOT
BRANCH   4   6
ATOM      6  C   UNL     1       7.176   4.963  16.671  0.00  0.00    +0.000 C 
ATOM      7  O   UNL     1       7.478   6.065  16.248  0.00  0.00    +0.000 OA
BRANCH   6   8
ATOM      8  O   UNL     1       8.068   4.127  17.255  0.00  0.00    +0.000 OA
ATOM      9  H   UNL     1       8.918   4.572  17.447  0.00  0.00    +0.000 HD
ENDBRANCH   6   8
ENDBRANCH   4   6
TORSDOF 2
ENDMDL
MODEL 6
REMARK VINA RESULT:      -4.3      5.172      5.483
REMARK  Name = 
REMARK  4 active torsions:
REMARK  status: ('A' for Active; 'I' for Inactive)
REMARK    1  A    between atoms: C_1  and  C_2
REMARK    2  A    between atoms: C_2  and  C_3
REMARK    3  A    between atoms: C_4  and  C_6
REMARK    4  A    between atoms: C_6  and  O_8
REMARK                            x       y       z     vdW  Elec       q    Type
REMARK                         _______ _______ _______ _____ _____    ______ ____
ROOT
ATOM      1  C   UNL     1       6.330   4.583  15.631  0.00  0.00    +0.000 C 
ATOM      2  C   UNL     1       6.428   5.368  16.909  0.00  0.00    +0.000 C 
ATOM      3  C   UNL     1       5.386   6.425  17.144  0.00  0.00    +0.000 C 
ATOM      4  C   UNL     1       7.417   5.107  17.782  0.00  0.00    +0.000 C 
ATOM      5  F   UNL     1       8.321   4.138  17.503  0.00  0.00    +0.000 F 
ENDROOT
BRANCH   4   6
ATOM      6  C   UNL     1       7.654   5.787  19.084  0.00  0.00    +0.000 C 
ATOM      7  O   UNL     1       7.272   5.401  20.174  0.00  0.00    +0.000 OA
BRANCH   6   8
ATOM      8  O   UNL     1       8.369   6.925  18.913  0.00  0.00    +0.000 OA
ATOM      9  H   UNL     1       9.209   6.911  19.415  0.00  0.00    +0.000 HD
ENDBRANCH   6   8
ENDBRANCH   4   6
TORSDOF 2
ENDMDL
MODEL 7
REMARK VINA RESULT:      -4.3      2.744      3.270
REMARK  Name = 
REMARK  4 active torsions:
REMARK  status: ('A' for Active; 'I' for Inactive)
REMARK    1  A    between atoms: C_1  and  C_2
REMARK    2  A    between atoms: C_2  and  C_3
REMARK    3  A    between atoms: C_4  and  C_6
REMARK    4  A    between atoms: C_6  and  O_8
REMARK                            x       y       z     vdW  Elec       q    Type
REMARK                         _______ _______ _______ _____ _____    ______ ____
ROOT
ATOM      1  C   UNL     1       1.649   5.555  20.681  0.00  0.00    +0.000 C 
ATOM      2  C   UNL     1       1.659   4.110  20.263  0.00  0.00    +0.000 C 
ATOM      3  C   UNL     1       1.726   3.083  21.358  0.00  0.00    +0.000 C 
ATOM      4  C   UNL     1       1.610   3.789  18.959  0.00  0.00    +0.000 C 
ATOM      5  F   UNL     1       1.550   4.771  18.027  0.00  0.00    +0.000 F 
ENDROOT
BRANCH   4   6
ATOM      6  C   UNL     1       1.612   2.418  18.381  0.00  0.00    +0.000 C 
ATOM      7  O   UNL     1       2.585   1.824  17.950  0.00  0.00    +0.000 OA
BRANCH   6   8
ATOM      8  O   UNL     1       0.367   1.887  18.389  0.00  0.00    +0.000 OA
ATOM      9  H   UNL     1       0.100   1.587  19.281  0.00  0.00    +0.000 HD
ENDBRANCH   6   8
ENDBRANCH   4   6
TORSDOF 2
ENDMDL
MODEL 8
REMARK VINA RESULT:      -4.2      1.770      2.126
REMARK  Name = 
REMARK  4 active torsions:
REMARK  status: ('A' for Active; 'I' for Inactive)
REMARK    1  A    between atoms: C_1  and  C_2
REMARK    2  A    between atoms: C_2  and  C_3
REMARK    3  A    between atoms: C_4  and  C_6
REMARK    4  A    between atoms: C_6  and  O_8
REMARK                            x       y       z     vdW  Elec       q    Type
REMARK                         _______ _______ _______ _____ _____    ______ ____
ROOT
ATOM      1  C   UNL     1       1.779   5.211  20.627  0.00  0.00    +0.000 C 
ATOM      2  C   UNL     1       2.280   3.804  20.456  0.00  0.00    +0.000 C 
ATOM      3  C   UNL     1       1.610   2.736  21.274  0.00  0.00    +0.000 C 
ATOM      4  C   UNL     1       3.284   3.549  19.599  0.00  0.00    +0.000 C 
ATOM      5  F   UNL     1       3.840   4.564  18.895  0.00  0.00    +0.000 F 
ENDROOT
BRANCH   4   6
ATOM      6  C   UNL     1       3.893   2.222  19.314  0.00  0.00    +0.000 C 
ATOM      7  O   UNL     1       3.434   1.367  18.578  0.00  0.00    +0.000 OA
BRANCH   6   8
ATOM      8  O   UNL     1       5.056   2.067  19.991  0.00  0.00    +0.000 OA
ATOM      9  H   UNL     1       4.968   2.310  20.934  0.00  0.00    +0.000 HD
ENDBRANCH   6   8
ENDBRANCH   4   6
TORSDOF 2
ENDMDL
MODEL 9
REMARK VINA RESULT:      -4.2      1.522      2.131
REMARK  Name = 
REMARK  4 active torsions:
REMARK  status: ('A' for Active; 'I' for Inactive)
REMARK    1  A    between atoms: C_1  and  C_2
REMARK    2  A    between atoms: C_2  and  C_3
REMARK    3  A    between atoms: C_4  and  C_6
REMARK    4  A    between atoms: C_6  and  O_8
REMARK                            x       y       z     vdW  Elec       q    Type
REMARK                         _______ _______ _______ _____ _____    ______ ____
ROOT
ATOM      1  C   UNL     1       0.701   2.808  19.360  0.00  0.00    +0.000 C 
ATOM      2  C   UNL     1       2.156   2.818  18.984  0.00  0.00    +0.000 C 
ATOM      3  C   UNL     1       2.483   2.881  17.518  0.00  0.00    +0.000 C 
ATOM      4  C   UNL     1       3.098   2.772  19.943  0.00  0.00    +0.000 C 
ATOM      5  F   UNL     1       2.728   2.717  21.245  0.00  0.00    +0.000 F 
ENDROOT
BRANCH   4   6
ATOM      6  C   UNL     1       4.572   2.774  19.741  0.00  0.00    +0.000 C 
ATOM      7  O   UNL     1       5.251   3.736  19.428  0.00  0.00    +0.000 OA
BRANCH   6   8
ATOM      8  O   UNL     1       5.091   1.542  19.953  0.00  0.00    +0.000 OA
ATOM      9  H   UNL     1       4.395   0.863  20.061  0.00  0.00    +0.000 HD
ENDBRANCH   6   8
ENDBRANCH   4   6
TORSDOF 2
ENDMDL
