MODEL 1
REMARK VINA RESULT:      -8.1      0.000      0.000
REMARK  Name = 
REMARK  10 active torsions:
REMARK  status: ('A' for Active; 'I' for Inactive)
REMARK    1  A    between atoms: O_1  and  N_2
REMARK    2  A    between atoms: C_3  and  C_4
REMARK    3  A    between atoms: N_7  and  C_8
REMARK    4  A    between atoms: C_8  and  C_9
REMARK    5  A    between atoms: C_9  and  C_10
REMARK    6  A    between atoms: C_10  and  C_11
REMARK    7  A    between atoms: C_11  and  C_12
REMARK    8  A    between atoms: C_12  and  C_13
REMARK    9  A    between atoms: C_13  and  N_14
REMARK   10  A    between atoms: N_14  and  C_15
REMARK                            x       y       z     vdW  Elec       q    Type
REMARK                         _______ _______ _______ _____ _____    ______ ____
ROOT
ATOM      1  C   UNL     1       3.128   3.387  17.214  0.00  0.00    +0.000 C 
ENDROOT
BRANCH   1   2
ATOM      2  N   UNL     1       4.381   2.977  16.578  0.00  0.00    +0.000 N 
ATOM      3  H   UNL     1       4.780   2.123  16.963  0.00  0.00    +0.000 HD
BRANCH   2   4
ATOM      4  C   UNL     1       5.388   3.907  16.160  0.00  0.00    +0.000 A 
ATOM      5  C   UNL     1       5.893   4.024  14.813  0.00  0.00    +0.000 A 
ATOM      6  C   UNL     1       6.962   4.900  14.598  0.00  0.00    +0.000 A 
ATOM      7  N   UNL     1       7.526   5.646  15.558  0.00  0.00    +0.000 NA
ATOM      8  C   UNL     1       7.123   5.537  16.800  0.00  0.00    +0.000 A 
ATOM      9  C   UNL     1       7.869   6.303  17.687  0.00  0.00    +0.000 A 
ATOM     10  C   UNL     1       7.626   6.289  19.036  0.00  0.00    +0.000 A 
ATOM     11  C   UNL     1       6.595   5.492  19.513  0.00  0.00    +0.000 A 
ATOM     12  C   UNL     1       5.828   4.708  18.620  0.00  0.00    +0.000 A 
ATOM     13  C   UNL     1       6.067   4.690  17.216  0.00  0.00    +0.000 A 
ATOM     14  C   UNL     1       7.720   5.054  13.325  0.00  0.00    +0.000 C 
ATOM     15  C   UNL     1       7.169   4.443  12.064  0.00  0.00    +0.000 C 
ATOM     16  C   UNL     1       5.968   3.538  12.210  0.00  0.00    +0.000 C 
ATOM     17  C   UNL     1       5.379   3.288  13.606  0.00  0.00    +0.000 C 
ENDBRANCH   2   4
ENDBRANCH   1   2
BRANCH   1  18
ATOM     18  C   UNL     1       2.273   2.292  17.891  0.00  0.00    +0.000 C 
BRANCH  18  19
ATOM     19  C   UNL     1       2.199   2.617  19.411  0.00  0.00    +0.000 C 
BRANCH  19  20
ATOM     20  C   UNL     1       0.940   3.345  19.903  0.00  0.00    +0.000 C 
BRANCH  20  21
ATOM     21  C   UNL     1       1.253   4.616  20.734  0.00  0.00    +0.000 C 
BRANCH  21  22
ATOM     22  C   UNL     1       2.499   5.372  20.266  0.00  0.00    +0.000 C 
BRANCH  22  26
ATOM     23  C   UNL     1       1.456   9.290  18.978  0.00  0.00    +0.000 A 
ATOM     24  C   UNL     1       1.223   8.895  20.292  0.00  0.00    +0.000 A 
ATOM     25  C   UNL     1       1.589   7.616  20.690  0.00  0.00    +0.000 A 
ATOM     26  N   UNL     1       2.158   6.753  19.819  0.00  0.00    +0.000 N 
ATOM     27  C   UNL     1       2.370   7.122  18.527  0.00  0.00    +0.000 A 
ATOM     28  C   UNL     1       2.016   8.391  18.080  0.00  0.00    +0.000 A 
BRANCH  23  30
ATOM     29  N   UNL     1      -0.043  11.131  18.578  0.00  0.00    +0.000 NA
ATOM     30  C   UNL     1       1.168  10.675  18.559  0.00  0.00    +0.000 C 
BRANCH  29  31
ATOM     31  O   UNL     1      -0.025  12.492  18.245  0.00  0.00    +0.000 OA
ATOM     32  H   UNL     1       0.873  12.784  18.524  0.00  0.00    +0.000 HD
ENDBRANCH  29  31
ENDBRANCH  23  30
ENDBRANCH  22  26
ENDBRANCH  21  22
ENDBRANCH  20  21
ENDBRANCH  19  20
ENDBRANCH  18  19
ENDBRANCH   1  18
TORSDOF 10
ENDMDL
MODEL 2
REMARK VINA RESULT:      -7.9      0.707      1.170
REMARK  Name = 
REMARK  10 active torsions:
REMARK  status: ('A' for Active; 'I' for Inactive)
REMARK    1  A    between atoms: O_1  and  N_2
REMARK    2  A    between atoms: C_3  and  C_4
REMARK    3  A    between atoms: N_7  and  C_8
REMARK    4  A    between atoms: C_8  and  C_9
REMARK    5  A    between atoms: C_9  and  C_10
REMARK    6  A    between atoms: C_10  and  C_11
REMARK    7  A    between atoms: C_11  and  C_12
REMARK    8  A    between atoms: C_12  and  C_13
REMARK    9  A    between atoms: C_13  and  N_14
REMARK   10  A    between atoms: N_14  and  C_15
REMARK                            x       y       z     vdW  Elec       q    Type
REMARK                         _______ _______ _______ _____ _____    ______ ____
ROOT
ATOM      1  C   UNL     1       3.069   3.170  16.669  0.00  0.00    +0.000 C 
ENDROOT
BRANCH   1   2
ATOM      2  N   UNL     1       4.516   2.970  16.762  0.00  0.00    +0.000 N 
ATOM      3  H   UNL     1       4.818   2.523  17.625  0.00  0.00    +0.000 HD
BRANCH   2   4
ATOM      4  C   UNL     1       5.470   3.926  16.283  0.00  0.00    +0.000 A 
ATOM      5  C   UNL     1       5.930   4.020  14.918  0.00  0.00    +0.000 A 
ATOM      6  C   UNL     1       6.955   4.930  14.642  0.00  0.00    +0.000 A 
ATOM      7  N   UNL     1       7.515   5.731  15.561  0.00  0.00    +0.000 NA
ATOM      8  C   UNL     1       7.154   5.646  16.817  0.00  0.00    +0.000 A 
ATOM      9  C   UNL     1       7.892   6.471  17.656  0.00  0.00    +0.000 A 
ATOM     10  C   UNL     1       7.689   6.492  19.012  0.00  0.00    +0.000 A 
ATOM     11  C   UNL     1       6.707   5.670  19.545  0.00  0.00    +0.000 A 
ATOM     12  C   UNL     1       5.948   4.826  18.702  0.00  0.00    +0.000 A 
ATOM     13  C   UNL     1       6.146   4.771  17.292  0.00  0.00    +0.000 A 
ATOM     14  C   UNL     1       7.668   5.073  13.343  0.00  0.00    +0.000 C 
ATOM     15  C   UNL     1       7.106   4.398  12.119  0.00  0.00    +0.000 C 
ATOM     16  C   UNL     1       5.949   3.451  12.332  0.00  0.00    +0.000 C 
ATOM     17  C   UNL     1       5.412   3.224  13.752  0.00  0.00    +0.000 C 
ENDBRANCH   2   4
ENDBRANCH   1   2
BRANCH   1  18
ATOM     18  C   UNL     1       2.215   2.830  17.913  0.00  0.00    +0.000 C 
BRANCH  18  19
ATOM     19  C   UNL     1       1.556   4.149  18.412  0.00  0.00    +0.000 C 
BRANCH  19  20
ATOM     20  C   UNL     1       1.297   4.266  19.921  0.00  0.00    +0.000 C 
BRANCH  20  21
ATOM     21  C   UNL     1       1.949   5.520  20.558  0.00  0.00    +0.000 C 
BRANCH  21  22
ATOM     22  C   UNL     1       2.771   6.359  19.578  0.00  0.00    +0.000 C 
BRANCH  22  26
ATOM     23  C   UNL     1       1.047  10.197  18.946  0.00  0.00    +0.000 A 
ATOM     24  C   UNL     1       1.818   9.599  17.954  0.00  0.00    +0.000 A 
ATOM     25  C   UNL     1       2.354   8.339  18.180  0.00  0.00    +0.000 A 
ATOM     26  N   UNL     1       2.143   7.693  19.349  0.00  0.00    +0.000 N 
ATOM     27  C   UNL     1       1.409   8.278  20.334  0.00  0.00    +0.000 A 
ATOM     28  C   UNL     1       0.855   9.542  20.156  0.00  0.00    +0.000 A 
BRANCH  23  30
ATOM     29  N   UNL     1      -0.905  11.594  18.756  0.00  0.00    +0.000 NA
ATOM     30  C   UNL     1       0.384  11.490  18.691  0.00  0.00    +0.000 C 
BRANCH  29  31
ATOM     31  O   UNL     1      -1.265  12.938  18.585  0.00  0.00    +0.000 OA
ATOM     32  H   UNL     1      -1.338  13.032  17.608  0.00  0.00    +0.000 HD
ENDBRANCH  29  31
ENDBRANCH  23  30
ENDBRANCH  22  26
ENDBRANCH  21  22
ENDBRANCH  20  21
ENDBRANCH  19  20
ENDBRANCH  18  19
ENDBRANCH   1  18
TORSDOF 10
ENDMDL
MODEL 3
REMARK VINA RESULT:      -7.8      4.804      8.168
REMARK  Name = 
REMARK  10 active torsions:
REMARK  status: ('A' for Active; 'I' for Inactive)
REMARK    1  A    between atoms: O_1  and  N_2
REMARK    2  A    between atoms: C_3  and  C_4
REMARK    3  A    between atoms: N_7  and  C_8
REMARK    4  A    between atoms: C_8  and  C_9
REMARK    5  A    between atoms: C_9  and  C_10
REMARK    6  A    between atoms: C_10  and  C_11
REMARK    7  A    between atoms: C_11  and  C_12
REMARK    8  A    between atoms: C_12  and  C_13
REMARK    9  A    between atoms: C_13  and  N_14
REMARK   10  A    between atoms: N_14  and  C_15
REMARK                            x       y       z     vdW  Elec       q    Type
REMARK                         _______ _______ _______ _____ _____    ______ ____
ROOT
ATOM      1  C   UNL     1       5.610   6.338  17.155  0.00  0.00    +0.000 C 
ENDROOT
BRANCH   1   2
ATOM      2  N   UNL     1       4.263   5.764  17.161  0.00  0.00    +0.000 N 
ATOM      3  H   UNL     1       3.791   5.807  16.261  0.00  0.00    +0.000 HD
BRANCH   2   4
ATOM      4  C   UNL     1       3.354   5.911  18.260  0.00  0.00    +0.000 A 
ATOM      5  C   UNL     1       2.657   7.130  18.595  0.00  0.00    +0.000 A 
ATOM      6  C   UNL     1       1.899   7.138  19.770  0.00  0.00    +0.000 A 
ATOM      7  N   UNL     1       1.766   6.081  20.584  0.00  0.00    +0.000 NA
ATOM      8  C   UNL     1       2.416   4.971  20.336  0.00  0.00    +0.000 A 
ATOM      9  C   UNL     1       2.249   4.007  21.322  0.00  0.00    +0.000 A 
ATOM     10  C   UNL     1       2.884   2.793  21.261  0.00  0.00    +0.000 A 
ATOM     11  C   UNL     1       3.702   2.530  20.172  0.00  0.00    +0.000 A 
ATOM     12  C   UNL     1       3.880   3.503  19.162  0.00  0.00    +0.000 A 
ATOM     13  C   UNL     1       3.246   4.779  19.205  0.00  0.00    +0.000 A 
ATOM     14  C   UNL     1       1.231   8.327  20.368  0.00  0.00    +0.000 C 
ATOM     15  C   UNL     1       1.103   9.586  19.551  0.00  0.00    +0.000 C 
ATOM     16  C   UNL     1       1.840   9.623  18.234  0.00  0.00    +0.000 C 
ATOM     17  C   UNL     1       2.667   8.406  17.798  0.00  0.00    +0.000 C 
ENDBRANCH   2   4
ENDBRANCH   1   2
BRANCH   1  18
ATOM     18  C   UNL     1       6.639   5.765  18.157  0.00  0.00    +0.000 C 
BRANCH  18  19
ATOM     19  C   UNL     1       7.762   6.827  18.344  0.00  0.00    +0.000 C 
BRANCH  19  20
ATOM     20  C   UNL     1       7.834   7.950  17.299  0.00  0.00    +0.000 C 
BRANCH  20  21
ATOM     21  C   UNL     1       8.031   9.356  17.925  0.00  0.00    +0.000 C 
BRANCH  21  22
ATOM     22  C   UNL     1       8.987   9.375  19.120  0.00  0.00    +0.000 C 
BRANCH  22  26
ATOM     23  C   UNL     1      11.145  13.033  19.367  0.00  0.00    +0.000 A 
ATOM     24  C   UNL     1      10.970  12.399  18.140  0.00  0.00    +0.000 A 
ATOM     25  C   UNL     1      10.247  11.216  18.086  0.00  0.00    +0.000 A 
ATOM     26  N   UNL     1       9.720  10.670  19.206  0.00  0.00    +0.000 N 
ATOM     27  C   UNL     1       9.904  11.270  20.413  0.00  0.00    +0.000 A 
ATOM     28  C   UNL     1      10.625  12.456  20.518  0.00  0.00    +0.000 A 
BRANCH  23  30
ATOM     29  N   UNL     1      11.180  15.396  19.825  0.00  0.00    +0.000 NA
ATOM     30  C   UNL     1      11.822  14.342  19.434  0.00  0.00    +0.000 C 
BRANCH  29  31
ATOM     31  O   UNL     1      12.074  16.472  19.906  0.00  0.00    +0.000 OA
ATOM     32  H   UNL     1      11.828  17.033  19.135  0.00  0.00    +0.000 HD
ENDBRANCH  29  31
ENDBRANCH  23  30
ENDBRANCH  22  26
ENDBRANCH  21  22
ENDBRANCH  20  21
ENDBRANCH  19  20
ENDBRANCH  18  19
ENDBRANCH   1  18
TORSDOF 10
ENDMDL
MODEL 4
REMARK VINA RESULT:      -7.8      3.651      6.073
REMARK  Name = 
REMARK  10 active torsions:
REMARK  status: ('A' for Active; 'I' for Inactive)
REMARK    1  A    between atoms: O_1  and  N_2
REMARK    2  A    between atoms: C_3  and  C_4
REMARK    3  A    between atoms: N_7  and  C_8
REMARK    4  A    between atoms: C_8  and  C_9
REMARK    5  A    between atoms: C_9  and  C_10
REMARK    6  A    between atoms: C_10  and  C_11
REMARK    7  A    between atoms: C_11  and  C_12
REMARK    8  A    between atoms: C_12  and  C_13
REMARK    9  A    between atoms: C_13  and  N_14
REMARK   10  A    between atoms: N_14  and  C_15
REMARK                            x       y       z     vdW  Elec       q    Type
REMARK                         _______ _______ _______ _____ _____    ______ ____
ROOT
ATOM      1  C   UNL     1       2.215   7.610  19.257  0.00  0.00    +0.000 C 
ENDROOT
BRANCH   1   2
ATOM      2  N   UNL     1       3.291   6.686  19.615  0.00  0.00    +0.000 N 
ATOM      3  H   UNL     1       4.129   7.143  19.971  0.00  0.00    +0.000 HD
BRANCH   2   4
ATOM      4  C   UNL     1       3.596   5.507  18.859  0.00  0.00    +0.000 A 
ATOM      5  C   UNL     1       4.653   5.404  17.883  0.00  0.00    +0.000 A 
ATOM      6  C   UNL     1       4.740   4.218  17.146  0.00  0.00    +0.000 A 
ATOM      7  N   UNL     1       3.917   3.172  17.309  0.00  0.00    +0.000 NA
ATOM      8  C   UNL     1       2.920   3.243  18.156  0.00  0.00    +0.000 A 
ATOM      9  C   UNL     1       2.106   2.118  18.138  0.00  0.00    +0.000 A 
ATOM     10  C   UNL     1       0.987   2.022  18.925  0.00  0.00    +0.000 A 
ATOM     11  C   UNL     1       0.680   3.081  19.766  0.00  0.00    +0.000 A 
ATOM     12  C   UNL     1       1.500   4.232  19.794  0.00  0.00    +0.000 A 
ATOM     13  C   UNL     1       2.660   4.367  18.977  0.00  0.00    +0.000 A 
ATOM     14  C   UNL     1       5.654   3.970  15.997  0.00  0.00    +0.000 C 
ATOM     15  C   UNL     1       6.781   4.935  15.734  0.00  0.00    +0.000 C 
ATOM     16  C   UNL     1       6.792   6.209  16.545  0.00  0.00    +0.000 C 
ATOM     17  C   UNL     1       5.681   6.458  17.574  0.00  0.00    +0.000 C 
ENDBRANCH   2   4
ENDBRANCH   1   2
BRANCH   1  18
ATOM     18  C   UNL     1       2.364   8.411  17.943  0.00  0.00    +0.000 C 
BRANCH  18  19
ATOM     19  C   UNL     1       1.560   9.735  18.100  0.00  0.00    +0.000 C 
BRANCH  19  20
ATOM     20  C   UNL     1       0.543   9.796  19.248  0.00  0.00    +0.000 C 
BRANCH  20  21
ATOM     21  C   UNL     1       0.290  11.236  19.766  0.00  0.00    +0.000 C 
BRANCH  21  22
ATOM     22  C   UNL     1       0.157  11.335  21.287  0.00  0.00    +0.000 C 
BRANCH  22  26
ATOM     23  C   UNL     1      -3.707  12.706  22.421  0.00  0.00    +0.000 A 
ATOM     24  C   UNL     1      -3.287  12.799  21.097  0.00  0.00    +0.000 A 
ATOM     25  C   UNL     1      -2.027  12.329  20.752  0.00  0.00    +0.000 A 
ATOM     26  N   UNL     1      -1.207  11.791  21.682  0.00  0.00    +0.000 N 
ATOM     27  C   UNL     1      -1.599  11.714  22.982  0.00  0.00    +0.000 A 
ATOM     28  C   UNL     1      -2.851  12.178  23.378  0.00  0.00    +0.000 A 
BRANCH  23  30
ATOM     29  N   UNL     1      -5.839  12.303  23.463  0.00  0.00    +0.000 NA
ATOM     30  C   UNL     1      -5.077  13.106  22.793  0.00  0.00    +0.000 C 
BRANCH  29  31
ATOM     31  O   UNL     1      -7.035  12.963  23.780  0.00  0.00    +0.000 OA
ATOM     32  H   UNL     1      -6.914  13.857  23.384  0.00  0.00    +0.000 HD
ENDBRANCH  29  31
ENDBRANCH  23  30
ENDBRANCH  22  26
ENDBRANCH  21  22
ENDBRANCH  20  21
ENDBRANCH  19  20
ENDBRANCH  18  19
ENDBRANCH   1  18
TORSDOF 10
ENDMDL
MODEL 5
REMARK VINA RESULT:      -7.7      4.168      6.827
REMARK  Name = 
REMARK  10 active torsions:
REMARK  status: ('A' for Active; 'I' for Inactive)
REMARK    1  A    between atoms: O_1  and  N_2
REMARK    2  A    between atoms: C_3  and  C_4
REMARK    3  A    between atoms: N_7  and  C_8
REMARK    4  A    between atoms: C_8  and  C_9
REMARK    5  A    between atoms: C_9  and  C_10
REMARK    6  A    between atoms: C_10  and  C_11
REMARK    7  A    between atoms: C_11  and  C_12
REMARK    8  A    between atoms: C_12  and  C_13
REMARK    9  A    between atoms: C_13  and  N_14
REMARK   10  A    between atoms: N_14  and  C_15
REMARK                            x       y       z     vdW  Elec       q    Type
REMARK                         _______ _______ _______ _____ _____    ______ ____
ROOT
ATOM      1  C   UNL     1       2.167   8.090  17.695  0.00  0.00    +0.000 C 
ENDROOT
BRANCH   1   2
ATOM      2  N   UNL     1       3.231   7.278  18.288  0.00  0.00    +0.000 N 
ATOM      3  H   UNL     1       4.131   7.750  18.341  0.00  0.00    +0.000 HD
BRANCH   2   4
ATOM      4  C   UNL     1       3.367   5.871  18.050  0.00  0.00    +0.000 A 
ATOM      5  C   UNL     1       2.762   4.836  18.853  0.00  0.00    +0.000 A 
ATOM      6  C   UNL     1       3.093   3.511  18.556  0.00  0.00    +0.000 A 
ATOM      7  N   UNL     1       3.918   3.148  17.563  0.00  0.00    +0.000 NA
ATOM      8  C   UNL     1       4.519   4.059  16.839  0.00  0.00    +0.000 A 
ATOM      9  C   UNL     1       5.411   3.526  15.917  0.00  0.00    +0.000 A 
ATOM     10  C   UNL     1       6.167   4.323  15.096  0.00  0.00    +0.000 A 
ATOM     11  C   UNL     1       6.016   5.699  15.192  0.00  0.00    +0.000 A 
ATOM     12  C   UNL     1       5.111   6.254  16.125  0.00  0.00    +0.000 A 
ATOM     13  C   UNL     1       4.324   5.453  17.001  0.00  0.00    +0.000 A 
ATOM     14  C   UNL     1       2.700   2.315  19.351  0.00  0.00    +0.000 C 
ATOM     15  C   UNL     1       1.641   2.455  20.413  0.00  0.00    +0.000 C 
ATOM     16  C   UNL     1       1.182   3.856  20.739  0.00  0.00    +0.000 C 
ATOM     17  C   UNL     1       1.800   5.046  19.991  0.00  0.00    +0.000 C 
ENDBRANCH   2   4
ENDBRANCH   1   2
BRANCH   1  18
ATOM     18  C   UNL     1       2.176   9.609  17.985  0.00  0.00    +0.000 C 
BRANCH  18  19
ATOM     19  C   UNL     1       0.702  10.061  18.197  0.00  0.00    +0.000 C 
BRANCH  19  20
ATOM     20  C   UNL     1       0.136   9.932  19.618  0.00  0.00    +0.000 C 
BRANCH  20  21
ATOM     21  C   UNL     1      -1.052  10.891  19.893  0.00  0.00    +0.000 C 
BRANCH  21  22
ATOM     22  C   UNL     1      -0.799  11.884  21.029  0.00  0.00    +0.000 C 
BRANCH  22  26
ATOM     23  C   UNL     1      -4.455  12.923  22.939  0.00  0.00    +0.000 A 
ATOM     24  C   UNL     1      -3.419  12.347  23.668  0.00  0.00    +0.000 A 
ATOM     25  C   UNL     1      -2.231  12.033  23.022  0.00  0.00    +0.000 A 
ATOM     26  N   UNL     1      -2.072  12.273  21.701  0.00  0.00    +0.000 N 
ATOM     27  C   UNL     1      -3.086  12.817  20.976  0.00  0.00    +0.000 A 
ATOM     28  C   UNL     1      -4.298  13.144  21.578  0.00  0.00    +0.000 A 
BRANCH  23  30
ATOM     29  N   UNL     1      -6.502  12.487  24.128  0.00  0.00    +0.000 NA
ATOM     30  C   UNL     1      -5.688  13.357  23.623  0.00  0.00    +0.000 C 
BRANCH  29  31
ATOM     31  O   UNL     1      -7.525  13.159  24.812  0.00  0.00    +0.000 OA
ATOM     32  H   UNL     1      -8.346  12.752  24.453  0.00  0.00    +0.000 HD
ENDBRANCH  29  31
ENDBRANCH  23  30
ENDBRANCH  22  26
ENDBRANCH  21  22
ENDBRANCH  20  21
ENDBRANCH  19  20
ENDBRANCH  18  19
ENDBRANCH   1  18
TORSDOF 10
ENDMDL
MODEL 6
REMARK VINA RESULT:      -7.7      3.787     10.000
REMARK  Name = 
REMARK  10 active torsions:
REMARK  status: ('A' for Active; 'I' for Inactive)
REMARK    1  A    between atoms: O_1  and  N_2
REMARK    2  A    between atoms: C_3  and  C_4
REMARK    3  A    between atoms: N_7  and  C_8
REMARK    4  A    between atoms: C_8  and  C_9
REMARK    5  A    between atoms: C_9  and  C_10
REMARK    6  A    between atoms: C_10  and  C_11
REMARK    7  A    between atoms: C_11  and  C_12
REMARK    8  A    between atoms: C_12  and  C_13
REMARK    9  A    between atoms: C_13  and  N_14
REMARK   10  A    between atoms: N_14  and  C_15
REMARK                            x       y       z     vdW  Elec       q    Type
REMARK                         _______ _______ _______ _____ _____    ______ ____
ROOT
ATOM      1  C   UNL     1       1.020   9.654  17.989  0.00  0.00    +0.000 C 
ENDROOT
BRANCH   1   2
ATOM      2  N   UNL     1       0.198   9.820  19.189  0.00  0.00    +0.000 N 
ATOM      3  H   UNL     1       0.038   8.957  19.704  0.00  0.00    +0.000 HD
BRANCH   2   4
ATOM      4  C   UNL     1      -0.926  10.707  19.251  0.00  0.00    +0.000 A 
ATOM      5  C   UNL     1      -1.267  11.528  20.388  0.00  0.00    +0.000 A 
ATOM      6  C   UNL     1      -2.465  12.246  20.331  0.00  0.00    +0.000 A 
ATOM      7  N   UNL     1      -3.298  12.233  19.281  0.00  0.00    +0.000 NA
ATOM      8  C   UNL     1      -3.045  11.468  18.247  0.00  0.00    +0.000 A 
ATOM      9  C   UNL     1      -4.049  11.494  17.288  0.00  0.00    +0.000 A 
ATOM     10  C   UNL     1      -3.985  10.727  16.153  0.00  0.00    +0.000 A 
ATOM     11  C   UNL     1      -2.874   9.917  15.966  0.00  0.00    +0.000 A 
ATOM     12  C   UNL     1      -1.846   9.882  16.935  0.00  0.00    +0.000 A 
ATOM     13  C   UNL     1      -1.891  10.656  18.131  0.00  0.00    +0.000 A 
ATOM     14  C   UNL     1      -3.068  13.027  21.446  0.00  0.00    +0.000 C 
ATOM     15  C   UNL     1      -2.237  13.323  22.668  0.00  0.00    +0.000 C 
ATOM     16  C   UNL     1      -0.896  12.635  22.765  0.00  0.00    +0.000 C 
ATOM     17  C   UNL     1      -0.451  11.688  21.642  0.00  0.00    +0.000 C 
ENDBRANCH   2   4
ENDBRANCH   1   2
BRANCH   1  18
ATOM     18  C   UNL     1       2.431   9.046  18.163  0.00  0.00    +0.000 C 
BRANCH  18  19
ATOM     19  C   UNL     1       2.276   7.499  18.233  0.00  0.00    +0.000 C 
BRANCH  19  20
ATOM     20  C   UNL     1       2.376   6.855  19.624  0.00  0.00    +0.000 C 
BRANCH  20  21
ATOM     21  C   UNL     1       2.082   5.332  19.616  0.00  0.00    +0.000 C 
BRANCH  21  22
ATOM     22  C   UNL     1       3.305   4.463  19.911  0.00  0.00    +0.000 C 
BRANCH  22  26
ATOM     23  C   UNL     1       6.162   4.606  16.762  0.00  0.00    +0.000 A 
ATOM     24  C   UNL     1       4.837   4.271  16.496  0.00  0.00    +0.000 A 
ATOM     25  C   UNL     1       3.923   4.249  17.540  0.00  0.00    +0.000 A 
ATOM     26  N   UNL     1       4.303   4.539  18.805  0.00  0.00    +0.000 N 
ATOM     27  C   UNL     1       5.600   4.846  19.078  0.00  0.00    +0.000 A 
ATOM     28  C   UNL     1       6.554   4.876  18.066  0.00  0.00    +0.000 A 
BRANCH  23  30
ATOM     29  N   UNL     1       6.841   5.436  14.606  0.00  0.00    +0.000 NA
ATOM     30  C   UNL     1       7.129   4.734  15.655  0.00  0.00    +0.000 C 
BRANCH  29  31
ATOM     31  O   UNL     1       7.962   5.487  13.767  0.00  0.00    +0.000 OA
ATOM     32  H   UNL     1       7.772   6.252  13.177  0.00  0.00    +0.000 HD
ENDBRANCH  29  31
ENDBRANCH  23  30
ENDBRANCH  22  26
ENDBRANCH  21  22
ENDBRANCH  20  21
ENDBRANCH  19  20
ENDBRANCH  18  19
ENDBRANCH   1  18
TORSDOF 10
ENDMDL
MODEL 7
REMARK VINA RESULT:      -7.6      3.320      6.375
REMARK  Name = 
REMARK  10 active torsions:
REMARK  status: ('A' for Active; 'I' for Inactive)
REMARK    1  A    between atoms: O_1  and  N_2
REMARK    2  A    between atoms: C_3  and  C_4
REMARK    3  A    between atoms: N_7  and  C_8
REMARK    4  A    between atoms: C_8  and  C_9
REMARK    5  A    between atoms: C_9  and  C_10
REMARK    6  A    between atoms: C_10  and  C_11
REMARK    7  A    between atoms: C_11  and  C_12
REMARK    8  A    between atoms: C_12  and  C_13
REMARK    9  A    between atoms: C_13  and  N_14
REMARK   10  A    between atoms: N_14  and  C_15
REMARK                            x       y       z     vdW  Elec       q    Type
REMARK                         _______ _______ _______ _____ _____    ______ ____
ROOT
ATOM      1  C   UNL     1       2.236   8.480  17.762  0.00  0.00    +0.000 C 
ENDROOT
BRANCH   1   2
ATOM      2  N   UNL     1       2.725   7.491  18.724  0.00  0.00    +0.000 N 
ATOM      3  H   UNL     1       3.407   7.858  19.385  0.00  0.00    +0.000 HD
BRANCH   2   4
ATOM      4  C   UNL     1       2.983   6.124  18.380  0.00  0.00    +0.000 A 
ATOM      5  C   UNL     1       2.492   4.982  19.113  0.00  0.00    +0.000 A 
ATOM      6  C   UNL     1       2.936   3.718  18.713  0.00  0.00    +0.000 A 
ATOM      7  N   UNL     1       3.767   3.506  17.683  0.00  0.00    +0.000 NA
ATOM      8  C   UNL     1       4.267   4.519  17.019  0.00  0.00    +0.000 A 
ATOM      9  C   UNL     1       5.183   4.139  16.047  0.00  0.00    +0.000 A 
ATOM     10  C   UNL     1       5.845   5.060  15.276  0.00  0.00    +0.000 A 
ATOM     11  C   UNL     1       5.571   6.405  15.476  0.00  0.00    +0.000 A 
ATOM     12  C   UNL     1       4.641   6.805  16.462  0.00  0.00    +0.000 A 
ATOM     13  C   UNL     1       3.950   5.873  17.288  0.00  0.00    +0.000 A 
ATOM     14  C   UNL     1       2.670   2.436  19.422  0.00  0.00    +0.000 C 
ATOM     15  C   UNL     1       1.628   2.401  20.509  0.00  0.00    +0.000 C 
ATOM     16  C   UNL     1       1.050   3.726  20.945  0.00  0.00    +0.000 C 
ATOM     17  C   UNL     1       1.541   5.019  20.278  0.00  0.00    +0.000 C 
ENDBRANCH   2   4
ENDBRANCH   1   2
BRANCH   1  18
ATOM     18  C   UNL     1       1.491   9.716  18.317  0.00  0.00    +0.000 C 
BRANCH  18  19
ATOM     19  C   UNL     1       1.067   9.398  19.781  0.00  0.00    +0.000 C 
BRANCH  19  20
ATOM     20  C   UNL     1      -0.221  10.063  20.289  0.00  0.00    +0.000 C 
BRANCH  20  21
ATOM     21  C   UNL     1      -0.602  11.341  19.498  0.00  0.00    +0.000 C 
BRANCH  21  22
ATOM     22  C   UNL     1      -2.107  11.515  19.288  0.00  0.00    +0.000 C 
BRANCH  22  26
ATOM     23  C   UNL     1      -3.356  10.054  15.492  0.00  0.00    +0.000 A 
ATOM     24  C   UNL     1      -4.070  11.065  16.128  0.00  0.00    +0.000 A 
ATOM     25  C   UNL     1      -3.631  11.535  17.357  0.00  0.00    +0.000 A 
ATOM     26  N   UNL     1      -2.528  11.019  17.945  0.00  0.00    +0.000 N 
ATOM     27  C   UNL     1      -1.835  10.015  17.343  0.00  0.00    +0.000 A 
ATOM     28  C   UNL     1      -2.240   9.508  16.112  0.00  0.00    +0.000 A 
BRANCH  23  30
ATOM     29  N   UNL     1      -3.588  10.389  13.120  0.00  0.00    +0.000 NA
ATOM     30  C   UNL     1      -3.745   9.609  14.141  0.00  0.00    +0.000 C 
BRANCH  29  31
ATOM     31  O   UNL     1      -3.927   9.691  11.953  0.00  0.00    +0.000 OA
ATOM     32  H   UNL     1      -4.470  10.338  11.448  0.00  0.00    +0.000 HD
ENDBRANCH  29  31
ENDBRANCH  23  30
ENDBRANCH  22  26
ENDBRANCH  21  22
ENDBRANCH  20  21
ENDBRANCH  19  20
ENDBRANCH  18  19
ENDBRANCH   1  18
TORSDOF 10
ENDMDL
MODEL 8
REMARK VINA RESULT:      -7.6      3.014      6.044
REMARK  Name = 
REMARK  10 active torsions:
REMARK  status: ('A' for Active; 'I' for Inactive)
REMARK    1  A    between atoms: O_1  and  N_2
REMARK    2  A    between atoms: C_3  and  C_4
REMARK    3  A    between atoms: N_7  and  C_8
REMARK    4  A    between atoms: C_8  and  C_9
REMARK    5  A    between atoms: C_9  and  C_10
REMARK    6  A    between atoms: C_10  and  C_11
REMARK    7  A    between atoms: C_11  and  C_12
REMARK    8  A    between atoms: C_12  and  C_13
REMARK    9  A    between atoms: C_13  and  N_14
REMARK   10  A    between atoms: N_14  and  C_15
REMARK                            x       y       z     vdW  Elec       q    Type
REMARK                         _______ _______ _______ _____ _____    ______ ____
ROOT
ATOM      1  C   UNL     1       1.962   7.866  19.760  0.00  0.00    +0.000 C 
ENDROOT
BRANCH   1   2
ATOM      2  N   UNL     1       3.100   6.948  19.692  0.00  0.00    +0.000 N 
ATOM      3  H   UNL     1       4.007   7.408  19.741  0.00  0.00    +0.000 HD
BRANCH   2   4
ATOM      4  C   UNL     1       3.123   5.790  18.848  0.00  0.00    +0.000 A 
ATOM      5  C   UNL     1       2.392   4.571  19.100  0.00  0.00    +0.000 A 
ATOM      6  C   UNL     1       2.619   3.492  18.240  0.00  0.00    +0.000 A 
ATOM      7  N   UNL     1       3.452   3.531  17.191  0.00  0.00    +0.000 NA
ATOM      8  C   UNL     1       4.164   4.605  16.954  0.00  0.00    +0.000 A 
ATOM      9  C   UNL     1       5.046   4.453  15.892  0.00  0.00    +0.000 A 
ATOM     10  C   UNL     1       5.906   5.454  15.517  0.00  0.00    +0.000 A 
ATOM     11  C   UNL     1       5.873   6.650  16.220  0.00  0.00    +0.000 A 
ATOM     12  C   UNL     1       4.979   6.816  17.302  0.00  0.00    +0.000 A 
ATOM     13  C   UNL     1       4.085   5.790  17.724  0.00  0.00    +0.000 A 
ATOM     14  C   UNL     1       2.085   2.112  18.413  0.00  0.00    +0.000 C 
ATOM     15  C   UNL     1       0.996   1.868  19.425  0.00  0.00    +0.000 C 
ATOM     16  C   UNL     1       0.648   3.014  20.345  0.00  0.00    +0.000 C 
ATOM     17  C   UNL     1       1.402   4.344  20.210  0.00  0.00    +0.000 C 
ENDBRANCH   2   4
ENDBRANCH   1   2
BRANCH   1  18
ATOM     18  C   UNL     1       1.211   7.981  21.106  0.00  0.00    +0.000 C 
BRANCH  18  19
ATOM     19  C   UNL     1       0.239   9.193  21.006  0.00  0.00    +0.000 C 
BRANCH  19  20
ATOM     20  C   UNL     1       0.877  10.587  20.925  0.00  0.00    +0.000 C 
BRANCH  20  21
ATOM     21  C   UNL     1       0.634  11.293  19.566  0.00  0.00    +0.000 C 
BRANCH  21  22
ATOM     22  C   UNL     1       0.118  10.362  18.467  0.00  0.00    +0.000 C 
BRANCH  22  26
ATOM     23  C   UNL     1      -4.001  11.060  17.662  0.00  0.00    +0.000 A 
ATOM     24  C   UNL     1      -3.363  11.727  18.703  0.00  0.00    +0.000 A 
ATOM     25  C   UNL     1      -2.015  11.493  18.933  0.00  0.00    +0.000 A 
ATOM     26  N   UNL     1      -1.319  10.624  18.166  0.00  0.00    +0.000 N 
ATOM     27  C   UNL     1      -1.937   9.951  17.159  0.00  0.00    +0.000 A 
ATOM     28  C   UNL     1      -3.289  10.148  16.893  0.00  0.00    +0.000 A 
BRANCH  23  30
ATOM     29  N   UNL     1      -5.781  12.587  17.119  0.00  0.00    +0.000 NA
ATOM     30  C   UNL     1      -5.406  11.367  17.335  0.00  0.00    +0.000 C 
BRANCH  29  31
ATOM     31  O   UNL     1      -7.125  12.590  16.723  0.00  0.00    +0.000 OA
ATOM     32  H   UNL     1      -7.614  12.504  17.573  0.00  0.00    +0.000 HD
ENDBRANCH  29  31
ENDBRANCH  23  30
ENDBRANCH  22  26
ENDBRANCH  21  22
ENDBRANCH  20  21
ENDBRANCH  19  20
ENDBRANCH  18  19
ENDBRANCH   1  18
TORSDOF 10
ENDMDL
MODEL 9
REMARK VINA RESULT:      -7.6      3.676      6.086
REMARK  Name = 
REMARK  10 active torsions:
REMARK  status: ('A' for Active; 'I' for Inactive)
REMARK    1  A    between atoms: O_1  and  N_2
REMARK    2  A    between atoms: C_3  and  C_4
REMARK    3  A    between atoms: N_7  and  C_8
REMARK    4  A    between atoms: C_8  and  C_9
REMARK    5  A    between atoms: C_9  and  C_10
REMARK    6  A    between atoms: C_10  and  C_11
REMARK    7  A    between atoms: C_11  and  C_12
REMARK    8  A    between atoms: C_12  and  C_13
REMARK    9  A    between atoms: C_13  and  N_14
REMARK   10  A    between atoms: N_14  and  C_15
REMARK                            x       y       z     vdW  Elec       q    Type
REMARK                         _______ _______ _______ _____ _____    ______ ____
ROOT
ATOM      1  C   UNL     1       2.061   7.597  18.726  0.00  0.00    +0.000 C 
ENDROOT
BRANCH   1   2
ATOM      2  N   UNL     1       3.154   6.767  19.233  0.00  0.00    +0.000 N 
ATOM      3  H   UNL     1       3.938   7.298  19.607  0.00  0.00    +0.000 HD
BRANCH   2   4
ATOM      4  C   UNL     1       3.575   5.552  18.600  0.00  0.00    +0.000 A 
ATOM      5  C   UNL     1       4.690   5.439  17.690  0.00  0.00    +0.000 A 
ATOM      6  C   UNL     1       4.891   4.204  17.066  0.00  0.00    +0.000 A 
ATOM      7  N   UNL     1       4.129   3.122  17.278  0.00  0.00    +0.000 NA
ATOM      8  C   UNL     1       3.083   3.196  18.064  0.00  0.00    +0.000 A 
ATOM      9  C   UNL     1       2.343   2.021  18.104  0.00  0.00    +0.000 A 
ATOM     10  C   UNL     1       1.191   1.917  18.839  0.00  0.00    +0.000 A 
ATOM     11  C   UNL     1       0.771   3.020  19.568  0.00  0.00    +0.000 A 
ATOM     12  C   UNL     1       1.514   4.221  19.535  0.00  0.00    +0.000 A 
ATOM     13  C   UNL     1       2.707   4.365  18.770  0.00  0.00    +0.000 A 
ATOM     14  C   UNL     1       5.883   3.922  15.991  0.00  0.00    +0.000 C 
ATOM     15  C   UNL     1       6.959   4.935  15.701  0.00  0.00    +0.000 C 
ATOM     16  C   UNL     1       6.845   6.271  16.396  0.00  0.00    +0.000 C 
ATOM     17  C   UNL     1       5.665   6.530  17.343  0.00  0.00    +0.000 C 
ENDBRANCH   2   4
ENDBRANCH   1   2
BRANCH   1  18
ATOM     18  C   UNL     1       2.425   8.767  17.782  0.00  0.00    +0.000 C 
BRANCH  18  19
ATOM     19  C   UNL     1       1.568   9.997  18.199  0.00  0.00    +0.000 C 
BRANCH  19  20
ATOM     20  C   UNL     1       0.582   9.795  19.359  0.00  0.00    +0.000 C 
BRANCH  20  21
ATOM     21  C   UNL     1      -0.850  10.295  19.039  0.00  0.00    +0.000 C 
BRANCH  21  22
ATOM     22  C   UNL     1      -1.013  11.813  19.135  0.00  0.00    +0.000 C 
BRANCH  22  26
ATOM     23  C   UNL     1      -3.854  12.802  22.143  0.00  0.00    +0.000 A 
ATOM     24  C   UNL     1      -2.559  12.433  22.492  0.00  0.00    +0.000 A 
ATOM     25  C   UNL     1      -1.648  12.132  21.489  0.00  0.00    +0.000 A 
ATOM     26  N   UNL     1      -2.004  12.186  20.186  0.00  0.00    +0.000 N 
ATOM     27  C   UNL     1      -3.274  12.525  19.835  0.00  0.00    +0.000 A 
ATOM     28  C   UNL     1      -4.224  12.831  20.805  0.00  0.00    +0.000 A 
BRANCH  23  30
ATOM     29  N   UNL     1      -5.754  12.428  23.574  0.00  0.00    +0.000 NA
ATOM     30  C   UNL     1      -4.810  13.224  23.185  0.00  0.00    +0.000 C 
BRANCH  29  31
ATOM     31  O   UNL     1      -6.443  13.022  24.640  0.00  0.00    +0.000 OA
ATOM     32  H   UNL     1      -6.942  12.271  25.037  0.00  0.00    +0.000 HD
ENDBRANCH  29  31
ENDBRANCH  23  30
ENDBRANCH  22  26
ENDBRANCH  21  22
ENDBRANCH  20  21
ENDBRANCH  19  20
ENDBRANCH  18  19
ENDBRANCH   1  18
TORSDOF 10
ENDMDL
