MODEL 1
REMARK VINA RESULT:      -6.6      0.000      0.000
REMARK  Name = 
REMARK  11 active torsions:
REMARK  status: ('A' for Active; 'I' for Inactive)
REMARK    1  A    between atoms: C_1  and  C_2
REMARK    2  A    between atoms: C_2  and  N_3
REMARK    3  A    between atoms: C_2  and  C_8
REMARK    4  A    between atoms: N_3  and  C_4
REMARK    5  A    between atoms: C_4  and  C_5
REMARK    6  A    between atoms: C_4  and  C_6
REMARK    7  A    between atoms: C_4  and  C_7
REMARK    8  A    between atoms: C_8  and  O_9
REMARK    9  A    between atoms: C_8  and  C_10
REMARK   10  A    between atoms: C_10  and  O_11
REMARK   11  A    between atoms: O_11  and  C_12
REMARK                            x       y       z     vdW  Elec       q    Type
REMARK                         _______ _______ _______ _____ _____    ______ ____
ROOT
ATOM      1  C   UNL     1       7.131   5.178  18.558  0.00  0.00    +0.000 C 
ENDROOT
BRANCH   1   3
ATOM      2  C   UNL     1       7.884   7.433  17.772  0.00  0.00    +0.000 C 
ATOM      3  C   UNL     1       7.061   6.198  17.366  0.00  0.00    +0.000 C 
BRANCH   3   4
ATOM      4  N   UNL     1       7.501   5.629  16.072  0.00  0.00    +0.000 NA
ATOM      5  H   UNL     1       8.206   4.910  16.250  0.00  0.00    +0.000 HD
BRANCH   4   6
ATOM      6  C   UNL     1       6.500   5.024  15.158  0.00  0.00    +0.000 C 
ATOM      7  C   UNL     1       5.240   5.886  14.975  0.00  0.00    +0.000 C 
ATOM      8  C   UNL     1       7.164   4.939  13.761  0.00  0.00    +0.000 C 
ATOM      9  C   UNL     1       6.116   3.595  15.578  0.00  0.00    +0.000 C 
ENDBRANCH   4   6
ENDBRANCH   3   4
ENDBRANCH   1   3
BRANCH   1  10
ATOM     10  O   UNL     1       8.325   5.440  19.327  0.00  0.00    +0.000 OA
ATOM     11  H   UNL     1       9.060   5.583  18.707  0.00  0.00    +0.000 HD
ENDBRANCH   1  10
BRANCH   1  12
ATOM     12  C   UNL     1       5.920   5.226  19.505  0.00  0.00    +0.000 C 
BRANCH  12  13
ATOM     13  O   UNL     1       4.752   5.571  18.747  0.00  0.00    +0.000 OA
BRANCH  13  14
ATOM     14  C   UNL     1       3.536   5.243  19.295  0.00  0.00    +0.000 A 
ATOM     15  C   UNL     1       2.844   6.067  20.196  0.00  0.00    +0.000 A 
ATOM     16  C   UNL     1       1.592   5.711  20.679  0.00  0.00    +0.000 A 
ATOM     17  C   UNL     1       0.990   4.522  20.276  0.00  0.00    +0.000 A 
ATOM     18  C   UNL     1       1.672   3.689  19.370  0.00  0.00    +0.000 A 
ATOM     19  S   UNL     1       1.111   2.190  18.732  0.00  0.00    +0.000 S 
ATOM     20  C   UNL     1       2.518   1.975  17.796  0.00  0.00    +0.000 A 
ATOM     21  C   UNL     1       3.402   3.015  17.954  0.00  0.00    +0.000 A 
ATOM     22  C   UNL     1       2.933   4.026  18.868  0.00  0.00    +0.000 A 
ENDBRANCH  13  14
ENDBRANCH  12  13
ENDBRANCH   1  12
TORSDOF 7
ENDMDL
MODEL 2
REMARK VINA RESULT:      -6.4      0.317      1.037
REMARK  Name = 
REMARK  11 active torsions:
REMARK  status: ('A' for Active; 'I' for Inactive)
REMARK    1  A    between atoms: C_1  and  C_2
REMARK    2  A    between atoms: C_2  and  N_3
REMARK    3  A    between atoms: C_2  and  C_8
REMARK    4  A    between atoms: N_3  and  C_4
REMARK    5  A    between atoms: C_4  and  C_5
REMARK    6  A    between atoms: C_4  and  C_6
REMARK    7  A    between atoms: C_4  and  C_7
REMARK    8  A    between atoms: C_8  and  O_9
REMARK    9  A    between atoms: C_8  and  C_10
REMARK   10  A    between atoms: C_10  and  O_11
REMARK   11  A    between atoms: O_11  and  C_12
REMARK                            x       y       z     vdW  Elec       q    Type
REMARK                         _______ _______ _______ _____ _____    ______ ____
ROOT
ATOM      1  C   UNL     1       6.867   5.115  18.455  0.00  0.00    +0.000 C 
ENDROOT
BRANCH   1   3
ATOM      2  C   UNL     1       7.978   7.280  17.864  0.00  0.00    +0.000 C 
ATOM      3  C   UNL     1       7.047   6.184  17.318  0.00  0.00    +0.000 C 
BRANCH   3   4
ATOM      4  N   UNL     1       7.535   5.616  16.041  0.00  0.00    +0.000 NA
ATOM      5  H   UNL     1       8.227   4.891  16.245  0.00  0.00    +0.000 HD
BRANCH   4   6
ATOM      6  C   UNL     1       6.568   5.019  15.086  0.00  0.00    +0.000 C 
ATOM      7  C   UNL     1       6.145   3.588  15.459  0.00  0.00    +0.000 C 
ATOM      8  C   UNL     1       5.280   5.876  15.160  0.00  0.00    +0.000 C 
ATOM      9  C   UNL     1       7.076   5.065  13.636  0.00  0.00    +0.000 C 
ENDBRANCH   4   6
ENDBRANCH   3   4
ENDBRANCH   1   3
BRANCH   1  10
ATOM     10  O   UNL     1       8.132   4.932  19.128  0.00  0.00    +0.000 OA
ATOM     11  H   UNL     1       8.548   4.126  18.778  0.00  0.00    +0.000 HD
ENDBRANCH   1  10
BRANCH   1  12
ATOM     12  C   UNL     1       5.803   5.478  19.504  0.00  0.00    +0.000 C 
BRANCH  12  13
ATOM     13  O   UNL     1       4.586   5.826  18.829  0.00  0.00    +0.000 OA
BRANCH  13  14
ATOM     14  C   UNL     1       3.420   5.320  19.350  0.00  0.00    +0.000 A 
ATOM     15  C   UNL     1       2.553   6.057  20.172  0.00  0.00    +0.000 A 
ATOM     16  C   UNL     1       1.361   5.512  20.627  0.00  0.00    +0.000 A 
ATOM     17  C   UNL     1       0.993   4.216  20.275  0.00  0.00    +0.000 A 
ATOM     18  C   UNL     1       1.851   3.469  19.449  0.00  0.00    +0.000 A 
ATOM     19  S   UNL     1       1.590   1.863  18.882  0.00  0.00    +0.000 S 
ATOM     20  C   UNL     1       3.055   1.848  18.015  0.00  0.00    +0.000 A 
ATOM     21  C   UNL     1       3.738   3.034  18.143  0.00  0.00    +0.000 A 
ATOM     22  C   UNL     1       3.058   3.995  18.976  0.00  0.00    +0.000 A 
ENDBRANCH  13  14
ENDBRANCH  12  13
ENDBRANCH   1  12
TORSDOF 7
ENDMDL
MODEL 3
REMARK VINA RESULT:      -6.2      3.139      5.087
REMARK  Name = 
REMARK  11 active torsions:
REMARK  status: ('A' for Active; 'I' for Inactive)
REMARK    1  A    between atoms: C_1  and  C_2
REMARK    2  A    between atoms: C_2  and  N_3
REMARK    3  A    between atoms: C_2  and  C_8
REMARK    4  A    between atoms: N_3  and  C_4
REMARK    5  A    between atoms: C_4  and  C_5
REMARK    6  A    between atoms: C_4  and  C_6
REMARK    7  A    between atoms: C_4  and  C_7
REMARK    8  A    between atoms: C_8  and  O_9
REMARK    9  A    between atoms: C_8  and  C_10
REMARK   10  A    between atoms: C_10  and  O_11
REMARK   11  A    between atoms: O_11  and  C_12
REMARK                            x       y       z     vdW  Elec       q    Type
REMARK                         _______ _______ _______ _____ _____    ______ ____
ROOT
ATOM      1  C   UNL     1       2.736   4.435  18.071  0.00  0.00    +0.000 C 
ENDROOT
BRANCH   1   3
ATOM      2  C   UNL     1       3.530   2.064  18.205  0.00  0.00    +0.000 C 
ATOM      3  C   UNL     1       3.992   3.527  18.324  0.00  0.00    +0.000 C 
BRANCH   3   4
ATOM      4  N   UNL     1       5.134   3.831  17.432  0.00  0.00    +0.000 NA
ATOM      5  H   UNL     1       4.779   4.001  16.488  0.00  0.00    +0.000 HD
BRANCH   4   6
ATOM      6  C   UNL     1       6.036   4.964  17.755  0.00  0.00    +0.000 C 
ATOM      7  C   UNL     1       6.102   5.284  19.258  0.00  0.00    +0.000 C 
ATOM      8  C   UNL     1       7.466   4.527  17.351  0.00  0.00    +0.000 C 
ATOM      9  C   UNL     1       5.693   6.230  16.953  0.00  0.00    +0.000 C 
ENDBRANCH   4   6
ENDBRANCH   3   4
ENDBRANCH   1   3
BRANCH   1  10
ATOM     10  O   UNL     1       1.754   3.678  17.331  0.00  0.00    +0.000 OA
ATOM     11  H   UNL     1       2.175   3.347  16.520  0.00  0.00    +0.000 HD
ENDBRANCH   1  10
BRANCH   1  12
ATOM     12  C   UNL     1       2.075   4.974  19.351  0.00  0.00    +0.000 C 
BRANCH  12  13
ATOM     13  O   UNL     1       2.786   6.142  19.783  0.00  0.00    +0.000 OA
BRANCH  13  14
ATOM     14  C   UNL     1       2.357   7.349  19.285  0.00  0.00    +0.000 A 
ATOM     15  C   UNL     1       2.629   7.790  17.981  0.00  0.00    +0.000 A 
ATOM     16  C   UNL     1       2.126   8.996  17.512  0.00  0.00    +0.000 A 
ATOM     17  C   UNL     1       1.334   9.799  18.328  0.00  0.00    +0.000 A 
ATOM     18  C   UNL     1       1.052   9.366  19.636  0.00  0.00    +0.000 A 
ATOM     19  S   UNL     1       0.089  10.189  20.805  0.00  0.00    +0.000 S 
ATOM     20  C   UNL     1       0.314   8.964  21.966  0.00  0.00    +0.000 A 
ATOM     21  C   UNL     1       1.100   7.943  21.487  0.00  0.00    +0.000 A 
ATOM     22  C   UNL     1       1.545   8.155  20.133  0.00  0.00    +0.000 A 
ENDBRANCH  13  14
ENDBRANCH  12  13
ENDBRANCH   1  12
TORSDOF 7
ENDMDL
MODEL 4
REMARK VINA RESULT:      -6.1      2.236      3.092
REMARK  Name = 
REMARK  11 active torsions:
REMARK  status: ('A' for Active; 'I' for Inactive)
REMARK    1  A    between atoms: C_1  and  C_2
REMARK    2  A    between atoms: C_2  and  N_3
REMARK    3  A    between atoms: C_2  and  C_8
REMARK    4  A    between atoms: N_3  and  C_4
REMARK    5  A    between atoms: C_4  and  C_5
REMARK    6  A    between atoms: C_4  and  C_6
REMARK    7  A    between atoms: C_4  and  C_7
REMARK    8  A    between atoms: C_8  and  O_9
REMARK    9  A    between atoms: C_8  and  C_10
REMARK   10  A    between atoms: C_10  and  O_11
REMARK   11  A    between atoms: O_11  and  C_12
REMARK                            x       y       z     vdW  Elec       q    Type
REMARK                         _______ _______ _______ _____ _____    ______ ____
ROOT
ATOM      1  C   UNL     1       5.114   4.277  15.749  0.00  0.00    +0.000 C 
ENDROOT
BRANCH   1   3
ATOM      2  C   UNL     1       7.330   4.984  14.823  0.00  0.00    +0.000 C 
ATOM      3  C   UNL     1       5.963   4.398  14.433  0.00  0.00    +0.000 C 
BRANCH   3   4
ATOM      4  N   UNL     1       6.087   3.125  13.688  0.00  0.00    +0.000 NA
ATOM      5  H   UNL     1       5.376   2.474  14.026  0.00  0.00    +0.000 HD
BRANCH   4   6
ATOM      6  C   UNL     1       5.986   3.129  12.207  0.00  0.00    +0.000 C 
ATOM      7  C   UNL     1       6.084   1.726  11.584  0.00  0.00    +0.000 C 
ATOM      8  C   UNL     1       4.571   3.652  11.856  0.00  0.00    +0.000 C 
ATOM      9  C   UNL     1       7.008   4.075  11.555  0.00  0.00    +0.000 C 
ENDBRANCH   4   6
ENDBRANCH   3   4
ENDBRANCH   1   3
BRANCH   1  10
ATOM     10  O   UNL     1       5.651   3.206  16.554  0.00  0.00    +0.000 OA
ATOM     11  H   UNL     1       6.608   3.154  16.391  0.00  0.00    +0.000 HD
ENDBRANCH   1  10
BRANCH   1  12
ATOM     12  C   UNL     1       5.078   5.558  16.600  0.00  0.00    +0.000 C 
BRANCH  12  13
ATOM     13  O   UNL     1       5.197   5.198  17.984  0.00  0.00    +0.000 OA
BRANCH  13  14
ATOM     14  C   UNL     1       4.105   5.437  18.784  0.00  0.00    +0.000 A 
ATOM     15  C   UNL     1       3.377   6.636  18.764  0.00  0.00    +0.000 A 
ATOM     16  C   UNL     1       2.249   6.804  19.556  0.00  0.00    +0.000 A 
ATOM     17  C   UNL     1       1.812   5.779  20.391  0.00  0.00    +0.000 A 
ATOM     18  C   UNL     1       2.531   4.571  20.417  0.00  0.00    +0.000 A 
ATOM     19  S   UNL     1       2.161   3.176  21.359  0.00  0.00    +0.000 S 
ATOM     20  C   UNL     1       3.491   2.311  20.738  0.00  0.00    +0.000 A 
ATOM     21  C   UNL     1       4.207   3.054  19.830  0.00  0.00    +0.000 A 
ATOM     22  C   UNL     1       3.669   4.376  19.628  0.00  0.00    +0.000 A 
ENDBRANCH  13  14
ENDBRANCH  12  13
ENDBRANCH   1  12
TORSDOF 7
ENDMDL
MODEL 5
REMARK VINA RESULT:      -6.1      0.972      2.329
REMARK  Name = 
REMARK  11 active torsions:
REMARK  status: ('A' for Active; 'I' for Inactive)
REMARK    1  A    between atoms: C_1  and  C_2
REMARK    2  A    between atoms: C_2  and  N_3
REMARK    3  A    between atoms: C_2  and  C_8
REMARK    4  A    between atoms: N_3  and  C_4
REMARK    5  A    between atoms: C_4  and  C_5
REMARK    6  A    between atoms: C_4  and  C_6
REMARK    7  A    between atoms: C_4  and  C_7
REMARK    8  A    between atoms: C_8  and  O_9
REMARK    9  A    between atoms: C_8  and  C_10
REMARK   10  A    between atoms: C_10  and  O_11
REMARK   11  A    between atoms: O_11  and  C_12
REMARK                            x       y       z     vdW  Elec       q    Type
REMARK                         _______ _______ _______ _____ _____    ______ ____
ROOT
ATOM      1  C   UNL     1       7.149   5.355  18.619  0.00  0.00    +0.000 C 
ENDROOT
BRANCH   1   3
ATOM      2  C   UNL     1       7.640   7.464  17.361  0.00  0.00    +0.000 C 
ATOM      3  C   UNL     1       7.013   6.065  17.225  0.00  0.00    +0.000 C 
BRANCH   3   4
ATOM      4  N   UNL     1       7.598   5.293  16.105  0.00  0.00    +0.000 NA
ATOM      5  H   UNL     1       7.931   4.395  16.462  0.00  0.00    +0.000 HD
BRANCH   4   6
ATOM      6  C   UNL     1       6.770   4.992  14.910  0.00  0.00    +0.000 C 
ATOM      7  C   UNL     1       6.238   3.549  14.883  0.00  0.00    +0.000 C 
ATOM      8  C   UNL     1       5.521   5.904  14.990  0.00  0.00    +0.000 C 
ATOM      9  C   UNL     1       7.501   5.318  13.597  0.00  0.00    +0.000 C 
ENDBRANCH   4   6
ENDBRANCH   3   4
ENDBRANCH   1   3
BRANCH   1  10
ATOM     10  O   UNL     1       8.109   6.078  19.420  0.00  0.00    +0.000 OA
ATOM     11  H   UNL     1       7.635   6.493  20.159  0.00  0.00    +0.000 HD
ENDBRANCH   1  10
BRANCH   1  12
ATOM     12  C   UNL     1       5.833   5.250  19.408  0.00  0.00    +0.000 C 
BRANCH  12  13
ATOM     13  O   UNL     1       4.737   5.497  18.517  0.00  0.00    +0.000 OA
BRANCH  13  14
ATOM     14  C   UNL     1       3.835   4.475  18.343  0.00  0.00    +0.000 A 
ATOM     15  C   UNL     1       3.722   3.733  17.157  0.00  0.00    +0.000 A 
ATOM     16  C   UNL     1       2.830   2.675  17.055  0.00  0.00    +0.000 A 
ATOM     17  C   UNL     1       2.023   2.323  18.133  0.00  0.00    +0.000 A 
ATOM     18  C   UNL     1       2.129   3.056  19.328  0.00  0.00    +0.000 A 
ATOM     19  S   UNL     1       1.243   2.785  20.782  0.00  0.00    +0.000 S 
ATOM     20  C   UNL     1       2.024   4.067  21.587  0.00  0.00    +0.000 A 
ATOM     21  C   UNL     1       2.943   4.694  20.780  0.00  0.00    +0.000 A 
ATOM     22  C   UNL     1       3.021   4.125  19.458  0.00  0.00    +0.000 A 
ENDBRANCH  13  14
ENDBRANCH  12  13
ENDBRANCH   1  12
TORSDOF 7
ENDMDL
MODEL 6
REMARK VINA RESULT:      -6.0      1.000      2.277
REMARK  Name = 
REMARK  11 active torsions:
REMARK  status: ('A' for Active; 'I' for Inactive)
REMARK    1  A    between atoms: C_1  and  C_2
REMARK    2  A    between atoms: C_2  and  N_3
REMARK    3  A    between atoms: C_2  and  C_8
REMARK    4  A    between atoms: N_3  and  C_4
REMARK    5  A    between atoms: C_4  and  C_5
REMARK    6  A    between atoms: C_4  and  C_6
REMARK    7  A    between atoms: C_4  and  C_7
REMARK    8  A    between atoms: C_8  and  O_9
REMARK    9  A    between atoms: C_8  and  C_10
REMARK   10  A    between atoms: C_10  and  O_11
REMARK   11  A    between atoms: O_11  and  C_12
REMARK                            x       y       z     vdW  Elec       q    Type
REMARK                         _______ _______ _______ _____ _____    ______ ____
ROOT
ATOM      1  C   UNL     1       6.762   5.019  18.201  0.00  0.00    +0.000 C 
ENDROOT
BRANCH   1   3
ATOM      2  C   UNL     1       7.652   7.284  17.613  0.00  0.00    +0.000 C 
ATOM      3  C   UNL     1       6.896   6.072  17.043  0.00  0.00    +0.000 C 
BRANCH   3   4
ATOM      4  N   UNL     1       7.536   5.532  15.822  0.00  0.00    +0.000 NA
ATOM      5  H   UNL     1       8.128   4.740  16.082  0.00  0.00    +0.000 HD
BRANCH   4   6
ATOM      6  C   UNL     1       6.690   5.074  14.691  0.00  0.00    +0.000 C 
ATOM      7  C   UNL     1       7.428   5.065  13.341  0.00  0.00    +0.000 C 
ATOM      8  C   UNL     1       6.316   3.600  14.981  0.00  0.00    +0.000 C 
ATOM      9  C   UNL     1       5.382   5.874  14.581  0.00  0.00    +0.000 C 
ENDBRANCH   4   6
ENDBRANCH   3   4
ENDBRANCH   1   3
BRANCH   1  10
ATOM     10  O   UNL     1       8.069   4.775  18.764  0.00  0.00    +0.000 OA
ATOM     11  H   UNL     1       8.299   3.844  18.604  0.00  0.00    +0.000 HD
ENDBRANCH   1  10
BRANCH   1  12
ATOM     12  C   UNL     1       5.813   5.442  19.336  0.00  0.00    +0.000 C 
BRANCH  12  13
ATOM     13  O   UNL     1       4.527   5.742  18.776  0.00  0.00    +0.000 OA
BRANCH  13  14
ATOM     14  C   UNL     1       3.713   4.674  18.484  0.00  0.00    +0.000 A 
ATOM     15  C   UNL     1       3.650   4.070  17.218  0.00  0.00    +0.000 A 
ATOM     16  C   UNL     1       2.849   2.959  16.993  0.00  0.00    +0.000 A 
ATOM     17  C   UNL     1       2.087   2.414  18.022  0.00  0.00    +0.000 A 
ATOM     18  C   UNL     1       2.144   3.008  19.295  0.00  0.00    +0.000 A 
ATOM     19  S   UNL     1       1.300   2.494  20.708  0.00  0.00    +0.000 S 
ATOM     20  C   UNL     1       1.978   3.734  21.658  0.00  0.00    +0.000 A 
ATOM     21  C   UNL     1       2.832   4.527  20.930  0.00  0.00    +0.000 A 
ATOM     22  C   UNL     1       2.944   4.127  19.550  0.00  0.00    +0.000 A 
ENDBRANCH  13  14
ENDBRANCH  12  13
ENDBRANCH   1  12
TORSDOF 7
ENDMDL
MODEL 7
REMARK VINA RESULT:      -6.0      3.509      5.320
REMARK  Name = 
REMARK  11 active torsions:
REMARK  status: ('A' for Active; 'I' for Inactive)
REMARK    1  A    between atoms: C_1  and  C_2
REMARK    2  A    between atoms: C_2  and  N_3
REMARK    3  A    between atoms: C_2  and  C_8
REMARK    4  A    between atoms: N_3  and  C_4
REMARK    5  A    between atoms: C_4  and  C_5
REMARK    6  A    between atoms: C_4  and  C_6
REMARK    7  A    between atoms: C_4  and  C_7
REMARK    8  A    between atoms: C_8  and  O_9
REMARK    9  A    between atoms: C_8  and  C_10
REMARK   10  A    between atoms: C_10  and  O_11
REMARK   11  A    between atoms: O_11  and  C_12
REMARK                            x       y       z     vdW  Elec       q    Type
REMARK                         _______ _______ _______ _____ _____    ______ ____
ROOT
ATOM      1  C   UNL     1       2.567   4.357  19.963  0.00  0.00    +0.000 C 
ENDROOT
BRANCH   1   3
ATOM      2  C   UNL     1       4.162   2.431  19.822  0.00  0.00    +0.000 C 
ATOM      3  C   UNL     1       4.032   3.944  19.574  0.00  0.00    +0.000 C 
BRANCH   3   4
ATOM      4  N   UNL     1       4.409   4.323  18.194  0.00  0.00    +0.000 NA
ATOM      5  H   UNL     1       3.645   4.859  17.778  0.00  0.00    +0.000 HD
BRANCH   4   6
ATOM      6  C   UNL     1       5.649   5.105  17.961  0.00  0.00    +0.000 C 
ATOM      7  C   UNL     1       6.600   4.454  16.942  0.00  0.00    +0.000 C 
ATOM      8  C   UNL     1       5.216   6.455  17.336  0.00  0.00    +0.000 C 
ATOM      9  C   UNL     1       6.398   5.417  19.268  0.00  0.00    +0.000 C 
ENDBRANCH   4   6
ENDBRANCH   3   4
ENDBRANCH   1   3
BRANCH   1  10
ATOM     10  O   UNL     1       2.526   4.657  21.375  0.00  0.00    +0.000 OA
ATOM     11  H   UNL     1       2.804   5.580  21.497  0.00  0.00    +0.000 HD
ENDBRANCH   1  10
BRANCH   1  12
ATOM     12  C   UNL     1       2.024   5.570  19.189  0.00  0.00    +0.000 C 
BRANCH  12  13
ATOM     13  O   UNL     1       2.657   6.757  19.684  0.00  0.00    +0.000 OA
BRANCH  13  14
ATOM     14  C   UNL     1       2.095   7.958  19.324  0.00  0.00    +0.000 A 
ATOM     15  C   UNL     1       2.165   8.489  18.027  0.00  0.00    +0.000 A 
ATOM     16  C   UNL     1       1.532   9.682  17.705  0.00  0.00    +0.000 A 
ATOM     17  C   UNL     1       0.807  10.381  18.666  0.00  0.00    +0.000 A 
ATOM     18  C   UNL     1       0.727   9.857  19.968  0.00  0.00    +0.000 A 
ATOM     19  S   UNL     1      -0.123  10.545  21.301  0.00  0.00    +0.000 S 
ATOM     20  C   UNL     1       0.328   9.275  22.342  0.00  0.00    +0.000 A 
ATOM     21  C   UNL     1       1.105   8.339  21.702  0.00  0.00    +0.000 A 
ATOM     22  C   UNL     1       1.354   8.657  20.319  0.00  0.00    +0.000 A 
ENDBRANCH  13  14
ENDBRANCH  12  13
ENDBRANCH   1  12
TORSDOF 7
ENDMDL
MODEL 8
REMARK VINA RESULT:      -6.0      3.380      4.973
REMARK  Name = 
REMARK  11 active torsions:
REMARK  status: ('A' for Active; 'I' for Inactive)
REMARK    1  A    between atoms: C_1  and  C_2
REMARK    2  A    between atoms: C_2  and  N_3
REMARK    3  A    between atoms: C_2  and  C_8
REMARK    4  A    between atoms: N_3  and  C_4
REMARK    5  A    between atoms: C_4  and  C_5
REMARK    6  A    between atoms: C_4  and  C_6
REMARK    7  A    between atoms: C_4  and  C_7
REMARK    8  A    between atoms: C_8  and  O_9
REMARK    9  A    between atoms: C_8  and  C_10
REMARK   10  A    between atoms: C_10  and  O_11
REMARK   11  A    between atoms: O_11  and  C_12
REMARK                            x       y       z     vdW  Elec       q    Type
REMARK                         _______ _______ _______ _____ _____    ______ ____
ROOT
ATOM      1  C   UNL     1       3.354   4.778  18.458  0.00  0.00    +0.000 C 
ENDROOT
BRANCH   1   3
ATOM      2  C   UNL     1       4.330   2.561  19.089  0.00  0.00    +0.000 C 
ATOM      3  C   UNL     1       4.597   3.837  18.273  0.00  0.00    +0.000 C 
BRANCH   3   4
ATOM      4  N   UNL     1       4.915   3.544  16.857  0.00  0.00    +0.000 NA
ATOM      5  H   UNL     1       4.045   3.524  16.321  0.00  0.00    +0.000 HD
BRANCH   4   6
ATOM      6  C   UNL     1       5.848   4.429  16.116  0.00  0.00    +0.000 C 
ATOM      7  C   UNL     1       5.319   5.863  15.939  0.00  0.00    +0.000 C 
ATOM      8  C   UNL     1       7.128   4.552  16.979  0.00  0.00    +0.000 C 
ATOM      9  C   UNL     1       6.257   3.839  14.757  0.00  0.00    +0.000 C 
ENDBRANCH   4   6
ENDBRANCH   3   4
ENDBRANCH   1   3
BRANCH   1  10
ATOM     10  O   UNL     1       2.261   4.007  19.000  0.00  0.00    +0.000 OA
ATOM     11  H   UNL     1       2.344   4.001  19.968  0.00  0.00    +0.000 HD
ENDBRANCH   1  10
BRANCH   1  12
ATOM     12  C   UNL     1       3.603   5.986  19.377  0.00  0.00    +0.000 C 
BRANCH  12  13
ATOM     13  O   UNL     1       2.341   6.487  19.837  0.00  0.00    +0.000 OA
BRANCH  13  14
ATOM     14  C   UNL     1       1.994   7.756  19.439  0.00  0.00    +0.000 A 
ATOM     15  C   UNL     1       2.201   8.245  18.140  0.00  0.00    +0.000 A 
ATOM     16  C   UNL     1       1.782   9.518  17.777  0.00  0.00    +0.000 A 
ATOM     17  C   UNL     1       1.141  10.342  18.698  0.00  0.00    +0.000 A 
ATOM     18  C   UNL     1       0.924   9.861  20.002  0.00  0.00    +0.000 A 
ATOM     19  S   UNL     1       0.143  10.701  21.289  0.00  0.00    +0.000 S 
ATOM     20  C   UNL     1       0.340   9.394  22.363  0.00  0.00    +0.000 A 
ATOM     21  C   UNL     1       0.982   8.334  21.768  0.00  0.00    +0.000 A 
ATOM     22  C   UNL     1       1.335   8.583  20.393  0.00  0.00    +0.000 A 
ENDBRANCH  13  14
ENDBRANCH  12  13
ENDBRANCH   1  12
TORSDOF 7
ENDMDL
MODEL 9
REMARK VINA RESULT:      -6.0      1.489      2.263
REMARK  Name = 
REMARK  11 active torsions:
REMARK  status: ('A' for Active; 'I' for Inactive)
REMARK    1  A    between atoms: C_1  and  C_2
REMARK    2  A    between atoms: C_2  and  N_3
REMARK    3  A    between atoms: C_2  and  C_8
REMARK    4  A    between atoms: N_3  and  C_4
REMARK    5  A    between atoms: C_4  and  C_5
REMARK    6  A    between atoms: C_4  and  C_6
REMARK    7  A    between atoms: C_4  and  C_7
REMARK    8  A    between atoms: C_8  and  O_9
REMARK    9  A    between atoms: C_8  and  C_10
REMARK   10  A    between atoms: C_10  and  O_11
REMARK   11  A    between atoms: O_11  and  C_12
REMARK                            x       y       z     vdW  Elec       q    Type
REMARK                         _______ _______ _______ _____ _____    ______ ____
ROOT
ATOM      1  C   UNL     1       7.586   5.617  18.597  0.00  0.00    +0.000 C 
ENDROOT
BRANCH   1   3
ATOM      2  C   UNL     1       7.653   7.824  17.415  0.00  0.00    +0.000 C 
ATOM      3  C   UNL     1       7.112   6.387  17.313  0.00  0.00    +0.000 C 
BRANCH   3   4
ATOM      4  N   UNL     1       7.504   5.728  16.047  0.00  0.00    +0.000 NA
ATOM      5  H   UNL     1       8.208   5.015  16.249  0.00  0.00    +0.000 HD
BRANCH   4   6
ATOM      6  C   UNL     1       6.467   5.071  15.210  0.00  0.00    +0.000 C 
ATOM      7  C   UNL     1       5.170   5.889  15.090  0.00  0.00    +0.000 C 
ATOM      8  C   UNL     1       7.044   4.976  13.776  0.00  0.00    +0.000 C 
ATOM      9  C   UNL     1       6.156   3.641  15.683  0.00  0.00    +0.000 C 
ENDBRANCH   4   6
ENDBRANCH   3   4
ENDBRANCH   1   3
BRANCH   1  10
ATOM     10  O   UNL     1       8.502   6.457  19.333  0.00  0.00    +0.000 OA
ATOM     11  H   UNL     1       8.396   7.370  19.018  0.00  0.00    +0.000 HD
ENDBRANCH   1  10
BRANCH   1  12
ATOM     12  C   UNL     1       6.447   5.192  19.539  0.00  0.00    +0.000 C 
BRANCH  12  13
ATOM     13  O   UNL     1       5.417   4.561  18.765  0.00  0.00    +0.000 OA
BRANCH  13  14
ATOM     14  C   UNL     1       4.269   4.207  19.431  0.00  0.00    +0.000 A 
ATOM     15  C   UNL     1       4.023   2.915  19.922  0.00  0.00    +0.000 A 
ATOM     16  C   UNL     1       2.868   2.626  20.635  0.00  0.00    +0.000 A 
ATOM     17  C   UNL     1       1.922   3.617  20.882  0.00  0.00    +0.000 A 
ATOM     18  C   UNL     1       2.158   4.916  20.399  0.00  0.00    +0.000 A 
ATOM     19  S   UNL     1       1.135   6.289  20.601  0.00  0.00    +0.000 S 
ATOM     20  C   UNL     1       2.202   7.305  19.746  0.00  0.00    +0.000 A 
ATOM     21  C   UNL     1       3.317   6.628  19.314  0.00  0.00    +0.000 A 
ATOM     22  C   UNL     1       3.314   5.234  19.679  0.00  0.00    +0.000 A 
ENDBRANCH  13  14
ENDBRANCH  12  13
ENDBRANCH   1  12
TORSDOF 7
ENDMDL
