MODEL 1
REMARK VINA RESULT:      -7.4      0.000      0.000
REMARK  Name = 
REMARK  10 active torsions:
REMARK  status: ('A' for Active; 'I' for Inactive)
REMARK    1  A    between atoms: C_1  and  O_2
REMARK    2  A    between atoms: O_2  and  C_3
REMARK    3  A    between atoms: N_7  and  C_8
REMARK    4  A    between atoms: C_13  and  O_14
REMARK    5  A    between atoms: O_14  and  C_15
REMARK    6  A    between atoms: C_19  and  O_20
REMARK    7  A    between atoms: O_20  and  S_21
REMARK    8  A    between atoms: S_21  and  C_22
REMARK    9  A    between atoms: C_25  and  O_26
REMARK   10  A    between atoms: O_26  and  C_27
REMARK                            x       y       z     vdW  Elec       q    Type
REMARK                         _______ _______ _______ _____ _____    ______ ____
ROOT
ATOM      1  C   UNL     1      -0.497  13.811  19.951  0.00  0.00    +0.000 A 
ATOM      2  C   UNL     1       0.837  13.498  20.099  0.00  0.00    +0.000 A 
ATOM      3  C   UNL     1       1.158  12.148  19.960  0.00  0.00    +0.000 A 
ATOM      4  C   UNL     1       1.132  11.333  21.117  0.00  0.00    +0.000 A 
ATOM      5  N   UNL     1       0.799  10.005  21.013  0.00  0.00    +0.000 N 
ATOM      6  C   UNL     1       0.114   9.334  22.127  0.00  0.00    +0.000 C 
ATOM      7  C   UNL     1       0.893   9.408  19.821  0.00  0.00    +0.000 A 
ATOM      8  C   UNL     1       0.995  10.173  18.668  0.00  0.00    +0.000 A 
ATOM      9  C   UNL     1       0.653  11.506  18.836  0.00  0.00    +0.000 A 
ATOM     10  C   UNL     1      -0.685  11.878  18.610  0.00  0.00    +0.000 A 
ATOM     11  C   UNL     1      -1.291  12.772  19.519  0.00  0.00    +0.000 A 
ATOM     12  C   UNL     1       1.974   9.459  17.720  0.00  0.00    +0.000 C 
ATOM     13  C   UNL     1       2.234   8.129  18.453  0.00  0.00    +0.000 A 
ATOM     14  C   UNL     1       3.066   7.046  18.132  0.00  0.00    +0.000 A 
ATOM     15  C   UNL     1       3.160   5.940  19.020  0.00  0.00    +0.000 A 
ATOM     16  C   UNL     1       2.349   5.903  20.166  0.00  0.00    +0.000 A 
ATOM     17  C   UNL     1       1.536   7.017  20.480  0.00  0.00    +0.000 A 
ATOM     18  C   UNL     1       1.515   8.112  19.661  0.00  0.00    +0.000 A 
ENDROOT
BRANCH   1  20
ATOM     19  C   UNL     1      -0.521  16.053  19.221  0.00  0.00    +0.000 C 
ATOM     20  O   UNL     1      -0.932  15.076  20.195  0.00  0.00    +0.000 OA
ENDBRANCH   1  20
BRANCH  11  21
ATOM     21  O   UNL     1      -2.254  12.184  20.350  0.00  0.00    +0.000 OA
ATOM     22  C   UNL     1      -3.626  12.608  20.179  0.00  0.00    +0.000 C 
ENDBRANCH  11  21
BRANCH  16  23
ATOM     23  O   UNL     1       2.148   4.935  21.109  0.00  0.00    +0.000 OA
ATOM     24  C   UNL     1       1.339   3.800  20.859  0.00  0.00    +0.000 C 
ENDBRANCH  16  23
BRANCH  15  25
ATOM     25  O   UNL     1       4.044   4.880  18.826  0.00  0.00    +0.000 OA
BRANCH  25  26
ATOM     26  S   UNL     1       3.758   3.698  17.756  0.00  0.00    +0.000 S 
ATOM     27  C   UNL     1       4.007   2.331  18.879  0.00  0.00    +0.000 C 
ATOM     28  O   UNL     1       2.361   3.730  17.379  0.00  0.00    +0.000 OA
ATOM     29  O   UNL     1       4.818   3.665  16.757  0.00  0.00    +0.000 OA
ENDBRANCH  25  26
ENDBRANCH  15  25
TORSDOF 5
ENDMDL
MODEL 2
REMARK VINA RESULT:      -7.1      3.147      8.423
REMARK  Name = 
REMARK  10 active torsions:
REMARK  status: ('A' for Active; 'I' for Inactive)
REMARK    1  A    between atoms: C_1  and  O_2
REMARK    2  A    between atoms: O_2  and  C_3
REMARK    3  A    between atoms: N_7  and  C_8
REMARK    4  A    between atoms: C_13  and  O_14
REMARK    5  A    between atoms: O_14  and  C_15
REMARK    6  A    between atoms: C_19  and  O_20
REMARK    7  A    between atoms: O_20  and  S_21
REMARK    8  A    between atoms: S_21  and  C_22
REMARK    9  A    between atoms: C_25  and  O_26
REMARK   10  A    between atoms: O_26  and  C_27
REMARK                            x       y       z     vdW  Elec       q    Type
REMARK                         _______ _______ _______ _____ _____    ______ ____
ROOT
ATOM      1  C   UNL     1       5.440   4.387  16.691  0.00  0.00    +0.000 A 
ATOM      2  C   UNL     1       4.117   4.559  16.345  0.00  0.00    +0.000 A 
ATOM      3  C   UNL     1       3.404   5.468  17.126  0.00  0.00    +0.000 A 
ATOM      4  C   UNL     1       2.743   4.983  18.280  0.00  0.00    +0.000 A 
ATOM      5  N   UNL     1       2.594   5.795  19.377  0.00  0.00    +0.000 N 
ATOM      6  C   UNL     1       2.573   5.207  20.723  0.00  0.00    +0.000 C 
ATOM      7  C   UNL     1       2.705   7.117  19.220  0.00  0.00    +0.000 A 
ATOM      8  C   UNL     1       3.280   7.634  18.069  0.00  0.00    +0.000 A 
ATOM      9  C   UNL     1       3.996   6.709  17.324  0.00  0.00    +0.000 A 
ATOM     10  C   UNL     1       5.370   6.567  17.592  0.00  0.00    +0.000 A 
ATOM     11  C   UNL     1       5.907   5.263  17.645  0.00  0.00    +0.000 A 
ATOM     12  C   UNL     1       2.496   8.901  17.684  0.00  0.00    +0.000 C 
ATOM     13  C   UNL     1       1.546   9.080  18.883  0.00  0.00    +0.000 A 
ATOM     14  C   UNL     1       0.545  10.030  19.134  0.00  0.00    +0.000 A 
ATOM     15  C   UNL     1      -0.233   9.941  20.320  0.00  0.00    +0.000 A 
ATOM     16  C   UNL     1       0.071   8.955  21.273  0.00  0.00    +0.000 A 
ATOM     17  C   UNL     1       1.069   7.994  20.987  0.00  0.00    +0.000 A 
ATOM     18  C   UNL     1       1.756   8.039  19.805  0.00  0.00    +0.000 A 
ENDROOT
BRANCH   1  20
ATOM     19  C   UNL     1       6.351   3.612  14.658  0.00  0.00    +0.000 C 
ATOM     20  O   UNL     1       6.186   3.430  16.077  0.00  0.00    +0.000 OA
ENDBRANCH   1  20
BRANCH  11  21
ATOM     21  O   UNL     1       6.253   4.834  18.933  0.00  0.00    +0.000 OA
ATOM     22  C   UNL     1       7.341   5.524  19.593  0.00  0.00    +0.000 C 
ENDBRANCH  11  21
BRANCH  16  23
ATOM     23  O   UNL     1      -0.420   8.716  22.526  0.00  0.00    +0.000 OA
ATOM     24  C   UNL     1      -0.070   9.524  23.634  0.00  0.00    +0.000 C 
ENDBRANCH  16  23
BRANCH  15  25
ATOM     25  O   UNL     1      -1.314  10.779  20.587  0.00  0.00    +0.000 OA
BRANCH  25  26
ATOM     26  S   UNL     1      -1.123  12.316  21.058  0.00  0.00    +0.000 S 
ATOM     27  C   UNL     1      -2.484  12.355  22.215  0.00  0.00    +0.000 C 
ATOM     28  O   UNL     1       0.113  12.432  21.803  0.00  0.00    +0.000 OA
ATOM     29  O   UNL     1      -1.437  13.217  19.956  0.00  0.00    +0.000 OA
ENDBRANCH  25  26
ENDBRANCH  15  25
TORSDOF 5
ENDMDL
MODEL 3
REMARK VINA RESULT:      -6.9      1.553      3.001
REMARK  Name = 
REMARK  10 active torsions:
REMARK  status: ('A' for Active; 'I' for Inactive)
REMARK    1  A    between atoms: C_1  and  O_2
REMARK    2  A    between atoms: O_2  and  C_3
REMARK    3  A    between atoms: N_7  and  C_8
REMARK    4  A    between atoms: C_13  and  O_14
REMARK    5  A    between atoms: O_14  and  C_15
REMARK    6  A    between atoms: C_19  and  O_20
REMARK    7  A    between atoms: O_20  and  S_21
REMARK    8  A    between atoms: S_21  and  C_22
REMARK    9  A    between atoms: C_25  and  O_26
REMARK   10  A    between atoms: O_26  and  C_27
REMARK                            x       y       z     vdW  Elec       q    Type
REMARK                         _______ _______ _______ _____ _____    ______ ____
ROOT
ATOM      1  C   UNL     1      -1.270  13.038  20.332  0.00  0.00    +0.000 A 
ATOM      2  C   UNL     1      -1.838  11.883  19.837  0.00  0.00    +0.000 A 
ATOM      3  C   UNL     1      -0.997  10.771  19.790  0.00  0.00    +0.000 A 
ATOM      4  C   UNL     1      -0.234  10.559  18.617  0.00  0.00    +0.000 A 
ATOM      5  N   UNL     1       0.997   9.958  18.699  0.00  0.00    +0.000 N 
ATOM      6  C   UNL     1       2.051  10.317  17.741  0.00  0.00    +0.000 C 
ATOM      7  C   UNL     1       1.289   9.232  19.783  0.00  0.00    +0.000 A 
ATOM      8  C   UNL     1       0.518   9.356  20.929  0.00  0.00    +0.000 A 
ATOM      9  C   UNL     1      -0.293  10.480  20.952  0.00  0.00    +0.000 A 
ATOM     10  C   UNL     1       0.224  11.656  21.528  0.00  0.00    +0.000 A 
ATOM     11  C   UNL     1      -0.011  12.881  20.866  0.00  0.00    +0.000 A 
ATOM     12  C   UNL     1       0.378   7.956  21.551  0.00  0.00    +0.000 C 
ATOM     13  C   UNL     1       1.324   7.109  20.678  0.00  0.00    +0.000 A 
ATOM     14  C   UNL     1       1.622   5.739  20.701  0.00  0.00    +0.000 A 
ATOM     15  C   UNL     1       2.512   5.193  19.736  0.00  0.00    +0.000 A 
ATOM     16  C   UNL     1       3.153   6.048  18.826  0.00  0.00    +0.000 A 
ATOM     17  C   UNL     1       2.818   7.423  18.807  0.00  0.00    +0.000 A 
ATOM     18  C   UNL     1       1.899   7.924  19.686  0.00  0.00    +0.000 A 
ENDROOT
BRANCH   1  20
ATOM     19  C   UNL     1      -2.312  14.738  21.590  0.00  0.00    +0.000 C 
ATOM     20  O   UNL     1      -1.964  14.207  20.298  0.00  0.00    +0.000 OA
ENDBRANCH   1  20
BRANCH  11  21
ATOM     21  O   UNL     1       1.123  13.431  20.255  0.00  0.00    +0.000 OA
ATOM     22  C   UNL     1       2.028  14.187  21.094  0.00  0.00    +0.000 C 
ENDBRANCH  11  21
BRANCH  16  23
ATOM     23  O   UNL     1       4.123   5.821  17.891  0.00  0.00    +0.000 OA
ATOM     24  C   UNL     1       5.480   5.632  18.248  0.00  0.00    +0.000 C 
ENDBRANCH  16  23
BRANCH  15  25
ATOM     25  O   UNL     1       2.772   3.829  19.627  0.00  0.00    +0.000 OA
BRANCH  25  26
ATOM     26  S   UNL     1       1.990   2.878  18.575  0.00  0.00    +0.000 S 
ATOM     27  C   UNL     1       3.439   2.240  17.746  0.00  0.00    +0.000 C 
ATOM     28  O   UNL     1       1.361   1.792  19.296  0.00  0.00    +0.000 OA
ATOM     29  O   UNL     1       1.245   3.696  17.625  0.00  0.00    +0.000 OA
ENDBRANCH  25  26
ENDBRANCH  15  25
TORSDOF 5
ENDMDL
MODEL 4
REMARK VINA RESULT:      -6.9      1.572      2.967
REMARK  Name = 
REMARK  10 active torsions:
REMARK  status: ('A' for Active; 'I' for Inactive)
REMARK    1  A    between atoms: C_1  and  O_2
REMARK    2  A    between atoms: O_2  and  C_3
REMARK    3  A    between atoms: N_7  and  C_8
REMARK    4  A    between atoms: C_13  and  O_14
REMARK    5  A    between atoms: O_14  and  C_15
REMARK    6  A    between atoms: C_19  and  O_20
REMARK    7  A    between atoms: O_20  and  S_21
REMARK    8  A    between atoms: S_21  and  C_22
REMARK    9  A    between atoms: C_25  and  O_26
REMARK   10  A    between atoms: O_26  and  C_27
REMARK                            x       y       z     vdW  Elec       q    Type
REMARK                         _______ _______ _______ _____ _____    ______ ____
ROOT
ATOM      1  C   UNL     1      -1.232  12.936  20.427  0.00  0.00    +0.000 A 
ATOM      2  C   UNL     1      -1.801  11.787  19.922  0.00  0.00    +0.000 A 
ATOM      3  C   UNL     1      -0.947  10.689  19.816  0.00  0.00    +0.000 A 
ATOM      4  C   UNL     1      -0.223  10.520  18.611  0.00  0.00    +0.000 A 
ATOM      5  N   UNL     1       1.018   9.935  18.633  0.00  0.00    +0.000 N 
ATOM      6  C   UNL     1       2.032  10.335  17.648  0.00  0.00    +0.000 C 
ATOM      7  C   UNL     1       1.359   9.185  19.686  0.00  0.00    +0.000 A 
ATOM      8  C   UNL     1       0.629   9.268  20.862  0.00  0.00    +0.000 A 
ATOM      9  C   UNL     1      -0.197  10.378  20.943  0.00  0.00    +0.000 A 
ATOM     10  C   UNL     1       0.323  11.546  21.532  0.00  0.00    +0.000 A 
ATOM     11  C   UNL     1       0.048  12.784  20.912  0.00  0.00    +0.000 A 
ATOM     12  C   UNL     1       0.531   7.850  21.451  0.00  0.00    +0.000 C 
ATOM     13  C   UNL     1       1.457   7.041  20.522  0.00  0.00    +0.000 A 
ATOM     14  C   UNL     1       1.775   5.675  20.499  0.00  0.00    +0.000 A 
ATOM     15  C   UNL     1       2.637   5.168  19.489  0.00  0.00    +0.000 A 
ATOM     16  C   UNL     1       3.233   6.057  18.579  0.00  0.00    +0.000 A 
ATOM     17  C   UNL     1       2.878   7.426  18.609  0.00  0.00    +0.000 A 
ATOM     18  C   UNL     1       1.984   7.890  19.533  0.00  0.00    +0.000 A 
ENDROOT
BRANCH   1  20
ATOM     19  C   UNL     1      -2.094  14.685  21.754  0.00  0.00    +0.000 C 
ATOM     20  O   UNL     1      -1.943  14.095  20.450  0.00  0.00    +0.000 OA
ENDBRANCH   1  20
BRANCH  11  21
ATOM     21  O   UNL     1       1.151  13.368  20.276  0.00  0.00    +0.000 OA
ATOM     22  C   UNL     1       0.939  13.931  18.960  0.00  0.00    +0.000 C 
ENDBRANCH  11  21
BRANCH  16  23
ATOM     23  O   UNL     1       4.172   5.869  17.604  0.00  0.00    +0.000 OA
ATOM     24  C   UNL     1       5.102   6.878  17.255  0.00  0.00    +0.000 C 
ENDBRANCH  16  23
BRANCH  15  25
ATOM     25  O   UNL     1       2.913   3.811  19.334  0.00  0.00    +0.000 OA
BRANCH  25  26
ATOM     26  S   UNL     1       2.143   2.889  18.247  0.00  0.00    +0.000 S 
ATOM     27  C   UNL     1       0.947   2.186  19.374  0.00  0.00    +0.000 C 
ATOM     28  O   UNL     1       1.443   3.743  17.313  0.00  0.00    +0.000 OA
ATOM     29  O   UNL     1       3.022   1.819  17.792  0.00  0.00    +0.000 OA
ENDBRANCH  25  26
ENDBRANCH  15  25
TORSDOF 5
ENDMDL
MODEL 5
REMARK VINA RESULT:      -6.8      1.601      3.141
REMARK  Name = 
REMARK  10 active torsions:
REMARK  status: ('A' for Active; 'I' for Inactive)
REMARK    1  A    between atoms: C_1  and  O_2
REMARK    2  A    between atoms: O_2  and  C_3
REMARK    3  A    between atoms: N_7  and  C_8
REMARK    4  A    between atoms: C_13  and  O_14
REMARK    5  A    between atoms: O_14  and  C_15
REMARK    6  A    between atoms: C_19  and  O_20
REMARK    7  A    between atoms: O_20  and  S_21
REMARK    8  A    between atoms: S_21  and  C_22
REMARK    9  A    between atoms: C_25  and  O_26
REMARK   10  A    between atoms: O_26  and  C_27
REMARK                            x       y       z     vdW  Elec       q    Type
REMARK                         _______ _______ _______ _____ _____    ______ ____
ROOT
ATOM      1  C   UNL     1      -0.914  12.814  20.752  0.00  0.00    +0.000 A 
ATOM      2  C   UNL     1      -1.563  11.715  20.231  0.00  0.00    +0.000 A 
ATOM      3  C   UNL     1      -0.768  10.589  20.022  0.00  0.00    +0.000 A 
ATOM      4  C   UNL     1      -0.127  10.447  18.768  0.00  0.00    +0.000 A 
ATOM      5  N   UNL     1       1.086   9.809  18.686  0.00  0.00    +0.000 N 
ATOM      6  C   UNL     1       2.056  10.213  17.659  0.00  0.00    +0.000 C 
ATOM      7  C   UNL     1       1.455   8.996  19.680  0.00  0.00    +0.000 A 
ATOM      8  C   UNL     1       0.801   9.053  20.902  0.00  0.00    +0.000 A 
ATOM      9  C   UNL     1       0.033  10.192  21.085  0.00  0.00    +0.000 A 
ATOM     10  C   UNL     1       0.640  11.307  21.693  0.00  0.00    +0.000 A 
ATOM     11  C   UNL     1       0.385  12.584  21.149  0.00  0.00    +0.000 A 
ATOM     12  C   UNL     1       0.675   7.613  21.431  0.00  0.00    +0.000 C 
ATOM     13  C   UNL     1       1.505   6.811  20.410  0.00  0.00    +0.000 A 
ATOM     14  C   UNL     1       1.759   5.436  20.304  0.00  0.00    +0.000 A 
ATOM     15  C   UNL     1       2.535   4.942  19.220  0.00  0.00    +0.000 A 
ATOM     16  C   UNL     1       3.115   5.848  18.317  0.00  0.00    +0.000 A 
ATOM     17  C   UNL     1       2.825   7.228  18.432  0.00  0.00    +0.000 A 
ATOM     18  C   UNL     1       2.010   7.684  19.430  0.00  0.00    +0.000 A 
ENDROOT
BRANCH   1  20
ATOM     19  C   UNL     1      -1.493  14.601  22.178  0.00  0.00    +0.000 C 
ATOM     20  O   UNL     1      -1.569  13.999  20.872  0.00  0.00    +0.000 OA
ENDBRANCH   1  20
BRANCH  11  21
ATOM     21  O   UNL     1       1.473  13.150  20.473  0.00  0.00    +0.000 OA
ATOM     22  C   UNL     1       1.212  13.765  19.189  0.00  0.00    +0.000 C 
ENDBRANCH  11  21
BRANCH  16  23
ATOM     23  O   UNL     1       3.984   5.668  17.278  0.00  0.00    +0.000 OA
ATOM     24  C   UNL     1       4.853   6.696  16.840  0.00  0.00    +0.000 C 
ENDBRANCH  16  23
BRANCH  15  25
ATOM     25  O   UNL     1       2.739   3.584  18.987  0.00  0.00    +0.000 OA
BRANCH  25  26
ATOM     26  S   UNL     1       3.887   2.736  19.751  0.00  0.00    +0.000 S 
ATOM     27  C   UNL     1       3.789   1.274  18.727  0.00  0.00    +0.000 C 
ATOM     28  O   UNL     1       5.170   3.366  19.526  0.00  0.00    +0.000 OA
ATOM     29  O   UNL     1       3.435   2.383  21.091  0.00  0.00    +0.000 OA
ENDBRANCH  25  26
ENDBRANCH  15  25
TORSDOF 5
ENDMDL
MODEL 6
REMARK VINA RESULT:      -6.8      1.024      1.317
REMARK  Name = 
REMARK  10 active torsions:
REMARK  status: ('A' for Active; 'I' for Inactive)
REMARK    1  A    between atoms: C_1  and  O_2
REMARK    2  A    between atoms: O_2  and  C_3
REMARK    3  A    between atoms: N_7  and  C_8
REMARK    4  A    between atoms: C_13  and  O_14
REMARK    5  A    between atoms: O_14  and  C_15
REMARK    6  A    between atoms: C_19  and  O_20
REMARK    7  A    between atoms: O_20  and  S_21
REMARK    8  A    between atoms: S_21  and  C_22
REMARK    9  A    between atoms: C_25  and  O_26
REMARK   10  A    between atoms: O_26  and  C_27
REMARK                            x       y       z     vdW  Elec       q    Type
REMARK                         _______ _______ _______ _____ _____    ______ ____
ROOT
ATOM      1  C   UNL     1      -0.176  13.830  20.518  0.00  0.00    +0.000 A 
ATOM      2  C   UNL     1       1.149  13.452  20.495  0.00  0.00    +0.000 A 
ATOM      3  C   UNL     1       1.385  12.102  20.239  0.00  0.00    +0.000 A 
ATOM      4  C   UNL     1       1.448  11.214  21.341  0.00  0.00    +0.000 A 
ATOM      5  N   UNL     1       1.041   9.912  21.196  0.00  0.00    +0.000 N 
ATOM      6  C   UNL     1       0.452   9.199  22.338  0.00  0.00    +0.000 C 
ATOM      7  C   UNL     1       0.973   9.390  19.967  0.00  0.00    +0.000 A 
ATOM      8  C   UNL     1       0.984  10.223  18.858  0.00  0.00    +0.000 A 
ATOM      9  C   UNL     1       0.729  11.556  19.143  0.00  0.00    +0.000 A 
ATOM     10  C   UNL     1      -0.607  11.998  19.094  0.00  0.00    +0.000 A 
ATOM     11  C   UNL     1      -1.063  12.855  20.118  0.00  0.00    +0.000 A 
ATOM     12  C   UNL     1       1.815   9.532  17.763  0.00  0.00    +0.000 C 
ATOM     13  C   UNL     1       2.090   8.147  18.381  0.00  0.00    +0.000 A 
ATOM     14  C   UNL     1       2.826   7.054  17.903  0.00  0.00    +0.000 A 
ATOM     15  C   UNL     1       2.964   5.889  18.706  0.00  0.00    +0.000 A 
ATOM     16  C   UNL     1       2.284   5.812  19.933  0.00  0.00    +0.000 A 
ATOM     17  C   UNL     1       1.566   6.937  20.403  0.00  0.00    +0.000 A 
ATOM     18  C   UNL     1       1.509   8.083  19.660  0.00  0.00    +0.000 A 
ENDROOT
BRANCH   1  20
ATOM     19  C   UNL     1      -0.970  15.934  19.807  0.00  0.00    +0.000 C 
ATOM     20  O   UNL     1      -0.518  15.094  20.886  0.00  0.00    +0.000 OA
ENDBRANCH   1  20
BRANCH  11  21
ATOM     21  O   UNL     1      -1.955  12.256  21.016  0.00  0.00    +0.000 OA
ATOM     22  C   UNL     1      -3.289  12.811  21.098  0.00  0.00    +0.000 C 
ENDBRANCH  11  21
BRANCH  16  23
ATOM     23  O   UNL     1       2.142   4.794  20.833  0.00  0.00    +0.000 OA
ATOM     24  C   UNL     1       1.205   3.750  20.643  0.00  0.00    +0.000 C 
ENDBRANCH  16  23
BRANCH  15  25
ATOM     25  O   UNL     1       3.767   4.809  18.349  0.00  0.00    +0.000 OA
BRANCH  25  26
ATOM     26  S   UNL     1       5.244   4.582  18.974  0.00  0.00    +0.000 S 
ATOM     27  C   UNL     1       6.118   4.471  17.419  0.00  0.00    +0.000 C 
ATOM     28  O   UNL     1       5.663   5.793  19.647  0.00  0.00    +0.000 OA
ATOM     29  O   UNL     1       5.314   3.282  19.629  0.00  0.00    +0.000 OA
ENDBRANCH  25  26
ENDBRANCH  15  25
TORSDOF 5
ENDMDL
MODEL 7
REMARK VINA RESULT:      -6.5      1.652      3.180
REMARK  Name = 
REMARK  10 active torsions:
REMARK  status: ('A' for Active; 'I' for Inactive)
REMARK    1  A    between atoms: C_1  and  O_2
REMARK    2  A    between atoms: O_2  and  C_3
REMARK    3  A    between atoms: N_7  and  C_8
REMARK    4  A    between atoms: C_13  and  O_14
REMARK    5  A    between atoms: O_14  and  C_15
REMARK    6  A    between atoms: C_19  and  O_20
REMARK    7  A    between atoms: O_20  and  S_21
REMARK    8  A    between atoms: S_21  and  C_22
REMARK    9  A    between atoms: C_25  and  O_26
REMARK   10  A    between atoms: O_26  and  C_27
REMARK                            x       y       z     vdW  Elec       q    Type
REMARK                         _______ _______ _______ _____ _____    ______ ____
ROOT
ATOM      1  C   UNL     1      -1.374  12.521  20.171  0.00  0.00    +0.000 A 
ATOM      2  C   UNL     1      -1.847  11.318  19.693  0.00  0.00    +0.000 A 
ATOM      3  C   UNL     1      -0.923  10.273  19.673  0.00  0.00    +0.000 A 
ATOM      4  C   UNL     1      -0.136  10.100  18.509  0.00  0.00    +0.000 A 
ATOM      5  N   UNL     1       1.136   9.596  18.610  0.00  0.00    +0.000 N 
ATOM      6  C   UNL     1       2.168  10.019  17.653  0.00  0.00    +0.000 C 
ATOM      7  C   UNL     1       1.474   8.915  19.709  0.00  0.00    +0.000 A 
ATOM      8  C   UNL     1       0.687   8.999  20.848  0.00  0.00    +0.000 A 
ATOM      9  C   UNL     1      -0.209  10.058  20.844  0.00  0.00    +0.000 A 
ATOM     10  C   UNL     1       0.211  11.280  21.402  0.00  0.00    +0.000 A 
ATOM     11  C   UNL     1      -0.111  12.471  20.717  0.00  0.00    +0.000 A 
ATOM     12  C   UNL     1       0.650   7.604  21.495  0.00  0.00    +0.000 C 
ATOM     13  C   UNL     1       1.665   6.817  20.643  0.00  0.00    +0.000 A 
ATOM     14  C   UNL     1       2.068   5.475  20.694  0.00  0.00    +0.000 A 
ATOM     15  C   UNL     1       3.005   4.982  19.746  0.00  0.00    +0.000 A 
ATOM     16  C   UNL     1       3.586   5.868  18.824  0.00  0.00    +0.000 A 
ATOM     17  C   UNL     1       3.146   7.212  18.778  0.00  0.00    +0.000 A 
ATOM     18  C   UNL     1       2.184   7.656  19.641  0.00  0.00    +0.000 A 
ENDROOT
BRANCH   1  20
ATOM     19  C   UNL     1      -3.451  13.492  20.725  0.00  0.00    +0.000 C 
ATOM     20  O   UNL     1      -2.156  13.632  20.112  0.00  0.00    +0.000 OA
ENDBRANCH   1  20
BRANCH  11  21
ATOM     21  O   UNL     1       0.982  13.097  20.104  0.00  0.00    +0.000 OA
ATOM     22  C   UNL     1       0.806  13.560  18.744  0.00  0.00    +0.000 C 
ENDBRANCH  11  21
BRANCH  16  23
ATOM     23  O   UNL     1       4.578   5.700  17.900  0.00  0.00    +0.000 OA
ATOM     24  C   UNL     1       5.074   6.778  17.128  0.00  0.00    +0.000 C 
ENDBRANCH  16  23
BRANCH  15  25
ATOM     25  O   UNL     1       3.370   3.640  19.663  0.00  0.00    +0.000 OA
BRANCH  25  26
ATOM     26  S   UNL     1       2.357   2.497  19.124  0.00  0.00    +0.000 S 
ATOM     27  C   UNL     1       1.463   3.531  17.974  0.00  0.00    +0.000 C 
ATOM     28  O   UNL     1       3.108   1.517  18.370  0.00  0.00    +0.000 OA
ATOM     29  O   UNL     1       1.441   2.103  20.188  0.00  0.00    +0.000 OA
ENDBRANCH  25  26
ENDBRANCH  15  25
TORSDOF 5
ENDMDL
MODEL 8
REMARK VINA RESULT:      -6.4      1.180      1.435
REMARK  Name = 
REMARK  10 active torsions:
REMARK  status: ('A' for Active; 'I' for Inactive)
REMARK    1  A    between atoms: C_1  and  O_2
REMARK    2  A    between atoms: O_2  and  C_3
REMARK    3  A    between atoms: N_7  and  C_8
REMARK    4  A    between atoms: C_13  and  O_14
REMARK    5  A    between atoms: O_14  and  C_15
REMARK    6  A    between atoms: C_19  and  O_20
REMARK    7  A    between atoms: O_20  and  S_21
REMARK    8  A    between atoms: S_21  and  C_22
REMARK    9  A    between atoms: C_25  and  O_26
REMARK   10  A    between atoms: O_26  and  C_27
REMARK                            x       y       z     vdW  Elec       q    Type
REMARK                         _______ _______ _______ _____ _____    ______ ____
ROOT
ATOM      1  C   UNL     1      -0.670  13.763  20.281  0.00  0.00    +0.000 A 
ATOM      2  C   UNL     1       0.687  13.527  20.273  0.00  0.00    +0.000 A 
ATOM      3  C   UNL     1       1.067  12.204  20.044  0.00  0.00    +0.000 A 
ATOM      4  C   UNL     1       1.213  11.348  21.163  0.00  0.00    +0.000 A 
ATOM      5  N   UNL     1       0.947  10.008  21.039  0.00  0.00    +0.000 N 
ATOM      6  C   UNL     1       0.426   9.257  22.189  0.00  0.00    +0.000 C 
ATOM      7  C   UNL     1       0.945   9.460  19.820  0.00  0.00    +0.000 A 
ATOM      8  C   UNL     1       0.879  10.270  18.696  0.00  0.00    +0.000 A 
ATOM      9  C   UNL     1       0.482  11.573  18.955  0.00  0.00    +0.000 A 
ATOM     10  C   UNL     1      -0.892  11.871  18.887  0.00  0.00    +0.000 A 
ATOM     11  C   UNL     1      -1.446  12.693  19.892  0.00  0.00    +0.000 A 
ATOM     12  C   UNL     1       1.788   9.651  17.620  0.00  0.00    +0.000 C 
ATOM     13  C   UNL     1       2.202   8.315  18.265  0.00  0.00    +0.000 A 
ATOM     14  C   UNL     1       3.054   7.297  17.813  0.00  0.00    +0.000 A 
ATOM     15  C   UNL     1       3.306   6.168  18.639  0.00  0.00    +0.000 A 
ATOM     16  C   UNL     1       2.627   6.040  19.861  0.00  0.00    +0.000 A 
ATOM     17  C   UNL     1       1.790   7.091  20.305  0.00  0.00    +0.000 A 
ATOM     18  C   UNL     1       1.619   8.211  19.541  0.00  0.00    +0.000 A 
ENDROOT
BRANCH   1  20
ATOM     19  C   UNL     1      -0.801  16.047  19.708  0.00  0.00    +0.000 C 
ATOM     20  O   UNL     1      -1.147  14.990  20.622  0.00  0.00    +0.000 OA
ENDBRANCH   1  20
BRANCH  11  21
ATOM     21  O   UNL     1      -2.278  12.019  20.794  0.00  0.00    +0.000 OA
ATOM     22  C   UNL     1      -2.107  12.311  22.201  0.00  0.00    +0.000 C 
ENDBRANCH  11  21
BRANCH  16  23
ATOM     23  O   UNL     1       2.585   5.029  20.779  0.00  0.00    +0.000 OA
ATOM     24  C   UNL     1       1.539   4.075  20.796  0.00  0.00    +0.000 C 
ENDBRANCH  16  23
BRANCH  15  25
ATOM     25  O   UNL     1       4.222   5.171  18.307  0.00  0.00    +0.000 OA
BRANCH  25  26
ATOM     26  S   UNL     1       5.720   5.508  17.792  0.00  0.00    +0.000 S 
ATOM     27  C   UNL     1       6.528   5.370  19.380  0.00  0.00    +0.000 C 
ATOM     28  O   UNL     1       6.184   4.427  16.949  0.00  0.00    +0.000 OA
ATOM     29  O   UNL     1       5.798   6.898  17.362  0.00  0.00    +0.000 OA
ENDBRANCH  25  26
ENDBRANCH  15  25
TORSDOF 5
ENDMDL
MODEL 9
REMARK VINA RESULT:      -6.3      2.788      8.544
REMARK  Name = 
REMARK  10 active torsions:
REMARK  status: ('A' for Active; 'I' for Inactive)
REMARK    1  A    between atoms: C_1  and  O_2
REMARK    2  A    between atoms: O_2  and  C_3
REMARK    3  A    between atoms: N_7  and  C_8
REMARK    4  A    between atoms: C_13  and  O_14
REMARK    5  A    between atoms: O_14  and  C_15
REMARK    6  A    between atoms: C_19  and  O_20
REMARK    7  A    between atoms: O_20  and  S_21
REMARK    8  A    between atoms: S_21  and  C_22
REMARK    9  A    between atoms: C_25  and  O_26
REMARK   10  A    between atoms: O_26  and  C_27
REMARK                            x       y       z     vdW  Elec       q    Type
REMARK                         _______ _______ _______ _____ _____    ______ ____
ROOT
ATOM      1  C   UNL     1       3.794   3.279  17.475  0.00  0.00    +0.000 A 
ATOM      2  C   UNL     1       2.474   3.656  17.359  0.00  0.00    +0.000 A 
ATOM      3  C   UNL     1       2.147   4.885  17.932  0.00  0.00    +0.000 A 
ATOM      4  C   UNL     1       1.735   4.902  19.287  0.00  0.00    +0.000 A 
ATOM      5  N   UNL     1       2.011   5.992  20.074  0.00  0.00    +0.000 N 
ATOM      6  C   UNL     1       2.242   5.814  21.514  0.00  0.00    +0.000 C 
ATOM      7  C   UNL     1       2.294   7.158  19.484  0.00  0.00    +0.000 A 
ATOM      8  C   UNL     1       2.629   7.192  18.139  0.00  0.00    +0.000 A 
ATOM      9  C   UNL     1       2.966   5.958  17.604  0.00  0.00    +0.000 A 
ATOM     10  C   UNL     1       4.320   5.575  17.628  0.00  0.00    +0.000 A 
ATOM     11  C   UNL     1       4.630   4.245  17.988  0.00  0.00    +0.000 A 
ATOM     12  C   UNL     1       1.992   8.453  17.531  0.00  0.00    +0.000 C 
ATOM     13  C   UNL     1       1.427   9.170  18.773  0.00  0.00    +0.000 A 
ATOM     14  C   UNL     1       0.696  10.360  18.898  0.00  0.00    +0.000 A 
ATOM     15  C   UNL     1       0.247  10.782  20.179  0.00  0.00    +0.000 A 
ATOM     16  C   UNL     1       0.620  10.049  21.317  0.00  0.00    +0.000 A 
ATOM     17  C   UNL     1       1.338   8.840  21.163  0.00  0.00    +0.000 A 
ATOM     18  C   UNL     1       1.694   8.400  19.918  0.00  0.00    +0.000 A 
ENDROOT
BRANCH   1  20
ATOM     19  C   UNL     1       4.054   1.008  18.056  0.00  0.00    +0.000 C 
ATOM     20  O   UNL     1       4.188   2.044  17.065  0.00  0.00    +0.000 OA
ENDBRANCH   1  20
BRANCH  11  21
ATOM     21  O   UNL     1       5.221   4.114  19.251  0.00  0.00    +0.000 OA
ATOM     22  C   UNL     1       6.215   5.097  19.625  0.00  0.00    +0.000 C 
ENDBRANCH  11  21
BRANCH  16  23
ATOM     23  O   UNL     1       0.437  10.283  22.651  0.00  0.00    +0.000 OA
ATOM     24  C   UNL     1      -0.844  10.240  23.252  0.00  0.00    +0.000 C 
ENDBRANCH  16  23
BRANCH  15  25
ATOM     25  O   UNL     1      -0.574  11.891  20.371  0.00  0.00    +0.000 OA
BRANCH  25  26
ATOM     26  S   UNL     1       0.016  13.392  20.515  0.00  0.00    +0.000 S 
ATOM     27  C   UNL     1      -1.438  14.122  21.256  0.00  0.00    +0.000 C 
ATOM     28  O   UNL     1       1.077  13.391  21.499  0.00  0.00    +0.000 OA
ATOM     29  O   UNL     1       0.199  13.984  19.195  0.00  0.00    +0.000 OA
ENDBRANCH  25  26
ENDBRANCH  15  25
TORSDOF 5
ENDMDL
