MODEL 1
REMARK VINA RESULT:      -7.9      0.000      0.000
REMARK  Name = 
REMARK  4 active torsions:
REMARK  status: ('A' for Active; 'I' for Inactive)
REMARK    1  A    between atoms: C_1  and  C_2
REMARK    2  A    between atoms: C_2  and  N_3
REMARK    3  A    between atoms: C_2  and  C_16
REMARK    4  A    between atoms: C_4  and  C_6
REMARK                            x       y       z     vdW  Elec       q    Type
REMARK                         _______ _______ _______ _____ _____    ______ ____
ROOT
ATOM      1  N   UNL     1       1.614   7.450  19.365  0.00  0.00    +0.000 N 
ATOM      2  C   UNL     1       2.597   6.626  18.860  0.00  0.00    +0.000 C 
ATOM      3  O   UNL     1       3.534   7.075  18.196  0.00  0.00    +0.000 OA
ATOM      4  H   UNL     1       0.964   7.073  20.038  0.00  0.00    +0.000 HD
ENDROOT
BRANCH   2   5
ATOM      5  C   UNL     1       2.474   5.119  19.179  0.00  0.00    +0.000 C 
ATOM      6  C   UNL     1       3.828   4.470  19.557  0.00  0.00    +0.000 C 
ATOM      7  C   UNL     1       3.632   2.974  19.900  0.00  0.00    +0.000 C 
ATOM      8  C   UNL     1       2.661   2.832  21.085  0.00  0.00    +0.000 C 
ATOM      9  C   UNL     1       1.307   3.463  20.729  0.00  0.00    +0.000 C 
ATOM     10  C   UNL     1       0.712   2.753  19.504  0.00  0.00    +0.000 C 
ATOM     11  C   UNL     1       1.677   2.868  18.313  0.00  0.00    +0.000 C 
ATOM     12  C   UNL     1       3.031   2.242  18.688  0.00  0.00    +0.000 C 
ATOM     13  C   UNL     1       1.885   4.354  17.970  0.00  0.00    +0.000 C 
ATOM     14  C   UNL     1       1.518   4.945  20.393  0.00  0.00    +0.000 C 
ENDBRANCH   2   5
BRANCH   1  16
ATOM     15  C   UNL     1       1.195   9.447  17.991  0.00  0.00    +0.000 C 
ATOM     16  C   UNL     1       1.751   8.906  19.310  0.00  0.00    +0.000 C 
BRANCH  16  17
ATOM     17  C   UNL     1       1.115   9.529  20.542  0.00  0.00    +0.000 A 
ATOM     18  C   UNL     1       1.051   8.792  21.734  0.00  0.00    +0.000 A 
ATOM     19  C   UNL     1       0.405   9.338  22.834  0.00  0.00    +0.000 A 
ATOM     20  N   UNL     1      -0.180  10.554  22.832  0.00  0.00    +0.000 NA
ATOM     21  C   UNL     1      -0.105  11.254  21.683  0.00  0.00    +0.000 A 
ATOM     22  C   UNL     1       0.523  10.797  20.533  0.00  0.00    +0.000 A 
ENDBRANCH  16  17
ENDBRANCH   1  16
TORSDOF 3
ENDMDL
MODEL 2
REMARK VINA RESULT:      -7.9      0.089      1.027
REMARK  Name = 
REMARK  4 active torsions:
REMARK  status: ('A' for Active; 'I' for Inactive)
REMARK    1  A    between atoms: C_1  and  C_2
REMARK    2  A    between atoms: C_2  and  N_3
REMARK    3  A    between atoms: C_2  and  C_16
REMARK    4  A    between atoms: C_4  and  C_6
REMARK                            x       y       z     vdW  Elec       q    Type
REMARK                         _______ _______ _______ _____ _____    ______ ____
ROOT
ATOM      1  N   UNL     1       1.591   7.412  19.398  0.00  0.00    +0.000 N 
ATOM      2  C   UNL     1       2.599   6.619  18.891  0.00  0.00    +0.000 C 
ATOM      3  O   UNL     1       3.533   7.101  18.247  0.00  0.00    +0.000 OA
ATOM      4  H   UNL     1       0.941   7.007  20.055  0.00  0.00    +0.000 HD
ENDROOT
BRANCH   2   5
ATOM      5  C   UNL     1       2.505   5.104  19.181  0.00  0.00    +0.000 C 
ATOM      6  C   UNL     1       3.874   4.472  19.535  0.00  0.00    +0.000 C 
ATOM      7  C   UNL     1       3.709   2.967  19.850  0.00  0.00    +0.000 C 
ATOM      8  C   UNL     1       2.751   2.784  21.040  0.00  0.00    +0.000 C 
ATOM      9  C   UNL     1       1.382   3.396  20.707  0.00  0.00    +0.000 C 
ATOM     10  C   UNL     1       0.790   2.700  19.473  0.00  0.00    +0.000 C 
ATOM     11  C   UNL     1       1.742   2.856  18.276  0.00  0.00    +0.000 C 
ATOM     12  C   UNL     1       3.112   2.248  18.628  0.00  0.00    +0.000 C 
ATOM     13  C   UNL     1       1.921   4.352  17.961  0.00  0.00    +0.000 C 
ATOM     14  C   UNL     1       1.563   4.888  20.398  0.00  0.00    +0.000 C 
ENDBRANCH   2   5
BRANCH   1  16
ATOM     15  C   UNL     1       1.161   9.422  18.047  0.00  0.00    +0.000 C 
ATOM     16  C   UNL     1       1.695   8.871  19.370  0.00  0.00    +0.000 C 
BRANCH  16  17
ATOM     17  C   UNL     1       1.012   9.457  20.596  0.00  0.00    +0.000 A 
ATOM     18  C   UNL     1       0.484  10.755  20.537  0.00  0.00    +0.000 A 
ATOM     19  C   UNL     1      -0.073  11.311  21.679  0.00  0.00    +0.000 A 
ATOM     20  N   UNL     1      -0.140  10.675  22.867  0.00  0.00    +0.000 NA
ATOM     21  C   UNL     1       0.365   9.426  22.908  0.00  0.00    +0.000 A 
ATOM     22  C   UNL     1       0.937   8.782  21.820  0.00  0.00    +0.000 A 
ENDBRANCH  16  17
ENDBRANCH   1  16
TORSDOF 3
ENDMDL
MODEL 3
REMARK VINA RESULT:      -7.8      0.127      1.928
REMARK  Name = 
REMARK  4 active torsions:
REMARK  status: ('A' for Active; 'I' for Inactive)
REMARK    1  A    between atoms: C_1  and  C_2
REMARK    2  A    between atoms: C_2  and  N_3
REMARK    3  A    between atoms: C_2  and  C_16
REMARK    4  A    between atoms: C_4  and  C_6
REMARK                            x       y       z     vdW  Elec       q    Type
REMARK                         _______ _______ _______ _____ _____    ______ ____
ROOT
ATOM      1  N   UNL     1       1.550   7.398  19.316  0.00  0.00    +0.000 N 
ATOM      2  C   UNL     1       2.554   6.569  18.860  0.00  0.00    +0.000 C 
ATOM      3  O   UNL     1       3.546   7.019  18.282  0.00  0.00    +0.000 OA
ATOM      4  H   UNL     1       0.844   7.014  19.925  0.00  0.00    +0.000 HD
ENDROOT
BRANCH   2   5
ATOM      5  C   UNL     1       2.379   5.056  19.119  0.00  0.00    +0.000 C 
ATOM      6  C   UNL     1       1.859   4.288  17.879  0.00  0.00    +0.000 C 
ATOM      7  C   UNL     1       1.740   2.777  18.191  0.00  0.00    +0.000 C 
ATOM      8  C   UNL     1       3.117   2.216  18.587  0.00  0.00    +0.000 C 
ATOM      9  C   UNL     1       3.648   2.959  19.822  0.00  0.00    +0.000 C 
ATOM     10  C   UNL     1       2.674   2.775  20.995  0.00  0.00    +0.000 C 
ATOM     11  C   UNL     1       1.286   3.315  20.612  0.00  0.00    +0.000 C 
ATOM     12  C   UNL     1       0.772   2.569  19.368  0.00  0.00    +0.000 C 
ATOM     13  C   UNL     1       1.396   4.816  20.290  0.00  0.00    +0.000 C 
ATOM     14  C   UNL     1       3.761   4.453  19.496  0.00  0.00    +0.000 C 
ENDBRANCH   2   5
BRANCH   1  16
ATOM     15  C   UNL     1       1.237   9.448  17.994  0.00  0.00    +0.000 C 
ATOM     16  C   UNL     1       1.718   8.852  19.318  0.00  0.00    +0.000 C 
BRANCH  16  17
ATOM     17  C   UNL     1       1.034   9.445  20.539  0.00  0.00    +0.000 A 
ATOM     18  C   UNL     1       0.486  10.734  20.465  0.00  0.00    +0.000 A 
ATOM     19  C   UNL     1      -0.073  11.298  21.603  0.00  0.00    +0.000 A 
ATOM     20  N   UNL     1      -0.123  10.678  22.800  0.00  0.00    +0.000 NA
ATOM     21  C   UNL     1       0.401   9.437  22.856  0.00  0.00    +0.000 A 
ATOM     22  C   UNL     1       0.976   8.786  21.773  0.00  0.00    +0.000 A 
ENDBRANCH  16  17
ENDBRANCH   1  16
TORSDOF 3
ENDMDL
MODEL 4
REMARK VINA RESULT:      -7.8      0.241      1.664
REMARK  Name = 
REMARK  4 active torsions:
REMARK  status: ('A' for Active; 'I' for Inactive)
REMARK    1  A    between atoms: C_1  and  C_2
REMARK    2  A    between atoms: C_2  and  N_3
REMARK    3  A    between atoms: C_2  and  C_16
REMARK    4  A    between atoms: C_4  and  C_6
REMARK                            x       y       z     vdW  Elec       q    Type
REMARK                         _______ _______ _______ _____ _____    ______ ____
ROOT
ATOM      1  N   UNL     1       1.486   7.576  19.551  0.00  0.00    +0.000 N 
ATOM      2  C   UNL     1       2.449   6.771  18.979  0.00  0.00    +0.000 C 
ATOM      3  O   UNL     1       3.344   7.241  18.275  0.00  0.00    +0.000 OA
ATOM      4  H   UNL     1       0.876   7.180  20.250  0.00  0.00    +0.000 HD
ENDROOT
BRANCH   2   5
ATOM      5  C   UNL     1       2.356   5.257  19.277  0.00  0.00    +0.000 C 
ATOM      6  C   UNL     1       1.402   4.931  20.453  0.00  0.00    +0.000 C 
ATOM      7  C   UNL     1       1.324   3.403  20.677  0.00  0.00    +0.000 C 
ATOM      8  C   UNL     1       0.802   2.714  19.404  0.00  0.00    +0.000 C 
ATOM      9  C   UNL     1       1.739   3.017  18.225  0.00  0.00    +0.000 C 
ATOM     10  C   UNL     1       3.149   2.495  18.538  0.00  0.00    +0.000 C 
ATOM     11  C   UNL     1       3.682   3.158  19.818  0.00  0.00    +0.000 C 
ATOM     12  C   UNL     1       2.727   2.856  20.987  0.00  0.00    +0.000 C 
ATOM     13  C   UNL     1       3.754   4.681  19.608  0.00  0.00    +0.000 C 
ATOM     14  C   UNL     1       1.805   4.535  18.016  0.00  0.00    +0.000 C 
ENDBRANCH   2   5
BRANCH   1  16
ATOM     15  C   UNL     1       1.045   9.585  18.203  0.00  0.00    +0.000 C 
ATOM     16  C   UNL     1       1.607   9.034  19.515  0.00  0.00    +0.000 C 
BRANCH  16  17
ATOM     17  C   UNL     1       0.962   9.633  20.754  0.00  0.00    +0.000 A 
ATOM     18  C   UNL     1       0.946   8.898  21.948  0.00  0.00    +0.000 A 
ATOM     19  C   UNL     1       0.294   9.420  23.056  0.00  0.00    +0.000 A 
ATOM     20  N   UNL     1      -0.342  10.609  23.060  0.00  0.00    +0.000 NA
ATOM     21  C   UNL     1      -0.314  11.309  21.908  0.00  0.00    +0.000 A 
ATOM     22  C   UNL     1       0.317  10.875  20.750  0.00  0.00    +0.000 A 
ENDBRANCH  16  17
ENDBRANCH   1  16
TORSDOF 3
ENDMDL
MODEL 5
REMARK VINA RESULT:      -7.8      3.980      6.729
REMARK  Name = 
REMARK  4 active torsions:
REMARK  status: ('A' for Active; 'I' for Inactive)
REMARK    1  A    between atoms: C_1  and  C_2
REMARK    2  A    between atoms: C_2  and  N_3
REMARK    3  A    between atoms: C_2  and  C_16
REMARK    4  A    between atoms: C_4  and  C_6
REMARK                            x       y       z     vdW  Elec       q    Type
REMARK                         _______ _______ _______ _____ _____    ______ ____
ROOT
ATOM      1  N   UNL     1       5.255   5.139  17.387  0.00  0.00    +0.000 N 
ATOM      2  C   UNL     1       4.099   5.610  17.972  0.00  0.00    +0.000 C 
ATOM      3  O   UNL     1       3.745   6.783  17.841  0.00  0.00    +0.000 OA
ATOM      4  H   UNL     1       5.422   4.144  17.376  0.00  0.00    +0.000 HD
ENDROOT
BRANCH   2   5
ATOM      5  C   UNL     1       3.266   4.593  18.785  0.00  0.00    +0.000 C 
ATOM      6  C   UNL     1       2.803   5.151  20.154  0.00  0.00    +0.000 C 
ATOM      7  C   UNL     1       1.945   4.103  20.902  0.00  0.00    +0.000 C 
ATOM      8  C   UNL     1       0.707   3.746  20.062  0.00  0.00    +0.000 C 
ATOM      9  C   UNL     1       1.143   3.182  18.701  0.00  0.00    +0.000 C 
ATOM     10  C   UNL     1       1.989   1.918  18.913  0.00  0.00    +0.000 C 
ATOM     11  C   UNL     1       3.224   2.250  19.766  0.00  0.00    +0.000 C 
ATOM     12  C   UNL     1       2.772   2.824  21.120  0.00  0.00    +0.000 C 
ATOM     13  C   UNL     1       4.079   3.300  19.034  0.00  0.00    +0.000 C 
ATOM     14  C   UNL     1       1.991   4.232  17.973  0.00  0.00    +0.000 C 
ENDBRANCH   2   5
BRANCH   1  16
ATOM     15  C   UNL     1       7.296   6.468  17.044  0.00  0.00    +0.000 C 
ATOM     16  C   UNL     1       5.996   5.953  16.423  0.00  0.00    +0.000 C 
BRANCH  16  17
ATOM     17  C   UNL     1       6.204   5.166  15.139  0.00  0.00    +0.000 A 
ATOM     18  C   UNL     1       7.350   5.397  14.365  0.00  0.00    +0.000 A 
ATOM     19  C   UNL     1       7.499   4.728  13.159  0.00  0.00    +0.000 A 
ATOM     20  N   UNL     1       6.594   3.855  12.669  0.00  0.00    +0.000 NA
ATOM     21  C   UNL     1       5.499   3.637  13.426  0.00  0.00    +0.000 A 
ATOM     22  C   UNL     1       5.264   4.252  14.648  0.00  0.00    +0.000 A 
ENDBRANCH  16  17
ENDBRANCH   1  16
TORSDOF 3
ENDMDL
MODEL 6
REMARK VINA RESULT:      -7.8      0.090      1.649
REMARK  Name = 
REMARK  4 active torsions:
REMARK  status: ('A' for Active; 'I' for Inactive)
REMARK    1  A    between atoms: C_1  and  C_2
REMARK    2  A    between atoms: C_2  and  N_3
REMARK    3  A    between atoms: C_2  and  C_16
REMARK    4  A    between atoms: C_4  and  C_6
REMARK                            x       y       z     vdW  Elec       q    Type
REMARK                         _______ _______ _______ _____ _____    ______ ____
ROOT
ATOM      1  N   UNL     1       1.547   7.444  19.377  0.00  0.00    +0.000 N 
ATOM      2  C   UNL     1       2.525   6.592  18.907  0.00  0.00    +0.000 C 
ATOM      3  O   UNL     1       3.509   7.018  18.299  0.00  0.00    +0.000 OA
ATOM      4  H   UNL     1       0.850   7.079  20.009  0.00  0.00    +0.000 HD
ENDROOT
BRANCH   2   5
ATOM      5  C   UNL     1       2.331   5.086  19.191  0.00  0.00    +0.000 C 
ATOM      6  C   UNL     1       1.755   4.313  17.979  0.00  0.00    +0.000 C 
ATOM      7  C   UNL     1       1.620   2.808  18.313  0.00  0.00    +0.000 C 
ATOM      8  C   UNL     1       2.999   2.226  18.668  0.00  0.00    +0.000 C 
ATOM      9  C   UNL     1       3.586   2.973  19.875  0.00  0.00    +0.000 C 
ATOM     10  C   UNL     1       2.650   2.821  21.083  0.00  0.00    +0.000 C 
ATOM     11  C   UNL     1       1.260   3.382  20.742  0.00  0.00    +0.000 C 
ATOM     12  C   UNL     1       0.689   2.632  19.525  0.00  0.00    +0.000 C 
ATOM     13  C   UNL     1       1.386   4.877  20.398  0.00  0.00    +0.000 C 
ATOM     14  C   UNL     1       3.714   4.462  19.527  0.00  0.00    +0.000 C 
ENDBRANCH   2   5
BRANCH   1  16
ATOM     15  C   UNL     1       1.222   9.483  18.041  0.00  0.00    +0.000 C 
ATOM     16  C   UNL     1       1.738   8.894  19.355  0.00  0.00    +0.000 C 
BRANCH  16  17
ATOM     17  C   UNL     1       1.107   9.513  20.592  0.00  0.00    +0.000 A 
ATOM     18  C   UNL     1       1.067   8.781  21.787  0.00  0.00    +0.000 A 
ATOM     19  C   UNL     1       0.426   9.324  22.892  0.00  0.00    +0.000 A 
ATOM     20  N   UNL     1      -0.177  10.531  22.891  0.00  0.00    +0.000 NA
ATOM     21  C   UNL     1      -0.125  11.227  21.737  0.00  0.00    +0.000 A 
ATOM     22  C   UNL     1       0.496  10.773  20.583  0.00  0.00    +0.000 A 
ENDBRANCH  16  17
ENDBRANCH   1  16
TORSDOF 3
ENDMDL
MODEL 7
REMARK VINA RESULT:      -7.8      0.179      1.957
REMARK  Name = 
REMARK  4 active torsions:
REMARK  status: ('A' for Active; 'I' for Inactive)
REMARK    1  A    between atoms: C_1  and  C_2
REMARK    2  A    between atoms: C_2  and  N_3
REMARK    3  A    between atoms: C_2  and  C_16
REMARK    4  A    between atoms: C_4  and  C_6
REMARK                            x       y       z     vdW  Elec       q    Type
REMARK                         _______ _______ _______ _____ _____    ______ ____
ROOT
ATOM      1  N   UNL     1       1.504   7.440  19.372  0.00  0.00    +0.000 N 
ATOM      2  C   UNL     1       2.524   6.632  18.915  0.00  0.00    +0.000 C 
ATOM      3  O   UNL     1       3.500   7.101  18.325  0.00  0.00    +0.000 OA
ATOM      4  H   UNL     1       0.812   7.043  19.990  0.00  0.00    +0.000 HD
ENDROOT
BRANCH   2   5
ATOM      5  C   UNL     1       2.389   5.117  19.190  0.00  0.00    +0.000 C 
ATOM      6  C   UNL     1       1.389   4.799  20.329  0.00  0.00    +0.000 C 
ATOM      7  C   UNL     1       1.270   3.269  20.531  0.00  0.00    +0.000 C 
ATOM      8  C   UNL     1       0.777   2.608  19.233  0.00  0.00    +0.000 C 
ATOM      9  C   UNL     1       1.759   2.904  18.090  0.00  0.00    +0.000 C 
ATOM     10  C   UNL     1       3.146   2.347  18.442  0.00  0.00    +0.000 C 
ATOM     11  C   UNL     1       3.650   2.984  19.748  0.00  0.00    +0.000 C 
ATOM     12  C   UNL     1       2.651   2.688  20.880  0.00  0.00    +0.000 C 
ATOM     13  C   UNL     1       3.762   4.507  19.560  0.00  0.00    +0.000 C 
ATOM     14  C   UNL     1       1.865   4.423  17.902  0.00  0.00    +0.000 C 
ENDBRANCH   2   5
BRANCH   1  16
ATOM     15  C   UNL     1       1.122   9.470  18.036  0.00  0.00    +0.000 C 
ATOM     16  C   UNL     1       1.635   8.897  19.359  0.00  0.00    +0.000 C 
BRANCH  16  17
ATOM     17  C   UNL     1       0.952   9.484  20.584  0.00  0.00    +0.000 A 
ATOM     18  C   UNL     1       0.429  10.784  20.526  0.00  0.00    +0.000 A 
ATOM     19  C   UNL     1      -0.129  11.341  21.668  0.00  0.00    +0.000 A 
ATOM     20  N   UNL     1      -0.199  10.704  22.855  0.00  0.00    +0.000 NA
ATOM     21  C   UNL     1       0.303   9.452  22.896  0.00  0.00    +0.000 A 
ATOM     22  C   UNL     1       0.874   8.808  21.807  0.00  0.00    +0.000 A 
ENDBRANCH  16  17
ENDBRANCH   1  16
TORSDOF 3
ENDMDL
MODEL 8
REMARK VINA RESULT:      -7.8      4.018      6.644
REMARK  Name = 
REMARK  4 active torsions:
REMARK  status: ('A' for Active; 'I' for Inactive)
REMARK    1  A    between atoms: C_1  and  C_2
REMARK    2  A    between atoms: C_2  and  N_3
REMARK    3  A    between atoms: C_2  and  C_16
REMARK    4  A    between atoms: C_4  and  C_6
REMARK                            x       y       z     vdW  Elec       q    Type
REMARK                         _______ _______ _______ _____ _____    ______ ____
ROOT
ATOM      1  N   UNL     1       5.300   5.070  17.361  0.00  0.00    +0.000 N 
ATOM      2  C   UNL     1       4.114   5.518  17.905  0.00  0.00    +0.000 C 
ATOM      3  O   UNL     1       3.743   6.685  17.763  0.00  0.00    +0.000 OA
ATOM      4  H   UNL     1       5.486   4.079  17.355  0.00  0.00    +0.000 HD
ENDROOT
BRANCH   2   5
ATOM      5  C   UNL     1       3.272   4.484  18.685  0.00  0.00    +0.000 C 
ATOM      6  C   UNL     1       4.052   3.182  18.994  0.00  0.00    +0.000 C 
ATOM      7  C   UNL     1       3.170   2.204  19.807  0.00  0.00    +0.000 C 
ATOM      8  C   UNL     1       2.748   2.861  21.133  0.00  0.00    +0.000 C 
ATOM      9  C   UNL     1       1.965   4.152  20.850  0.00  0.00    +0.000 C 
ATOM     10  C   UNL     1       0.709   3.826  20.029  0.00  0.00    +0.000 C 
ATOM     11  C   UNL     1       1.109   3.152  18.706  0.00  0.00    +0.000 C 
ATOM     12  C   UNL     1       1.902   1.867  19.005  0.00  0.00    +0.000 C 
ATOM     13  C   UNL     1       1.995   4.113  17.894  0.00  0.00    +0.000 C 
ATOM     14  C   UNL     1       2.852   5.109  20.045  0.00  0.00    +0.000 C 
ENDBRANCH   2   5
BRANCH   1  16
ATOM     15  C   UNL     1       7.357   6.386  17.073  0.00  0.00    +0.000 C 
ATOM     16  C   UNL     1       6.059   5.900  16.426  0.00  0.00    +0.000 C 
BRANCH  16  17
ATOM     17  C   UNL     1       6.273   5.144  15.124  0.00  0.00    +0.000 A 
ATOM     18  C   UNL     1       7.404   5.419  14.343  0.00  0.00    +0.000 A 
ATOM     19  C   UNL     1       7.556   4.778  13.122  0.00  0.00    +0.000 A 
ATOM     20  N   UNL     1       6.669   3.891  12.626  0.00  0.00    +0.000 NA
ATOM     21  C   UNL     1       5.589   3.630  13.390  0.00  0.00    +0.000 A 
ATOM     22  C   UNL     1       5.351   4.215  14.626  0.00  0.00    +0.000 A 
ENDBRANCH  16  17
ENDBRANCH   1  16
TORSDOF 3
ENDMDL
MODEL 9
REMARK VINA RESULT:      -7.8      3.986      6.810
REMARK  Name = 
REMARK  4 active torsions:
REMARK  status: ('A' for Active; 'I' for Inactive)
REMARK    1  A    between atoms: C_1  and  C_2
REMARK    2  A    between atoms: C_2  and  N_3
REMARK    3  A    between atoms: C_2  and  C_16
REMARK    4  A    between atoms: C_4  and  C_6
REMARK                            x       y       z     vdW  Elec       q    Type
REMARK                         _______ _______ _______ _____ _____    ______ ____
ROOT
ATOM      1  N   UNL     1       5.138   5.123  17.315  0.00  0.00    +0.000 N 
ATOM      2  C   UNL     1       4.049   5.642  17.983  0.00  0.00    +0.000 C 
ATOM      3  O   UNL     1       3.799   6.849  17.963  0.00  0.00    +0.000 OA
ATOM      4  H   UNL     1       5.213   4.121  17.216  0.00  0.00    +0.000 HD
ENDROOT
BRANCH   2   5
ATOM      5  C   UNL     1       3.156   4.637  18.745  0.00  0.00    +0.000 C 
ATOM      6  C   UNL     1       1.938   4.163  17.913  0.00  0.00    +0.000 C 
ATOM      7  C   UNL     1       1.106   3.133  18.714  0.00  0.00    +0.000 C 
ATOM      8  C   UNL     1       1.978   1.915  19.064  0.00  0.00    +0.000 C 
ATOM      9  C   UNL     1       3.188   2.362  19.897  0.00  0.00    +0.000 C 
ATOM     10  C   UNL     1       2.706   3.025  21.196  0.00  0.00    +0.000 C 
ATOM     11  C   UNL     1       1.817   4.236  20.867  0.00  0.00    +0.000 C 
ATOM     12  C   UNL     1       0.616   3.775  20.023  0.00  0.00    +0.000 C 
ATOM     13  C   UNL     1       2.634   5.262  20.061  0.00  0.00    +0.000 C 
ATOM     14  C   UNL     1       4.003   3.381  19.090  0.00  0.00    +0.000 C 
ENDBRANCH   2   5
BRANCH   1  16
ATOM     15  C   UNL     1       7.187   6.461  17.071  0.00  0.00    +0.000 C 
ATOM     16  C   UNL     1       5.916   5.947  16.390  0.00  0.00    +0.000 C 
BRANCH  16  17
ATOM     17  C   UNL     1       6.181   5.172  15.110  0.00  0.00    +0.000 A 
ATOM     18  C   UNL     1       7.333   5.450  14.360  0.00  0.00    +0.000 A 
ATOM     19  C   UNL     1       7.533   4.790  13.156  0.00  0.00    +0.000 A 
ATOM     20  N   UNL     1       6.674   3.883  12.647  0.00  0.00    +0.000 NA
ATOM     21  C   UNL     1       5.574   3.619  13.381  0.00  0.00    +0.000 A 
ATOM     22  C   UNL     1       5.289   4.222  14.598  0.00  0.00    +0.000 A 
ENDBRANCH  16  17
ENDBRANCH   1  16
TORSDOF 3
ENDMDL
