MODEL 1
REMARK VINA RESULT:      -7.6      0.000      0.000
REMARK  Name = 
REMARK  14 active torsions:
REMARK  status: ('A' for Active; 'I' for Inactive)
REMARK    1  A    between atoms: C_1  and  O_2
REMARK    2  A    between atoms: O_2  and  C_3
REMARK    3  A    between atoms: C_7  and  C_8
REMARK    4  A    between atoms: N_10  and  C_11
REMARK    5  A    between atoms: C_11  and  N_13
REMARK    6  A    between atoms: N_13  and  C_14
REMARK    7  A    between atoms: C_17  and  N_18
REMARK    8  A    between atoms: C_19  and  C_21
REMARK    9  A    between atoms: C_21  and  C_22
REMARK   10  A    between atoms: C_22  and  C_23
REMARK   11  A    between atoms: C_23  and  C_24
REMARK   12  A    between atoms: C_24  and  N_25
REMARK   13  A    between atoms: N_25  and  C_26
REMARK   14  A    between atoms: N_25  and  C_27
REMARK                            x       y       z     vdW  Elec       q    Type
REMARK                         _______ _______ _______ _____ _____    ______ ____
ROOT
ATOM      1  C   UNL     1       6.562   5.240  18.335  0.00  0.00    +0.000 A 
ATOM      2  C   UNL     1       5.948   6.010  17.329  0.00  0.00    +0.000 A 
ATOM      3  C   UNL     1       6.435   7.277  17.025  0.00  0.00    +0.000 A 
ATOM      4  C   UNL     1       7.544   7.815  17.703  0.00  0.00    +0.000 A 
ATOM      5  C   UNL     1       8.193   6.994  18.661  0.00  0.00    +0.000 A 
ATOM      6  C   UNL     1       7.691   5.737  18.981  0.00  0.00    +0.000 A 
ENDROOT
BRANCH   4   7
ATOM      7  N   UNL     1       8.011   9.153  17.443  0.00  0.00    +0.000 N 
ATOM      8  C   UNL     1       8.676   9.934  18.370  0.00  0.00    +0.000 C 
ATOM      9  O   UNL     1       8.954   9.533  19.482  0.00  0.00    +0.000 OA
ATOM     10  H   UNL     1       7.898   9.518  16.487  0.00  0.00    +0.000 HD
BRANCH   8  11
ATOM     11  C   UNL     1       9.178  11.299  17.999  0.00  0.00    +0.000 C 
BRANCH  11  12
ATOM     12  C   UNL     1      10.681  11.249  17.679  0.00  0.00    +0.000 C 
BRANCH  12  13
ATOM     13  C   UNL     1      11.395  12.484  18.222  0.00  0.00    +0.000 C 
BRANCH  13  14
ATOM     14  C   UNL     1      11.469  13.572  17.146  0.00  0.00    +0.000 C 
BRANCH  14  15
ATOM     15  N   UNL     1      10.551  14.695  17.430  0.00  0.00    +0.000 NA
ATOM     16  C   UNL     1      10.351  14.890  18.876  0.00  0.00    +0.000 C 
ATOM     17  C   UNL     1      11.096  15.928  16.841  0.00  0.00    +0.000 C 
ENDBRANCH  14  15
ENDBRANCH  13  14
ENDBRANCH  12  13
ENDBRANCH  11  12
ENDBRANCH   8  11
ENDBRANCH   4   7
BRANCH   1  18
ATOM     18  N   UNL     1       6.025   3.979  18.742  0.00  0.00    +0.000 N 
ATOM     19  H   UNL     1       6.654   3.159  18.708  0.00  0.00    +0.000 HD
BRANCH  18  20
ATOM     20  C   UNL     1       4.712   3.859  19.263  0.00  0.00    +0.000 C 
ATOM     21  S   UNL     1       4.118   2.555  19.414  0.00  0.00    +0.000 S 
BRANCH  20  24
ATOM     22  C   UNL     1       2.976   5.650  18.903  0.00  0.00    +0.000 C 
ATOM     23  O   UNL     1       2.541   5.125  17.884  0.00  0.00    +0.000 OA
ATOM     24  N   UNL     1       4.015   5.081  19.582  0.00  0.00    +0.000 N 
ATOM     25  H   UNL     1       4.379   5.541  20.414  0.00  0.00    +0.000 HD
BRANCH  22  30
ATOM     26  C   UNL     1       1.667   9.226  18.955  0.00  0.00    +0.000 A 
ATOM     27  C   UNL     1       1.088   9.284  20.235  0.00  0.00    +0.000 A 
ATOM     28  C   UNL     1       1.102   8.171  21.062  0.00  0.00    +0.000 A 
ATOM     29  C   UNL     1       1.693   6.987  20.645  0.00  0.00    +0.000 A 
ATOM     30  C   UNL     1       2.313   6.906  19.379  0.00  0.00    +0.000 A 
ATOM     31  C   UNL     1       2.286   8.038  18.545  0.00  0.00    +0.000 A 
BRANCH  26  33
ATOM     32  C   UNL     1       1.761  11.602  18.511  0.00  0.00    +0.000 C 
ATOM     33  O   UNL     1       1.632  10.289  18.111  0.00  0.00    +0.000 OA
ENDBRANCH  26  33
ENDBRANCH  22  30
ENDBRANCH  20  24
ENDBRANCH  18  20
ENDBRANCH   1  18
TORSDOF 11
ENDMDL
MODEL 2
REMARK VINA RESULT:      -7.6      5.885      8.844
REMARK  Name = 
REMARK  14 active torsions:
REMARK  status: ('A' for Active; 'I' for Inactive)
REMARK    1  A    between atoms: C_1  and  O_2
REMARK    2  A    between atoms: O_2  and  C_3
REMARK    3  A    between atoms: C_7  and  C_8
REMARK    4  A    between atoms: N_10  and  C_11
REMARK    5  A    between atoms: C_11  and  N_13
REMARK    6  A    between atoms: N_13  and  C_14
REMARK    7  A    between atoms: C_17  and  N_18
REMARK    8  A    between atoms: C_19  and  C_21
REMARK    9  A    between atoms: C_21  and  C_22
REMARK   10  A    between atoms: C_22  and  C_23
REMARK   11  A    between atoms: C_23  and  C_24
REMARK   12  A    between atoms: C_24  and  N_25
REMARK   13  A    between atoms: N_25  and  C_26
REMARK   14  A    between atoms: N_25  and  C_27
REMARK                            x       y       z     vdW  Elec       q    Type
REMARK                         _______ _______ _______ _____ _____    ______ ____
ROOT
ATOM      1  C   UNL     1       1.345   9.192  20.195  0.00  0.00    +0.000 A 
ATOM      2  C   UNL     1       1.536   9.308  18.804  0.00  0.00    +0.000 A 
ATOM      3  C   UNL     1       1.989   8.219  18.069  0.00  0.00    +0.000 A 
ATOM      4  C   UNL     1       2.262   6.984  18.686  0.00  0.00    +0.000 A 
ATOM      5  C   UNL     1       1.994   6.866  20.074  0.00  0.00    +0.000 A 
ATOM      6  C   UNL     1       1.563   7.963  20.812  0.00  0.00    +0.000 A 
ENDROOT
BRANCH   4   7
ATOM      7  N   UNL     1       2.799   5.871  17.943  0.00  0.00    +0.000 N 
ATOM      8  C   UNL     1       4.117   5.776  17.537  0.00  0.00    +0.000 C 
ATOM      9  O   UNL     1       4.947   6.620  17.809  0.00  0.00    +0.000 OA
ATOM     10  H   UNL     1       2.173   5.074  17.765  0.00  0.00    +0.000 HD
BRANCH   8  11
ATOM     11  C   UNL     1       4.607   4.556  16.814  0.00  0.00    +0.000 C 
BRANCH  11  12
ATOM     12  C   UNL     1       3.652   3.375  17.047  0.00  0.00    +0.000 C 
BRANCH  12  13
ATOM     13  C   UNL     1       4.077   2.562  18.268  0.00  0.00    +0.000 C 
BRANCH  13  14
ATOM     14  C   UNL     1       2.846   2.091  19.049  0.00  0.00    +0.000 C 
BRANCH  14  15
ATOM     15  N   UNL     1       2.274   3.168  19.882  0.00  0.00    +0.000 NA
ATOM     16  C   UNL     1       0.823   3.319  19.670  0.00  0.00    +0.000 C 
ATOM     17  C   UNL     1       2.531   2.874  21.300  0.00  0.00    +0.000 C 
ENDBRANCH  14  15
ENDBRANCH  13  14
ENDBRANCH  12  13
ENDBRANCH  11  12
ENDBRANCH   8  11
ENDBRANCH   4   7
BRANCH   1  18
ATOM     18  N   UNL     1       0.980  10.319  20.995  0.00  0.00    +0.000 N 
ATOM     19  H   UNL     1       1.718  11.011  21.210  0.00  0.00    +0.000 HD
BRANCH  18  20
ATOM     20  C   UNL     1      -0.358  10.542  21.405  0.00  0.00    +0.000 C 
ATOM     21  S   UNL     1      -0.660  10.705  22.804  0.00  0.00    +0.000 S 
BRANCH  20  24
ATOM     22  C   UNL     1      -1.523  11.463  19.369  0.00  0.00    +0.000 C 
ATOM     23  O   UNL     1      -0.758  12.416  19.272  0.00  0.00    +0.000 OA
ATOM     24  N   UNL     1      -1.370  10.554  20.376  0.00  0.00    +0.000 N 
ATOM     25  H   UNL     1      -2.027   9.781  20.456  0.00  0.00    +0.000 HD
BRANCH  22  30
ATOM     26  C   UNL     1      -3.341  10.419  16.190  0.00  0.00    +0.000 A 
ATOM     27  C   UNL     1      -4.586  11.046  16.370  0.00  0.00    +0.000 A 
ATOM     28  C   UNL     1      -4.840  11.781  17.519  0.00  0.00    +0.000 A 
ATOM     29  C   UNL     1      -3.871  11.915  18.502  0.00  0.00    +0.000 A 
ATOM     30  C   UNL     1      -2.599  11.325  18.336  0.00  0.00    +0.000 A 
ATOM     31  C   UNL     1      -2.355  10.574  17.173  0.00  0.00    +0.000 A 
BRANCH  26  33
ATOM     32  C   UNL     1      -3.318  10.065  13.796  0.00  0.00    +0.000 C 
ATOM     33  O   UNL     1      -3.081   9.661  15.094  0.00  0.00    +0.000 OA
ENDBRANCH  26  33
ENDBRANCH  22  30
ENDBRANCH  20  24
ENDBRANCH  18  20
ENDBRANCH   1  18
TORSDOF 11
ENDMDL
MODEL 3
REMARK VINA RESULT:      -7.5      1.077      1.635
REMARK  Name = 
REMARK  14 active torsions:
REMARK  status: ('A' for Active; 'I' for Inactive)
REMARK    1  A    between atoms: C_1  and  O_2
REMARK    2  A    between atoms: O_2  and  C_3
REMARK    3  A    between atoms: C_7  and  C_8
REMARK    4  A    between atoms: N_10  and  C_11
REMARK    5  A    between atoms: C_11  and  N_13
REMARK    6  A    between atoms: N_13  and  C_14
REMARK    7  A    between atoms: C_17  and  N_18
REMARK    8  A    between atoms: C_19  and  C_21
REMARK    9  A    between atoms: C_21  and  C_22
REMARK   10  A    between atoms: C_22  and  C_23
REMARK   11  A    between atoms: C_23  and  C_24
REMARK   12  A    between atoms: C_24  and  N_25
REMARK   13  A    between atoms: N_25  and  C_26
REMARK   14  A    between atoms: N_25  and  C_27
REMARK                            x       y       z     vdW  Elec       q    Type
REMARK                         _______ _______ _______ _____ _____    ______ ____
ROOT
ATOM      1  C   UNL     1       6.536   5.102  18.210  0.00  0.00    +0.000 A 
ATOM      2  C   UNL     1       6.198   5.792  17.029  0.00  0.00    +0.000 A 
ATOM      3  C   UNL     1       6.773   7.028  16.754  0.00  0.00    +0.000 A 
ATOM      4  C   UNL     1       7.699   7.615  17.636  0.00  0.00    +0.000 A 
ATOM      5  C   UNL     1       8.081   6.872  18.783  0.00  0.00    +0.000 A 
ATOM      6  C   UNL     1       7.488   5.646  19.068  0.00  0.00    +0.000 A 
ENDROOT
BRANCH   4   7
ATOM      7  N   UNL     1       8.246   8.926  17.393  0.00  0.00    +0.000 N 
ATOM      8  C   UNL     1       8.844   9.707  18.365  0.00  0.00    +0.000 C 
ATOM      9  O   UNL     1       8.989   9.327  19.510  0.00  0.00    +0.000 OA
ATOM     10  H   UNL     1       8.246   9.268  16.423  0.00  0.00    +0.000 HD
BRANCH   8  11
ATOM     11  C   UNL     1       9.438  11.040  18.016  0.00  0.00    +0.000 C 
BRANCH  11  12
ATOM     12  C   UNL     1      10.546  11.412  19.013  0.00  0.00    +0.000 C 
BRANCH  12  13
ATOM     13  C   UNL     1      10.992  12.859  18.817  0.00  0.00    +0.000 C 
BRANCH  13  14
ATOM     14  C   UNL     1       9.786  13.801  18.879  0.00  0.00    +0.000 C 
BRANCH  14  15
ATOM     15  N   UNL     1       9.807  14.800  17.790  0.00  0.00    +0.000 NA
ATOM     16  C   UNL     1       9.470  16.150  18.273  0.00  0.00    +0.000 C 
ATOM     17  C   UNL     1      11.144  14.821  17.177  0.00  0.00    +0.000 C 
ENDBRANCH  14  15
ENDBRANCH  13  14
ENDBRANCH  12  13
ENDBRANCH  11  12
ENDBRANCH   8  11
ENDBRANCH   4   7
BRANCH   1  18
ATOM     18  N   UNL     1       5.888   3.881  18.572  0.00  0.00    +0.000 N 
ATOM     19  H   UNL     1       6.354   2.997  18.306  0.00  0.00    +0.000 HD
BRANCH  18  20
ATOM     20  C   UNL     1       4.701   3.865  19.346  0.00  0.00    +0.000 C 
ATOM     21  S   UNL     1       4.235   2.628  19.918  0.00  0.00    +0.000 S 
BRANCH  20  24
ATOM     22  C   UNL     1       3.118   5.680  18.604  0.00  0.00    +0.000 C 
ATOM     23  O   UNL     1       2.873   5.130  17.536  0.00  0.00    +0.000 OA
ATOM     24  N   UNL     1       3.990   5.113  19.488  0.00  0.00    +0.000 N 
ATOM     25  H   UNL     1       4.199   5.592  20.361  0.00  0.00    +0.000 HD
BRANCH  22  30
ATOM     26  C   UNL     1       1.237   8.387  20.513  0.00  0.00    +0.000 A 
ATOM     27  C   UNL     1       1.071   9.359  19.511  0.00  0.00    +0.000 A 
ATOM     28  C   UNL     1       1.582   9.149  18.239  0.00  0.00    +0.000 A 
ATOM     29  C   UNL     1       2.256   7.977  17.932  0.00  0.00    +0.000 A 
ATOM     30  C   UNL     1       2.411   6.966  18.905  0.00  0.00    +0.000 A 
ATOM     31  C   UNL     1       1.897   7.192  20.195  0.00  0.00    +0.000 A 
BRANCH  26  33
ATOM     32  C   UNL     1       1.415   9.372  22.715  0.00  0.00    +0.000 C 
ATOM     33  O   UNL     1       0.782   8.584  21.776  0.00  0.00    +0.000 OA
ENDBRANCH  26  33
ENDBRANCH  22  30
ENDBRANCH  20  24
ENDBRANCH  18  20
ENDBRANCH   1  18
TORSDOF 11
ENDMDL
MODEL 4
REMARK VINA RESULT:      -7.4      5.294      9.513
REMARK  Name = 
REMARK  14 active torsions:
REMARK  status: ('A' for Active; 'I' for Inactive)
REMARK    1  A    between atoms: C_1  and  O_2
REMARK    2  A    between atoms: O_2  and  C_3
REMARK    3  A    between atoms: C_7  and  C_8
REMARK    4  A    between atoms: N_10  and  C_11
REMARK    5  A    between atoms: C_11  and  N_13
REMARK    6  A    between atoms: N_13  and  C_14
REMARK    7  A    between atoms: C_17  and  N_18
REMARK    8  A    between atoms: C_19  and  C_21
REMARK    9  A    between atoms: C_21  and  C_22
REMARK   10  A    between atoms: C_22  and  C_23
REMARK   11  A    between atoms: C_23  and  C_24
REMARK   12  A    between atoms: C_24  and  N_25
REMARK   13  A    between atoms: N_25  and  C_26
REMARK   14  A    between atoms: N_25  and  C_27
REMARK                            x       y       z     vdW  Elec       q    Type
REMARK                         _______ _______ _______ _____ _____    ______ ____
ROOT
ATOM      1  C   UNL     1       0.699   9.591  19.553  0.00  0.00    +0.000 A 
ATOM      2  C   UNL     1       1.028   8.597  20.495  0.00  0.00    +0.000 A 
ATOM      3  C   UNL     1       1.895   7.568  20.149  0.00  0.00    +0.000 A 
ATOM      4  C   UNL     1       2.465   7.493  18.865  0.00  0.00    +0.000 A 
ATOM      5  C   UNL     1       2.179   8.543  17.955  0.00  0.00    +0.000 A 
ATOM      6  C   UNL     1       1.293   9.560  18.294  0.00  0.00    +0.000 A 
ENDROOT
BRANCH   4   7
ATOM      7  N   UNL     1       3.309   6.392  18.477  0.00  0.00    +0.000 N 
ATOM      8  C   UNL     1       2.849   5.248  17.849  0.00  0.00    +0.000 C 
ATOM      9  O   UNL     1       1.685   5.096  17.541  0.00  0.00    +0.000 OA
ATOM     10  H   UNL     1       4.323   6.498  18.618  0.00  0.00    +0.000 HD
BRANCH   8  11
ATOM     11  C   UNL     1       3.805   4.171  17.429  0.00  0.00    +0.000 C 
BRANCH  11  12
ATOM     12  C   UNL     1       3.100   2.806  17.409  0.00  0.00    +0.000 C 
BRANCH  12  13
ATOM     13  C   UNL     1       3.104   2.170  18.797  0.00  0.00    +0.000 C 
BRANCH  13  14
ATOM     14  C   UNL     1       1.673   2.047  19.331  0.00  0.00    +0.000 C 
BRANCH  14  15
ATOM     15  N   UNL     1       1.554   2.548  20.715  0.00  0.00    +0.000 NA
ATOM     16  C   UNL     1       2.841   2.498  21.432  0.00  0.00    +0.000 C 
ATOM     17  C   UNL     1       1.065   3.935  20.690  0.00  0.00    +0.000 C 
ENDBRANCH  14  15
ENDBRANCH  13  14
ENDBRANCH  12  13
ENDBRANCH  11  12
ENDBRANCH   8  11
ENDBRANCH   4   7
BRANCH   1  18
ATOM     18  N   UNL     1      -0.268  10.604  19.843  0.00  0.00    +0.000 N 
ATOM     19  H   UNL     1      -1.222  10.475  19.464  0.00  0.00    +0.000 HD
BRANCH  18  20
ATOM     20  C   UNL     1       0.029  11.700  20.690  0.00  0.00    +0.000 C 
ATOM     21  S   UNL     1      -0.579  11.782  21.994  0.00  0.00    +0.000 S 
BRANCH  20  24
ATOM     22  C   UNL     1       0.798  13.399  18.996  0.00  0.00    +0.000 C 
ATOM     23  O   UNL     1      -0.134  13.168  18.234  0.00  0.00    +0.000 OA
ATOM     24  N   UNL     1       0.914  12.715  20.171  0.00  0.00    +0.000 N 
ATOM     25  H   UNL     1       1.705  12.903  20.784  0.00  0.00    +0.000 HD
BRANCH  22  30
ATOM     26  C   UNL     1       2.259  16.839  18.265  0.00  0.00    +0.000 A 
ATOM     27  C   UNL     1       3.565  16.501  17.867  0.00  0.00    +0.000 A 
ATOM     28  C   UNL     1       3.972  15.175  17.857  0.00  0.00    +0.000 A 
ATOM     29  C   UNL     1       3.100  14.164  18.231  0.00  0.00    +0.000 A 
ATOM     30  C   UNL     1       1.773  14.467  18.604  0.00  0.00    +0.000 A 
ATOM     31  C   UNL     1       1.371  15.815  18.619  0.00  0.00    +0.000 A 
BRANCH  26  33
ATOM     32  C   UNL     1       0.988  18.631  19.278  0.00  0.00    +0.000 C 
ATOM     33  O   UNL     1       1.847  18.132  18.321  0.00  0.00    +0.000 OA
ENDBRANCH  26  33
ENDBRANCH  22  30
ENDBRANCH  20  24
ENDBRANCH  18  20
ENDBRANCH   1  18
TORSDOF 11
ENDMDL
MODEL 5
REMARK VINA RESULT:      -7.4      5.828      8.831
REMARK  Name = 
REMARK  14 active torsions:
REMARK  status: ('A' for Active; 'I' for Inactive)
REMARK    1  A    between atoms: C_1  and  O_2
REMARK    2  A    between atoms: O_2  and  C_3
REMARK    3  A    between atoms: C_7  and  C_8
REMARK    4  A    between atoms: N_10  and  C_11
REMARK    5  A    between atoms: C_11  and  N_13
REMARK    6  A    between atoms: N_13  and  C_14
REMARK    7  A    between atoms: C_17  and  N_18
REMARK    8  A    between atoms: C_19  and  C_21
REMARK    9  A    between atoms: C_21  and  C_22
REMARK   10  A    between atoms: C_22  and  C_23
REMARK   11  A    between atoms: C_23  and  C_24
REMARK   12  A    between atoms: C_24  and  N_25
REMARK   13  A    between atoms: N_25  and  C_26
REMARK   14  A    between atoms: N_25  and  C_27
REMARK                            x       y       z     vdW  Elec       q    Type
REMARK                         _______ _______ _______ _____ _____    ______ ____
ROOT
ATOM      1  C   UNL     1       0.938   9.682  18.844  0.00  0.00    +0.000 A 
ATOM      2  C   UNL     1       0.875   9.177  20.157  0.00  0.00    +0.000 A 
ATOM      3  C   UNL     1       1.575   8.025  20.496  0.00  0.00    +0.000 A 
ATOM      4  C   UNL     1       2.361   7.342  19.549  0.00  0.00    +0.000 A 
ATOM      5  C   UNL     1       2.470   7.907  18.253  0.00  0.00    +0.000 A 
ATOM      6  C   UNL     1       1.751   9.046  17.908  0.00  0.00    +0.000 A 
ENDROOT
BRANCH   4   7
ATOM      7  N   UNL     1       3.033   6.110  19.874  0.00  0.00    +0.000 N 
ATOM      8  C   UNL     1       2.568   4.857  19.517  0.00  0.00    +0.000 C 
ATOM      9  O   UNL     1       1.559   4.699  18.861  0.00  0.00    +0.000 OA
ATOM     10  H   UNL     1       3.947   6.177  20.343  0.00  0.00    +0.000 HD
BRANCH   8  11
ATOM     11  C   UNL     1       3.360   3.626  19.848  0.00  0.00    +0.000 C 
BRANCH  11  12
ATOM     12  C   UNL     1       3.992   3.037  18.577  0.00  0.00    +0.000 C 
BRANCH  12  13
ATOM     13  C   UNL     1       4.962   4.030  17.940  0.00  0.00    +0.000 C 
BRANCH  13  14
ATOM     14  C   UNL     1       4.783   4.048  16.419  0.00  0.00    +0.000 C 
BRANCH  14  15
ATOM     15  N   UNL     1       6.053   3.788  15.709  0.00  0.00    +0.000 NA
ATOM     16  C   UNL     1       5.974   4.155  14.284  0.00  0.00    +0.000 C 
ATOM     17  C   UNL     1       7.133   4.553  16.351  0.00  0.00    +0.000 C 
ENDBRANCH  14  15
ENDBRANCH  13  14
ENDBRANCH  12  13
ENDBRANCH  11  12
ENDBRANCH   8  11
ENDBRANCH   4   7
BRANCH   1  18
ATOM     18  N   UNL     1       0.151  10.803  18.436  0.00  0.00    +0.000 N 
ATOM     19  H   UNL     1      -0.618  10.627  17.766  0.00  0.00    +0.000 HD
BRANCH  18  20
ATOM     20  C   UNL     1       0.343  12.093  18.990  0.00  0.00    +0.000 C 
ATOM     21  S   UNL     1       1.442  12.908  18.541  0.00  0.00    +0.000 S 
BRANCH  20  24
ATOM     22  C   UNL     1      -0.369  12.489  21.374  0.00  0.00    +0.000 C 
ATOM     23  O   UNL     1       0.685  12.066  21.836  0.00  0.00    +0.000 OA
ATOM     24  N   UNL     1      -0.572  12.509  20.025  0.00  0.00    +0.000 N 
ATOM     25  H   UNL     1      -1.462  12.843  19.658  0.00  0.00    +0.000 HD
BRANCH  22  30
ATOM     26  C   UNL     1      -3.691  12.937  23.184  0.00  0.00    +0.000 A 
ATOM     27  C   UNL     1      -3.358  13.934  24.117  0.00  0.00    +0.000 A 
ATOM     28  C   UNL     1      -2.068  14.439  24.174  0.00  0.00    +0.000 A 
ATOM     29  C   UNL     1      -1.089  13.976  23.308  0.00  0.00    +0.000 A 
ATOM     30  C   UNL     1      -1.397  12.999  22.337  0.00  0.00    +0.000 A 
ATOM     31  C   UNL     1      -2.706  12.487  22.293  0.00  0.00    +0.000 A 
BRANCH  26  33
ATOM     32  C   UNL     1      -5.987  12.795  23.933  0.00  0.00    +0.000 C 
ATOM     33  O   UNL     1      -4.935  12.397  23.134  0.00  0.00    +0.000 OA
ENDBRANCH  26  33
ENDBRANCH  22  30
ENDBRANCH  20  24
ENDBRANCH  18  20
ENDBRANCH   1  18
TORSDOF 11
ENDMDL
MODEL 6
REMARK VINA RESULT:      -7.4      3.750      7.876
REMARK  Name = 
REMARK  14 active torsions:
REMARK  status: ('A' for Active; 'I' for Inactive)
REMARK    1  A    between atoms: C_1  and  O_2
REMARK    2  A    between atoms: O_2  and  C_3
REMARK    3  A    between atoms: C_7  and  C_8
REMARK    4  A    between atoms: N_10  and  C_11
REMARK    5  A    between atoms: C_11  and  N_13
REMARK    6  A    between atoms: N_13  and  C_14
REMARK    7  A    between atoms: C_17  and  N_18
REMARK    8  A    between atoms: C_19  and  C_21
REMARK    9  A    between atoms: C_21  and  C_22
REMARK   10  A    between atoms: C_22  and  C_23
REMARK   11  A    between atoms: C_23  and  C_24
REMARK   12  A    between atoms: C_24  and  N_25
REMARK   13  A    between atoms: N_25  and  C_26
REMARK   14  A    between atoms: N_25  and  C_27
REMARK                            x       y       z     vdW  Elec       q    Type
REMARK                         _______ _______ _______ _____ _____    ______ ____
ROOT
ATOM      1  C   UNL     1       1.091   9.242  19.534  0.00  0.00    +0.000 A 
ATOM      2  C   UNL     1       1.545   9.189  18.202  0.00  0.00    +0.000 A 
ATOM      3  C   UNL     1       2.340   8.130  17.776  0.00  0.00    +0.000 A 
ATOM      4  C   UNL     1       2.704   7.093  18.654  0.00  0.00    +0.000 A 
ATOM      5  C   UNL     1       2.176   7.126  19.970  0.00  0.00    +0.000 A 
ATOM      6  C   UNL     1       1.401   8.197  20.401  0.00  0.00    +0.000 A 
ENDROOT
BRANCH   4   7
ATOM      7  N   UNL     1       3.584   6.029  18.240  0.00  0.00    +0.000 N 
ATOM      8  C   UNL     1       3.152   4.772  17.857  0.00  0.00    +0.000 C 
ATOM      9  O   UNL     1       1.976   4.474  17.806  0.00  0.00    +0.000 OA
ATOM     10  H   UNL     1       4.587   6.245  18.164  0.00  0.00    +0.000 HD
BRANCH   8  11
ATOM     11  C   UNL     1       4.132   3.738  17.387  0.00  0.00    +0.000 C 
BRANCH  11  12
ATOM     12  C   UNL     1       4.863   4.226  16.126  0.00  0.00    +0.000 C 
BRANCH  12  13
ATOM     13  C   UNL     1       6.350   4.437  16.405  0.00  0.00    +0.000 C 
BRANCH  13  14
ATOM     14  C   UNL     1       6.685   5.932  16.400  0.00  0.00    +0.000 C 
BRANCH  14  15
ATOM     15  N   UNL     1       7.642   6.287  17.468  0.00  0.00    +0.000 NA
ATOM     16  C   UNL     1       7.766   7.746  17.634  0.00  0.00    +0.000 C 
ATOM     17  C   UNL     1       7.198   5.689  18.737  0.00  0.00    +0.000 C 
ENDBRANCH  14  15
ENDBRANCH  13  14
ENDBRANCH  12  13
ENDBRANCH  11  12
ENDBRANCH   8  11
ENDBRANCH   4   7
BRANCH   1  18
ATOM     18  N   UNL     1       0.360  10.365  20.029  0.00  0.00    +0.000 N 
ATOM     19  H   UNL     1       0.363  10.524  21.052  0.00  0.00    +0.000 HD
BRANCH  18  20
ATOM     20  C   UNL     1      -0.272  11.289  19.160  0.00  0.00    +0.000 C 
ATOM     21  S   UNL     1      -1.615  11.039  18.703  0.00  0.00    +0.000 S 
BRANCH  20  24
ATOM     22  C   UNL     1       1.437  13.117  19.461  0.00  0.00    +0.000 C 
ATOM     23  O   UNL     1       1.696  12.784  20.612  0.00  0.00    +0.000 OA
ATOM     24  N   UNL     1       0.499  12.434  18.741  0.00  0.00    +0.000 N 
ATOM     25  H   UNL     1       0.280  12.736  17.794  0.00  0.00    +0.000 HD
BRANCH  22  30
ATOM     26  C   UNL     1       4.284  15.146  17.951  0.00  0.00    +0.000 A 
ATOM     27  C   UNL     1       3.668  16.399  17.790  0.00  0.00    +0.000 A 
ATOM     28  C   UNL     1       2.340  16.578  18.146  0.00  0.00    +0.000 A 
ATOM     29  C   UNL     1       1.601  15.529  18.673  0.00  0.00    +0.000 A 
ATOM     30  C   UNL     1       2.199  14.267  18.878  0.00  0.00    +0.000 A 
ATOM     31  C   UNL     1       3.544  14.093  18.505  0.00  0.00    +0.000 A 
BRANCH  26  33
ATOM     32  C   UNL     1       6.670  15.345  18.297  0.00  0.00    +0.000 C 
ATOM     33  O   UNL     1       5.570  14.933  17.573  0.00  0.00    +0.000 OA
ENDBRANCH  26  33
ENDBRANCH  22  30
ENDBRANCH  20  24
ENDBRANCH  18  20
ENDBRANCH   1  18
TORSDOF 11
ENDMDL
MODEL 7
REMARK VINA RESULT:      -7.4      5.257      8.705
REMARK  Name = 
REMARK  14 active torsions:
REMARK  status: ('A' for Active; 'I' for Inactive)
REMARK    1  A    between atoms: C_1  and  O_2
REMARK    2  A    between atoms: O_2  and  C_3
REMARK    3  A    between atoms: C_7  and  C_8
REMARK    4  A    between atoms: N_10  and  C_11
REMARK    5  A    between atoms: C_11  and  N_13
REMARK    6  A    between atoms: N_13  and  C_14
REMARK    7  A    between atoms: C_17  and  N_18
REMARK    8  A    between atoms: C_19  and  C_21
REMARK    9  A    between atoms: C_21  and  C_22
REMARK   10  A    between atoms: C_22  and  C_23
REMARK   11  A    between atoms: C_23  and  C_24
REMARK   12  A    between atoms: C_24  and  N_25
REMARK   13  A    between atoms: N_25  and  C_26
REMARK   14  A    between atoms: N_25  and  C_27
REMARK                            x       y       z     vdW  Elec       q    Type
REMARK                         _______ _______ _______ _____ _____    ______ ____
ROOT
ATOM      1  C   UNL     1       0.959   9.578  18.676  0.00  0.00    +0.000 A 
ATOM      2  C   UNL     1       0.888   9.084  19.993  0.00  0.00    +0.000 A 
ATOM      3  C   UNL     1       1.609   7.951  20.354  0.00  0.00    +0.000 A 
ATOM      4  C   UNL     1       2.422   7.277  19.424  0.00  0.00    +0.000 A 
ATOM      5  C   UNL     1       2.537   7.832  18.124  0.00  0.00    +0.000 A 
ATOM      6  C   UNL     1       1.799   8.952  17.758  0.00  0.00    +0.000 A 
ENDROOT
BRANCH   4   7
ATOM      7  N   UNL     1       3.116   6.062  19.771  0.00  0.00    +0.000 N 
ATOM      8  C   UNL     1       2.516   4.818  19.828  0.00  0.00    +0.000 C 
ATOM      9  O   UNL     1       1.346   4.644  19.553  0.00  0.00    +0.000 OA
ATOM     10  H   UNL     1       4.133   6.122  19.918  0.00  0.00    +0.000 HD
BRANCH   8  11
ATOM     11  C   UNL     1       3.325   3.594  20.144  0.00  0.00    +0.000 C 
BRANCH  11  12
ATOM     12  C   UNL     1       4.620   3.579  19.317  0.00  0.00    +0.000 C 
BRANCH  12  13
ATOM     13  C   UNL     1       4.315   3.428  17.829  0.00  0.00    +0.000 C 
BRANCH  13  14
ATOM     14  C   UNL     1       5.344   4.199  16.994  0.00  0.00    +0.000 C 
BRANCH  14  15
ATOM     15  N   UNL     1       5.325   5.646  17.291  0.00  0.00    +0.000 NA
ATOM     16  C   UNL     1       6.573   6.093  17.934  0.00  0.00    +0.000 C 
ATOM     17  C   UNL     1       5.125   6.395  16.041  0.00  0.00    +0.000 C 
ENDBRANCH  14  15
ENDBRANCH  13  14
ENDBRANCH  12  13
ENDBRANCH  11  12
ENDBRANCH   8  11
ENDBRANCH   4   7
BRANCH   1  18
ATOM     18  N   UNL     1       0.153  10.678  18.247  0.00  0.00    +0.000 N 
ATOM     19  H   UNL     1      -0.112  10.713  17.248  0.00  0.00    +0.000 HD
BRANCH  18  20
ATOM     20  C   UNL     1      -0.347  11.639  19.159  0.00  0.00    +0.000 C 
ATOM     21  S   UNL     1       0.569  12.478  19.890  0.00  0.00    +0.000 S 
BRANCH  20  24
ATOM     22  C   UNL     1      -2.739  11.683  18.369  0.00  0.00    +0.000 C 
ATOM     23  O   UNL     1      -2.425  11.630  17.185  0.00  0.00    +0.000 OA
ATOM     24  N   UNL     1      -1.778  11.698  19.337  0.00  0.00    +0.000 N 
ATOM     25  H   UNL     1      -2.054  11.764  20.315  0.00  0.00    +0.000 HD
BRANCH  22  30
ATOM     26  C   UNL     1      -5.996  12.391  20.212  0.00  0.00    +0.000 A 
ATOM     27  C   UNL     1      -6.926  11.756  19.372  0.00  0.00    +0.000 A 
ATOM     28  C   UNL     1      -6.506  11.125  18.211  0.00  0.00    +0.000 A 
ATOM     29  C   UNL     1      -5.163  11.103  17.864  0.00  0.00    +0.000 A 
ATOM     30  C   UNL     1      -4.199  11.703  18.703  0.00  0.00    +0.000 A 
ATOM     31  C   UNL     1      -4.637  12.348  19.873  0.00  0.00    +0.000 A 
BRANCH  26  33
ATOM     32  C   UNL     1      -5.532  13.418  22.353  0.00  0.00    +0.000 C 
ATOM     33  O   UNL     1      -6.385  13.050  21.333  0.00  0.00    +0.000 OA
ENDBRANCH  26  33
ENDBRANCH  22  30
ENDBRANCH  20  24
ENDBRANCH  18  20
ENDBRANCH   1  18
TORSDOF 11
ENDMDL
MODEL 8
REMARK VINA RESULT:      -7.3      1.549      2.235
REMARK  Name = 
REMARK  14 active torsions:
REMARK  status: ('A' for Active; 'I' for Inactive)
REMARK    1  A    between atoms: C_1  and  O_2
REMARK    2  A    between atoms: O_2  and  C_3
REMARK    3  A    between atoms: C_7  and  C_8
REMARK    4  A    between atoms: N_10  and  C_11
REMARK    5  A    between atoms: C_11  and  N_13
REMARK    6  A    between atoms: N_13  and  C_14
REMARK    7  A    between atoms: C_17  and  N_18
REMARK    8  A    between atoms: C_19  and  C_21
REMARK    9  A    between atoms: C_21  and  C_22
REMARK   10  A    between atoms: C_22  and  C_23
REMARK   11  A    between atoms: C_23  and  C_24
REMARK   12  A    between atoms: C_24  and  N_25
REMARK   13  A    between atoms: N_25  and  C_26
REMARK   14  A    between atoms: N_25  and  C_27
REMARK                            x       y       z     vdW  Elec       q    Type
REMARK                         _______ _______ _______ _____ _____    ______ ____
ROOT
ATOM      1  C   UNL     1       6.148   5.063  17.907  0.00  0.00    +0.000 A 
ATOM      2  C   UNL     1       6.866   5.087  19.118  0.00  0.00    +0.000 A 
ATOM      3  C   UNL     1       7.729   6.140  19.397  0.00  0.00    +0.000 A 
ATOM      4  C   UNL     1       7.903   7.202  18.490  0.00  0.00    +0.000 A 
ATOM      5  C   UNL     1       7.116   7.197  17.309  0.00  0.00    +0.000 A 
ATOM      6  C   UNL     1       6.271   6.131  17.021  0.00  0.00    +0.000 A 
ENDROOT
BRANCH   4   7
ATOM      7  N   UNL     1       8.848   8.261  18.740  0.00  0.00    +0.000 N 
ATOM      8  C   UNL     1       8.691   9.560  18.291  0.00  0.00    +0.000 C 
ATOM      9  O   UNL     1       7.712   9.922  17.670  0.00  0.00    +0.000 OA
ATOM     10  H   UNL     1       9.652   8.047  19.346  0.00  0.00    +0.000 HD
BRANCH   8  11
ATOM     11  C   UNL     1       9.696  10.616  18.644  0.00  0.00    +0.000 C 
BRANCH  11  12
ATOM     12  C   UNL     1       9.648  10.921  20.149  0.00  0.00    +0.000 C 
BRANCH  12  13
ATOM     13  C   UNL     1      10.770  11.877  20.547  0.00  0.00    +0.000 C 
BRANCH  13  14
ATOM     14  C   UNL     1      11.005  12.913  19.442  0.00  0.00    +0.000 C 
BRANCH  14  15
ATOM     15  N   UNL     1      10.285  14.176  19.706  0.00  0.00    +0.000 NA
ATOM     16  C   UNL     1      10.504  14.659  21.081  0.00  0.00    +0.000 C 
ATOM     17  C   UNL     1      10.736  15.200  18.752  0.00  0.00    +0.000 C 
ENDBRANCH  14  15
ENDBRANCH  13  14
ENDBRANCH  12  13
ENDBRANCH  11  12
ENDBRANCH   8  11
ENDBRANCH   4   7
BRANCH   1  18
ATOM     18  N   UNL     1       5.332   3.947  17.544  0.00  0.00    +0.000 N 
ATOM     19  H   UNL     1       5.811   3.103  17.187  0.00  0.00    +0.000 HD
BRANCH  18  20
ATOM     20  C   UNL     1       3.930   3.949  17.746  0.00  0.00    +0.000 C 
ATOM     21  S   UNL     1       3.212   2.700  17.797  0.00  0.00    +0.000 S 
BRANCH  20  24
ATOM     22  C   UNL     1       3.019   5.942  18.991  0.00  0.00    +0.000 C 
ATOM     23  O   UNL     1       3.330   5.490  20.088  0.00  0.00    +0.000 OA
ATOM     24  N   UNL     1       3.280   5.233  17.854  0.00  0.00    +0.000 N 
ATOM     25  H   UNL     1       2.996   5.611  16.953  0.00  0.00    +0.000 HD
BRANCH  22  30
ATOM     26  C   UNL     1       1.146   9.066  20.102  0.00  0.00    +0.000 A 
ATOM     27  C   UNL     1       1.149   9.820  18.915  0.00  0.00    +0.000 A 
ATOM     28  C   UNL     1       1.769   9.331  17.775  0.00  0.00    +0.000 A 
ATOM     29  C   UNL     1       2.389   8.090  17.785  0.00  0.00    +0.000 A 
ATOM     30  C   UNL     1       2.375   7.293  18.950  0.00  0.00    +0.000 A 
ATOM     31  C   UNL     1       1.751   7.802  20.103  0.00  0.00    +0.000 A 
BRANCH  26  33
ATOM     32  C   UNL     1      -0.375   8.863  21.972  0.00  0.00    +0.000 C 
ATOM     33  O   UNL     1       0.581   9.539  21.242  0.00  0.00    +0.000 OA
ENDBRANCH  26  33
ENDBRANCH  22  30
ENDBRANCH  20  24
ENDBRANCH  18  20
ENDBRANCH   1  18
TORSDOF 11
ENDMDL
MODEL 9
REMARK VINA RESULT:      -7.3      1.233      1.585
REMARK  Name = 
REMARK  14 active torsions:
REMARK  status: ('A' for Active; 'I' for Inactive)
REMARK    1  A    between atoms: C_1  and  O_2
REMARK    2  A    between atoms: O_2  and  C_3
REMARK    3  A    between atoms: C_7  and  C_8
REMARK    4  A    between atoms: N_10  and  C_11
REMARK    5  A    between atoms: C_11  and  N_13
REMARK    6  A    between atoms: N_13  and  C_14
REMARK    7  A    between atoms: C_17  and  N_18
REMARK    8  A    between atoms: C_19  and  C_21
REMARK    9  A    between atoms: C_21  and  C_22
REMARK   10  A    between atoms: C_22  and  C_23
REMARK   11  A    between atoms: C_23  and  C_24
REMARK   12  A    between atoms: C_24  and  N_25
REMARK   13  A    between atoms: N_25  and  C_26
REMARK   14  A    between atoms: N_25  and  C_27
REMARK                            x       y       z     vdW  Elec       q    Type
REMARK                         _______ _______ _______ _____ _____    ______ ____
ROOT
ATOM      1  C   UNL     1       5.781   4.702  17.813  0.00  0.00    +0.000 A 
ATOM      2  C   UNL     1       6.252   4.904  19.124  0.00  0.00    +0.000 A 
ATOM      3  C   UNL     1       7.160   5.923  19.391  0.00  0.00    +0.000 A 
ATOM      4  C   UNL     1       7.625   6.772  18.369  0.00  0.00    +0.000 A 
ATOM      5  C   UNL     1       7.083   6.599  17.070  0.00  0.00    +0.000 A 
ATOM      6  C   UNL     1       6.192   5.566  16.800  0.00  0.00    +0.000 A 
ENDROOT
BRANCH   4   7
ATOM      7  N   UNL     1       8.618   7.785  18.624  0.00  0.00    +0.000 N 
ATOM      8  C   UNL     1       8.474   9.115  18.274  0.00  0.00    +0.000 C 
ATOM      9  O   UNL     1       7.468   9.546  17.748  0.00  0.00    +0.000 OA
ATOM     10  H   UNL     1       9.454   7.507  19.157  0.00  0.00    +0.000 HD
BRANCH   8  11
ATOM     11  C   UNL     1       9.535  10.116  18.625  0.00  0.00    +0.000 C 
BRANCH  11  12
ATOM     12  C   UNL     1       9.074  11.536  18.262  0.00  0.00    +0.000 C 
BRANCH  12  13
ATOM     13  C   UNL     1      10.235  12.363  17.714  0.00  0.00    +0.000 C 
BRANCH  13  14
ATOM     14  C   UNL     1      10.291  13.728  18.408  0.00  0.00    +0.000 C 
BRANCH  14  15
ATOM     15  N   UNL     1      11.009  14.732  17.596  0.00  0.00    +0.000 NA
ATOM     16  C   UNL     1      11.171  16.008  18.315  0.00  0.00    +0.000 C 
ATOM     17  C   UNL     1      12.333  14.206  17.232  0.00  0.00    +0.000 C 
ENDBRANCH  14  15
ENDBRANCH  13  14
ENDBRANCH  12  13
ENDBRANCH  11  12
ENDBRANCH   8  11
ENDBRANCH   4   7
BRANCH   1  18
ATOM     18  N   UNL     1       4.928   3.602  17.487  0.00  0.00    +0.000 N 
ATOM     19  H   UNL     1       5.366   2.771  17.054  0.00  0.00    +0.000 HD
BRANCH  18  20
ATOM     20  C   UNL     1       3.552   3.599  17.823  0.00  0.00    +0.000 C 
ATOM     21  S   UNL     1       2.806   2.367  17.776  0.00  0.00    +0.000 S 
BRANCH  20  24
ATOM     22  C   UNL     1       2.711   5.367  19.410  0.00  0.00    +0.000 C 
ATOM     23  O   UNL     1       2.997   4.711  20.406  0.00  0.00    +0.000 OA
ATOM     24  N   UNL     1       2.952   4.867  18.163  0.00  0.00    +0.000 N 
ATOM     25  H   UNL     1       2.690   5.414  17.346  0.00  0.00    +0.000 HD
BRANCH  22  30
ATOM     26  C   UNL     1       1.672   8.971  18.751  0.00  0.00    +0.000 A 
ATOM     27  C   UNL     1       1.037   9.296  19.962  0.00  0.00    +0.000 A 
ATOM     28  C   UNL     1       0.929   8.351  20.972  0.00  0.00    +0.000 A 
ATOM     29  C   UNL     1       1.449   7.077  20.807  0.00  0.00    +0.000 A 
ATOM     30  C   UNL     1       2.121   6.728  19.616  0.00  0.00    +0.000 A 
ATOM     31  C   UNL     1       2.218   7.690  18.594  0.00  0.00    +0.000 A 
BRANCH  26  33
ATOM     32  C   UNL     1       2.251  11.145  17.862  0.00  0.00    +0.000 C 
ATOM     33  O   UNL     1       1.756   9.864  17.732  0.00  0.00    +0.000 OA
ENDBRANCH  26  33
ENDBRANCH  22  30
ENDBRANCH  20  24
ENDBRANCH  18  20
ENDBRANCH   1  18
TORSDOF 11
ENDMDL
