MODEL 1
REMARK VINA RESULT:      -7.1      0.000      0.000
REMARK  Name = 
REMARK  5 active torsions:
REMARK  status: ('A' for Active; 'I' for Inactive)
REMARK    1  A    between atoms: C_2  and  O_3
REMARK    2  A    between atoms: C_2  and  C_4
REMARK    3  A    between atoms: C_6  and  N_7
REMARK    4  A    between atoms: C_10  and  N_11
REMARK    5  A    between atoms: C_17  and  N_18
REMARK                            x       y       z     vdW  Elec       q    Type
REMARK                         _______ _______ _______ _____ _____    ______ ____
ROOT
ATOM      1  C   UNL     1       6.182   4.425  15.558  0.00  0.00    +0.000 A 
ATOM      2  C   UNL     1       6.769   5.032  16.657  0.00  0.00    +0.000 A 
ATOM      3  C   UNL     1       6.140   4.978  17.925  0.00  0.00    +0.000 A 
ATOM      4  C   UNL     1       4.878   4.370  18.175  0.00  0.00    +0.000 A 
ATOM      5  C   UNL     1       4.378   3.707  17.016  0.00  0.00    +0.000 A 
ATOM      6  C   UNL     1       5.006   3.717  15.744  0.00  0.00    +0.000 A 
ENDROOT
BRANCH   4   7
ATOM      7  N   UNL     1       4.174   4.482  19.371  0.00  0.00    +0.000 N 
ATOM      8  C   UNL     1       4.153   3.429  20.411  0.00  0.00    +0.000 C 
ATOM      9  C   UNL     1       2.716   3.135  20.848  0.00  0.00    +0.000 C 
ATOM     10  C   UNL     1       1.934   4.393  21.218  0.00  0.00    +0.000 C 
ATOM     11  C   UNL     1       2.083   5.472  20.146  0.00  0.00    +0.000 C 
ATOM     12  C   UNL     1       3.563   5.733  19.863  0.00  0.00    +0.000 C 
ENDBRANCH   4   7
BRANCH   3  13
ATOM     13  N   UNL     1       6.919   5.644  18.951  0.00  0.00    +0.000 N 
ATOM     14  O   UNL     1       7.486   6.697  18.631  0.00  0.00    +0.000 OA
ATOM     15  O   UNL     1       7.059   5.042  20.025  0.00  0.00    +0.000 OA
ENDBRANCH   3  13
BRANCH   5  16
ATOM     16  N   UNL     1       3.179   2.884  17.040  0.00  0.00    +0.000 N 
ATOM     17  O   UNL     1       2.114   3.403  16.683  0.00  0.00    +0.000 OA
ATOM     18  O   UNL     1       3.306   1.736  17.482  0.00  0.00    +0.000 OA
ENDBRANCH   5  16
BRANCH   1  20
ATOM     19  O   UNL     1       7.697   5.350  13.993  0.00  0.00    +0.000 OA
ATOM     20  C   UNL     1       6.869   4.493  14.247  0.00  0.00    +0.000 C 
BRANCH  20  21
ATOM     21  O   UNL     1       6.466   3.562  13.363  0.00  0.00    +0.000 OA
ATOM     22  H   UNL     1       5.557   3.220  13.456  0.00  0.00    +0.000 HD
ENDBRANCH  20  21
ENDBRANCH   1  20
TORSDOF 5
ENDMDL
MODEL 2
REMARK VINA RESULT:      -6.9      2.334      3.468
REMARK  Name = 
REMARK  5 active torsions:
REMARK  status: ('A' for Active; 'I' for Inactive)
REMARK    1  A    between atoms: C_2  and  O_3
REMARK    2  A    between atoms: C_2  and  C_4
REMARK    3  A    between atoms: C_6  and  N_7
REMARK    4  A    between atoms: C_10  and  N_11
REMARK    5  A    between atoms: C_17  and  N_18
REMARK                            x       y       z     vdW  Elec       q    Type
REMARK                         _______ _______ _______ _____ _____    ______ ____
ROOT
ATOM      1  C   UNL     1       5.819   6.198  17.424  0.00  0.00    +0.000 A 
ATOM      2  C   UNL     1       5.742   4.847  17.730  0.00  0.00    +0.000 A 
ATOM      3  C   UNL     1       4.588   4.321  18.360  0.00  0.00    +0.000 A 
ATOM      4  C   UNL     1       3.467   5.097  18.770  0.00  0.00    +0.000 A 
ATOM      5  C   UNL     1       3.591   6.454  18.354  0.00  0.00    +0.000 A 
ATOM      6  C   UNL     1       4.721   6.998  17.692  0.00  0.00    +0.000 A 
ENDROOT
BRANCH   4   7
ATOM      7  N   UNL     1       2.422   4.616  19.555  0.00  0.00    +0.000 N 
ATOM      8  C   UNL     1       2.358   4.778  21.024  0.00  0.00    +0.000 C 
ATOM      9  C   UNL     1       2.044   3.441  21.698  0.00  0.00    +0.000 C 
ATOM     10  C   UNL     1       0.830   2.739  21.096  0.00  0.00    +0.000 C 
ATOM     11  C   UNL     1       0.916   2.696  19.571  0.00  0.00    +0.000 C 
ATOM     12  C   UNL     1       1.146   4.104  19.016  0.00  0.00    +0.000 C 
ENDBRANCH   4   7
BRANCH   3  13
ATOM     13  N   UNL     1       4.684   2.890  18.571  0.00  0.00    +0.000 N 
ATOM     14  O   UNL     1       4.150   2.160  17.726  0.00  0.00    +0.000 OA
ATOM     15  O   UNL     1       5.183   2.516  19.643  0.00  0.00    +0.000 OA
ENDBRANCH   3  13
BRANCH   5  16
ATOM     16  N   UNL     1       2.519   7.424  18.517  0.00  0.00    +0.000 N 
ATOM     17  O   UNL     1       1.965   7.851  17.495  0.00  0.00    +0.000 OA
ATOM     18  O   UNL     1       2.284   7.800  19.671  0.00  0.00    +0.000 OA
ENDBRANCH   5  16
BRANCH   1  20
ATOM     19  O   UNL     1       7.537   7.783  17.061  0.00  0.00    +0.000 OA
ATOM     20  C   UNL     1       7.037   6.715  16.759  0.00  0.00    +0.000 C 
BRANCH  20  21
ATOM     21  O   UNL     1       7.505   5.926  15.774  0.00  0.00    +0.000 OA
ATOM     22  H   UNL     1       7.267   4.981  15.806  0.00  0.00    +0.000 HD
ENDBRANCH  20  21
ENDBRANCH   1  20
TORSDOF 5
ENDMDL
MODEL 3
REMARK VINA RESULT:      -6.8      2.441      3.257
REMARK  Name = 
REMARK  5 active torsions:
REMARK  status: ('A' for Active; 'I' for Inactive)
REMARK    1  A    between atoms: C_2  and  O_3
REMARK    2  A    between atoms: C_2  and  C_4
REMARK    3  A    between atoms: C_6  and  N_7
REMARK    4  A    between atoms: C_10  and  N_11
REMARK    5  A    between atoms: C_17  and  N_18
REMARK                            x       y       z     vdW  Elec       q    Type
REMARK                         _______ _______ _______ _____ _____    ______ ____
ROOT
ATOM      1  C   UNL     1       5.952   6.076  17.347  0.00  0.00    +0.000 A 
ATOM      2  C   UNL     1       4.880   6.935  17.531  0.00  0.00    +0.000 A 
ATOM      3  C   UNL     1       3.692   6.475  18.151  0.00  0.00    +0.000 A 
ATOM      4  C   UNL     1       3.471   5.136  18.579  0.00  0.00    +0.000 A 
ATOM      5  C   UNL     1       4.642   4.338  18.424  0.00  0.00    +0.000 A 
ATOM      6  C   UNL     1       5.854   4.784  17.838  0.00  0.00    +0.000 A 
ENDROOT
BRANCH   4   7
ATOM      7  N   UNL     1       2.244   4.640  19.011  0.00  0.00    +0.000 N 
ATOM      8  C   UNL     1       1.712   4.844  20.377  0.00  0.00    +0.000 C 
ATOM      9  C   UNL     1       1.234   3.517  20.970  0.00  0.00    +0.000 C 
ATOM     10  C   UNL     1       0.293   2.753  20.043  0.00  0.00    +0.000 C 
ATOM     11  C   UNL     1       0.860   2.668  18.627  0.00  0.00    +0.000 C 
ATOM     12  C   UNL     1       1.218   4.066  18.117  0.00  0.00    +0.000 C 
ENDBRANCH   4   7
BRANCH   3  13
ATOM     13  N   UNL     1       2.700   7.525  18.279  0.00  0.00    +0.000 N 
ATOM     14  O   UNL     1       2.396   8.139  17.248  0.00  0.00    +0.000 OA
ATOM     15  O   UNL     1       2.330   7.808  19.428  0.00  0.00    +0.000 OA
ENDBRANCH   3  13
BRANCH   5  16
ATOM     16  N   UNL     1       4.731   2.973  18.920  0.00  0.00    +0.000 N 
ATOM     17  O   UNL     1       4.261   2.070  18.216  0.00  0.00    +0.000 OA
ATOM     18  O   UNL     1       5.216   2.825  20.047  0.00  0.00    +0.000 OA
ENDBRANCH   5  16
BRANCH   1  20
ATOM     19  O   UNL     1       7.701   7.639  17.039  0.00  0.00    +0.000 OA
ATOM     20  C   UNL     1       7.182   6.590  16.702  0.00  0.00    +0.000 C 
BRANCH  20  21
ATOM     21  O   UNL     1       7.639   5.823  15.695  0.00  0.00    +0.000 OA
ATOM     22  H   UNL     1       7.511   6.153  14.786  0.00  0.00    +0.000 HD
ENDBRANCH  20  21
ENDBRANCH   1  20
TORSDOF 5
ENDMDL
MODEL 4
REMARK VINA RESULT:      -6.8      3.343      5.420
REMARK  Name = 
REMARK  5 active torsions:
REMARK  status: ('A' for Active; 'I' for Inactive)
REMARK    1  A    between atoms: C_2  and  O_3
REMARK    2  A    between atoms: C_2  and  C_4
REMARK    3  A    between atoms: C_6  and  N_7
REMARK    4  A    between atoms: C_10  and  N_11
REMARK    5  A    between atoms: C_17  and  N_18
REMARK                            x       y       z     vdW  Elec       q    Type
REMARK                         _______ _______ _______ _____ _____    ______ ____
ROOT
ATOM      1  C   UNL     1       2.288   8.193  18.485  0.00  0.00    +0.000 A 
ATOM      2  C   UNL     1       1.802   7.223  19.348  0.00  0.00    +0.000 A 
ATOM      3  C   UNL     1       2.377   5.929  19.367  0.00  0.00    +0.000 A 
ATOM      4  C   UNL     1       3.426   5.499  18.507  0.00  0.00    +0.000 A 
ATOM      5  C   UNL     1       3.918   6.570  17.707  0.00  0.00    +0.000 A 
ATOM      6  C   UNL     1       3.382   7.884  17.694  0.00  0.00    +0.000 A 
ENDROOT
BRANCH   4   7
ATOM      7  N   UNL     1       3.860   4.180  18.393  0.00  0.00    +0.000 N 
ATOM      8  C   UNL     1       3.506   3.295  17.261  0.00  0.00    +0.000 C 
ATOM      9  C   UNL     1       2.999   1.946  17.773  0.00  0.00    +0.000 C 
ATOM     10  C   UNL     1       3.932   1.305  18.797  0.00  0.00    +0.000 C 
ATOM     11  C   UNL     1       4.334   2.305  19.881  0.00  0.00    +0.000 C 
ATOM     12  C   UNL     1       4.905   3.573  19.242  0.00  0.00    +0.000 C 
ENDBRANCH   4   7
BRANCH   3  13
ATOM     13  N   UNL     1       1.752   5.068  20.352  0.00  0.00    +0.000 N 
ATOM     14  O   UNL     1       2.333   4.944  21.439  0.00  0.00    +0.000 OA
ATOM     15  O   UNL     1       0.757   4.427  19.984  0.00  0.00    +0.000 OA
ENDBRANCH   3  13
BRANCH   5  16
ATOM     16  N   UNL     1       5.086   6.435  16.849  0.00  0.00    +0.000 N 
ATOM     17  O   UNL     1       6.196   6.358  17.392  0.00  0.00    +0.000 OA
ATOM     18  O   UNL     1       4.884   6.474  15.630  0.00  0.00    +0.000 OA
ENDBRANCH   5  16
BRANCH   1  20
ATOM     19  O   UNL     1       0.996   9.936  19.428  0.00  0.00    +0.000 OA
ATOM     20  C   UNL     1       1.670   9.539  18.495  0.00  0.00    +0.000 C 
BRANCH  20  21
ATOM     21  O   UNL     1       1.882  10.252  17.373  0.00  0.00    +0.000 OA
ATOM     22  H   UNL     1       1.250  10.966  17.170  0.00  0.00    +0.000 HD
ENDBRANCH  20  21
ENDBRANCH   1  20
TORSDOF 5
ENDMDL
MODEL 5
REMARK VINA RESULT:      -6.8      0.540      3.287
REMARK  Name = 
REMARK  5 active torsions:
REMARK  status: ('A' for Active; 'I' for Inactive)
REMARK    1  A    between atoms: C_2  and  O_3
REMARK    2  A    between atoms: C_2  and  C_4
REMARK    3  A    between atoms: C_6  and  N_7
REMARK    4  A    between atoms: C_10  and  N_11
REMARK    5  A    between atoms: C_17  and  N_18
REMARK                            x       y       z     vdW  Elec       q    Type
REMARK                         _______ _______ _______ _____ _____    ______ ____
ROOT
ATOM      1  C   UNL     1       5.896   4.284  15.557  0.00  0.00    +0.000 A 
ATOM      2  C   UNL     1       4.611   3.791  15.726  0.00  0.00    +0.000 A 
ATOM      3  C   UNL     1       3.986   3.844  16.996  0.00  0.00    +0.000 A 
ATOM      4  C   UNL     1       4.604   4.336  18.180  0.00  0.00    +0.000 A 
ATOM      5  C   UNL     1       5.889   4.889  17.908  0.00  0.00    +0.000 A 
ATOM      6  C   UNL     1       6.522   4.880  16.639  0.00  0.00    +0.000 A 
ENDROOT
BRANCH   4   7
ATOM      7  N   UNL     1       4.064   4.214  19.458  0.00  0.00    +0.000 N 
ATOM      8  C   UNL     1       4.270   3.033  20.326  0.00  0.00    +0.000 C 
ATOM      9  C   UNL     1       2.935   2.542  20.889  0.00  0.00    +0.000 C 
ATOM     10  C   UNL     1       2.114   3.654  21.536  0.00  0.00    +0.000 C 
ATOM     11  C   UNL     1       2.027   4.878  20.625  0.00  0.00    +0.000 C 
ATOM     12  C   UNL     1       3.429   5.320  20.201  0.00  0.00    +0.000 C 
ENDBRANCH   4   7
BRANCH   3  13
ATOM     13  N   UNL     1       2.639   3.309  16.965  0.00  0.00    +0.000 N 
ATOM     14  O   UNL     1       1.709   4.126  17.003  0.00  0.00    +0.000 OA
ATOM     15  O   UNL     1       2.525   2.077  17.030  0.00  0.00    +0.000 OA
ENDBRANCH   3  13
BRANCH   5  16
ATOM     16  N   UNL     1       6.669   5.590  18.916  0.00  0.00    +0.000 N 
ATOM     17  O   UNL     1       7.106   6.713  18.633  0.00  0.00    +0.000 OA
ATOM     18  O   UNL     1       6.894   4.977  19.966  0.00  0.00    +0.000 OA
ENDBRANCH   5  16
BRANCH   1  20
ATOM     19  O   UNL     1       7.258   5.094  13.800  0.00  0.00    +0.000 OA
ATOM     20  C   UNL     1       6.519   4.220  14.214  0.00  0.00    +0.000 C 
BRANCH  20  21
ATOM     21  O   UNL     1       6.160   3.143  13.490  0.00  0.00    +0.000 OA
ATOM     22  H   UNL     1       6.380   3.148  12.540  0.00  0.00    +0.000 HD
ENDBRANCH  20  21
ENDBRANCH   1  20
TORSDOF 5
ENDMDL
MODEL 6
REMARK VINA RESULT:      -6.5      0.672      1.207
REMARK  Name = 
REMARK  5 active torsions:
REMARK  status: ('A' for Active; 'I' for Inactive)
REMARK    1  A    between atoms: C_2  and  O_3
REMARK    2  A    between atoms: C_2  and  C_4
REMARK    3  A    between atoms: C_6  and  N_7
REMARK    4  A    between atoms: C_10  and  N_11
REMARK    5  A    between atoms: C_17  and  N_18
REMARK                            x       y       z     vdW  Elec       q    Type
REMARK                         _______ _______ _______ _____ _____    ______ ____
ROOT
ATOM      1  C   UNL     1       5.752   4.284  15.423  0.00  0.00    +0.000 A 
ATOM      2  C   UNL     1       6.535   4.627  16.514  0.00  0.00    +0.000 A 
ATOM      3  C   UNL     1       6.023   4.504  17.830  0.00  0.00    +0.000 A 
ATOM      4  C   UNL     1       4.700   4.087  18.145  0.00  0.00    +0.000 A 
ATOM      5  C   UNL     1       3.987   3.684  16.978  0.00  0.00    +0.000 A 
ATOM      6  C   UNL     1       4.489   3.764  15.654  0.00  0.00    +0.000 A 
ENDROOT
BRANCH   4   7
ATOM      7  N   UNL     1       4.138   4.148  19.417  0.00  0.00    +0.000 N 
ATOM      8  C   UNL     1       4.291   3.084  20.434  0.00  0.00    +0.000 C 
ATOM      9  C   UNL     1       2.932   2.712  21.031  0.00  0.00    +0.000 C 
ATOM     10  C   UNL     1       2.140   3.924  21.513  0.00  0.00    +0.000 C 
ATOM     11  C   UNL     1       2.107   5.022  20.451  0.00  0.00    +0.000 C 
ATOM     12  C   UNL     1       3.530   5.362  20.000  0.00  0.00    +0.000 C 
ENDBRANCH   4   7
BRANCH   3  13
ATOM     13  N   UNL     1       6.999   4.882  18.833  0.00  0.00    +0.000 N 
ATOM     14  O   UNL     1       8.159   4.482  18.669  0.00  0.00    +0.000 OA
ATOM     15  O   UNL     1       6.569   5.467  19.838  0.00  0.00    +0.000 OA
ENDBRANCH   3  13
BRANCH   5  16
ATOM     16  N   UNL     1       2.666   3.077  17.038  0.00  0.00    +0.000 N 
ATOM     17  O   UNL     1       2.596   1.866  17.285  0.00  0.00    +0.000 OA
ATOM     18  O   UNL     1       1.708   3.812  16.772  0.00  0.00    +0.000 OA
ENDBRANCH   5  16
BRANCH   1  20
ATOM     19  O   UNL     1       5.935   3.735  13.129  0.00  0.00    +0.000 OA
ATOM     20  C   UNL     1       6.320   4.417  14.061  0.00  0.00    +0.000 C 
BRANCH  20  21
ATOM     21  O   UNL     1       7.316   5.318  13.964  0.00  0.00    +0.000 OA
ATOM     22  H   UNL     1       7.633   5.725  14.792  0.00  0.00    +0.000 HD
ENDBRANCH  20  21
ENDBRANCH   1  20
TORSDOF 5
ENDMDL
MODEL 7
REMARK VINA RESULT:      -6.4      1.039      1.208
REMARK  Name = 
REMARK  5 active torsions:
REMARK  status: ('A' for Active; 'I' for Inactive)
REMARK    1  A    between atoms: C_2  and  O_3
REMARK    2  A    between atoms: C_2  and  C_4
REMARK    3  A    between atoms: C_6  and  N_7
REMARK    4  A    between atoms: C_10  and  N_11
REMARK    5  A    between atoms: C_17  and  N_18
REMARK                            x       y       z     vdW  Elec       q    Type
REMARK                         _______ _______ _______ _____ _____    ______ ____
ROOT
ATOM      1  C   UNL     1       6.088   4.421  14.898  0.00  0.00    +0.000 A 
ATOM      2  C   UNL     1       6.635   5.404  15.709  0.00  0.00    +0.000 A 
ATOM      3  C   UNL     1       6.056   5.698  16.967  0.00  0.00    +0.000 A 
ATOM      4  C   UNL     1       4.880   5.081  17.479  0.00  0.00    +0.000 A 
ATOM      5  C   UNL     1       4.424   4.036  16.624  0.00  0.00    +0.000 A 
ATOM      6  C   UNL     1       5.007   3.699  15.376  0.00  0.00    +0.000 A 
ENDROOT
BRANCH   4   7
ATOM      7  N   UNL     1       4.205   5.501  18.623  0.00  0.00    +0.000 N 
ATOM      8  C   UNL     1       4.258   4.782  19.916  0.00  0.00    +0.000 C 
ATOM      9  C   UNL     1       2.848   4.575  20.472  0.00  0.00    +0.000 C 
ATOM     10  C   UNL     1       2.024   5.860  20.506  0.00  0.00    +0.000 C 
ATOM     11  C   UNL     1       2.096   6.599  19.170  0.00  0.00    +0.000 C 
ATOM     12  C   UNL     1       3.556   6.819  18.768  0.00  0.00    +0.000 C 
ENDBRANCH   4   7
BRANCH   3  13
ATOM     13  N   UNL     1       6.785   6.731  17.677  0.00  0.00    +0.000 N 
ATOM     14  O   UNL     1       6.790   7.862  17.173  0.00  0.00    +0.000 OA
ATOM     15  O   UNL     1       7.449   6.372  18.660  0.00  0.00    +0.000 OA
ENDBRANCH   3  13
BRANCH   5  16
ATOM     16  N   UNL     1       3.329   3.150  16.986  0.00  0.00    +0.000 N 
ATOM     17  O   UNL     1       2.177   3.511  16.711  0.00  0.00    +0.000 OA
ATOM     18  O   UNL     1       3.630   2.123  17.606  0.00  0.00    +0.000 OA
ENDBRANCH   5  16
BRANCH   1  20
ATOM     19  O   UNL     1       7.512   4.900  13.070  0.00  0.00    +0.000 OA
ATOM     20  C   UNL     1       6.722   4.133  13.590  0.00  0.00    +0.000 C 
BRANCH  20  21
ATOM     21  O   UNL     1       6.314   2.984  13.021  0.00  0.00    +0.000 OA
ATOM     22  H   UNL     1       5.559   2.523  13.433  0.00  0.00    +0.000 HD
ENDBRANCH  20  21
ENDBRANCH   1  20
TORSDOF 5
ENDMDL
MODEL 8
REMARK VINA RESULT:      -6.4      1.948      2.508
REMARK  Name = 
REMARK  5 active torsions:
REMARK  status: ('A' for Active; 'I' for Inactive)
REMARK    1  A    between atoms: C_2  and  O_3
REMARK    2  A    between atoms: C_2  and  C_4
REMARK    3  A    between atoms: C_6  and  N_7
REMARK    4  A    between atoms: C_10  and  N_11
REMARK    5  A    between atoms: C_17  and  N_18
REMARK                            x       y       z     vdW  Elec       q    Type
REMARK                         _______ _______ _______ _____ _____    ______ ____
ROOT
ATOM      1  C   UNL     1       5.621   4.539  16.003  0.00  0.00    +0.000 A 
ATOM      2  C   UNL     1       4.928   5.684  16.364  0.00  0.00    +0.000 A 
ATOM      3  C   UNL     1       3.996   5.651  17.430  0.00  0.00    +0.000 A 
ATOM      4  C   UNL     1       3.655   4.483  18.168  0.00  0.00    +0.000 A 
ATOM      5  C   UNL     1       4.462   3.371  17.789  0.00  0.00    +0.000 A 
ATOM      6  C   UNL     1       5.425   3.387  16.748  0.00  0.00    +0.000 A 
ENDROOT
BRANCH   4   7
ATOM      7  N   UNL     1       2.608   4.408  19.083  0.00  0.00    +0.000 N 
ATOM      8  C   UNL     1       2.667   4.983  20.446  0.00  0.00    +0.000 C 
ATOM      9  C   UNL     1       2.213   3.953  21.482  0.00  0.00    +0.000 C 
ATOM     10  C   UNL     1       0.874   3.306  21.136  0.00  0.00    +0.000 C 
ATOM     11  C   UNL     1       0.851   2.825  19.686  0.00  0.00    +0.000 C 
ATOM     12  C   UNL     1       1.239   3.969  18.745  0.00  0.00    +0.000 C 
ENDBRANCH   4   7
BRANCH   3  13
ATOM     13  N   UNL     1       3.397   6.949  17.673  0.00  0.00    +0.000 N 
ATOM     14  O   UNL     1       2.161   7.012  17.641  0.00  0.00    +0.000 OA
ATOM     15  O   UNL     1       4.171   7.912  17.768  0.00  0.00    +0.000 OA
ENDBRANCH   3  13
BRANCH   5  16
ATOM     16  N   UNL     1       4.418   2.096  18.489  0.00  0.00    +0.000 N 
ATOM     17  O   UNL     1       3.805   1.163  17.955  0.00  0.00    +0.000 OA
ATOM     18  O   UNL     1       4.948   2.061  19.606  0.00  0.00    +0.000 OA
ENDBRANCH   5  16
BRANCH   1  20
ATOM     19  O   UNL     1       7.432   5.488  14.814  0.00  0.00    +0.000 OA
ATOM     20  C   UNL     1       6.594   4.609  14.888  0.00  0.00    +0.000 C 
BRANCH  20  21
ATOM     21  O   UNL     1       6.436   3.649  13.958  0.00  0.00    +0.000 OA
ATOM     22  H   UNL     1       6.002   3.903  13.122  0.00  0.00    +0.000 HD
ENDBRANCH  20  21
ENDBRANCH   1  20
TORSDOF 5
ENDMDL
MODEL 9
REMARK VINA RESULT:      -6.3      2.323      3.049
REMARK  Name = 
REMARK  5 active torsions:
REMARK  status: ('A' for Active; 'I' for Inactive)
REMARK    1  A    between atoms: C_2  and  O_3
REMARK    2  A    between atoms: C_2  and  C_4
REMARK    3  A    between atoms: C_6  and  N_7
REMARK    4  A    between atoms: C_10  and  N_11
REMARK    5  A    between atoms: C_17  and  N_18
REMARK                            x       y       z     vdW  Elec       q    Type
REMARK                         _______ _______ _______ _____ _____    ______ ____
ROOT
ATOM      1  C   UNL     1       5.496   5.531  16.793  0.00  0.00    +0.000 A 
ATOM      2  C   UNL     1       4.567   6.464  17.225  0.00  0.00    +0.000 A 
ATOM      3  C   UNL     1       3.594   6.110  18.192  0.00  0.00    +0.000 A 
ATOM      4  C   UNL     1       3.446   4.809  18.749  0.00  0.00    +0.000 A 
ATOM      5  C   UNL     1       4.481   3.932  18.312  0.00  0.00    +0.000 A 
ATOM      6  C   UNL     1       5.487   4.273  17.372  0.00  0.00    +0.000 A 
ENDROOT
BRANCH   4   7
ATOM      7  N   UNL     1       2.378   4.413  19.550  0.00  0.00    +0.000 N 
ATOM      8  C   UNL     1       2.327   4.627  21.013  0.00  0.00    +0.000 C 
ATOM      9  C   UNL     1       1.940   3.332  21.732  0.00  0.00    +0.000 C 
ATOM     10  C   UNL     1       0.688   2.679  21.154  0.00  0.00    +0.000 C 
ATOM     11  C   UNL     1       0.768   2.581  19.631  0.00  0.00    +0.000 C 
ATOM     12  C   UNL     1       1.074   3.955  19.030  0.00  0.00    +0.000 C 
ENDBRANCH   4   7
BRANCH   3  13
ATOM     13  N   UNL     1       2.733   7.225  18.535  0.00  0.00    +0.000 N 
ATOM     14  O   UNL     1       2.595   7.478  19.739  0.00  0.00    +0.000 OA
ATOM     15  O   UNL     1       2.107   7.755  17.605  0.00  0.00    +0.000 OA
ENDBRANCH   3  13
BRANCH   5  16
ATOM     16  N   UNL     1       4.648   2.589  18.846  0.00  0.00    +0.000 N 
ATOM     17  O   UNL     1       4.157   1.648  18.209  0.00  0.00    +0.000 OA
ATOM     18  O   UNL     1       5.217   2.496  19.940  0.00  0.00    +0.000 OA
ENDBRANCH   5  16
BRANCH   1  20
ATOM     19  O   UNL     1       6.387   5.667  14.605  0.00  0.00    +0.000 OA
ATOM     20  C   UNL     1       6.506   5.935  15.786  0.00  0.00    +0.000 C 
BRANCH  20  21
ATOM     21  O   UNL     1       7.571   6.577  16.301  0.00  0.00    +0.000 OA
ATOM     22  H   UNL     1       7.417   7.154  17.073  0.00  0.00    +0.000 HD
ENDBRANCH  20  21
ENDBRANCH   1  20
TORSDOF 5
ENDMDL
