MODEL 1
REMARK VINA RESULT:      -9.3      0.000      0.000
REMARK  Name = 
REMARK  3 active torsions:
REMARK  status: ('A' for Active; 'I' for Inactive)
REMARK    1  A    between atoms: C_1  and  O_2
REMARK    2  A    between atoms: O_2  and  C_3
REMARK    3  A    between atoms: C_9  and  C_10
REMARK                            x       y       z     vdW  Elec       q    Type
REMARK                         _______ _______ _______ _____ _____    ______ ____
ROOT
ATOM      1  C   UNL     1       5.844   3.431  12.391  0.00  0.00    +0.000 A 
ATOM      2  C   UNL     1       6.989   4.151  12.058  0.00  0.00    +0.000 A 
ATOM      3  C   UNL     1       7.660   4.930  13.009  0.00  0.00    +0.000 A 
ATOM      4  C   UNL     1       7.141   4.959  14.309  0.00  0.00    +0.000 A 
ATOM      5  N   UNL     1       7.589   5.618  15.433  0.00  0.00    +0.000 N 
ATOM      6  C   UNL     1       6.782   5.334  16.507  0.00  0.00    +0.000 A 
ATOM      7  C   UNL     1       5.828   4.436  16.083  0.00  0.00    +0.000 A 
ATOM      8  C   UNL     1       6.009   4.234  14.682  0.00  0.00    +0.000 A 
ATOM      9  C   UNL     1       5.351   3.462  13.700  0.00  0.00    +0.000 A 
ATOM     10  H   UNL     1       8.420   6.190  15.466  0.00  0.00    +0.000 HD
ENDROOT
BRANCH   7  11
ATOM     11  C   UNL     1       4.895   3.767  16.932  0.00  0.00    +0.000 C 
ATOM     12  C   UNL     1       3.993   4.394  17.708  0.00  0.00    +0.000 C 
ATOM     13  C   UNL     1       3.757   5.888  17.726  0.00  0.00    +0.000 C 
ATOM     14  O   UNL     1       4.245   6.765  17.033  0.00  0.00    +0.000 OA
ATOM     15  N   UNL     1       2.789   6.089  18.687  0.00  0.00    +0.000 N 
ATOM     16  C   UNL     1       2.356   4.890  19.234  0.00  0.00    +0.000 A 
ATOM     17  C   UNL     1       1.364   4.749  20.180  0.00  0.00    +0.000 A 
ATOM     18  C   UNL     1       1.065   3.458  20.601  0.00  0.00    +0.000 A 
ATOM     19  C   UNL     1       1.767   2.355  20.079  0.00  0.00    +0.000 A 
ATOM     20  C   UNL     1       2.775   2.523  19.113  0.00  0.00    +0.000 A 
ATOM     21  C   UNL     1       3.056   3.809  18.682  0.00  0.00    +0.000 A 
ATOM     22  H   UNL     1       2.432   7.005  18.905  0.00  0.00    +0.000 HD
ENDBRANCH   7  11
BRANCH   1  24
ATOM     23  C   UNL     1       3.910   3.274  11.041  0.00  0.00    +0.000 C 
ATOM     24  O   UNL     1       5.112   2.674  11.511  0.00  0.00    +0.000 OA
ENDBRANCH   1  24
TORSDOF 2
ENDMDL
MODEL 2
REMARK VINA RESULT:      -9.0      1.401      1.634
REMARK  Name = 
REMARK  3 active torsions:
REMARK  status: ('A' for Active; 'I' for Inactive)
REMARK    1  A    between atoms: C_1  and  O_2
REMARK    2  A    between atoms: O_2  and  C_3
REMARK    3  A    between atoms: C_9  and  C_10
REMARK                            x       y       z     vdW  Elec       q    Type
REMARK                         _______ _______ _______ _____ _____    ______ ____
ROOT
ATOM      1  C   UNL     1       5.818   3.460  12.540  0.00  0.00    +0.000 A 
ATOM      2  C   UNL     1       7.117   3.918  12.328  0.00  0.00    +0.000 A 
ATOM      3  C   UNL     1       7.747   4.766  13.248  0.00  0.00    +0.000 A 
ATOM      4  C   UNL     1       7.028   5.137  14.390  0.00  0.00    +0.000 A 
ATOM      5  N   UNL     1       7.391   5.937  15.451  0.00  0.00    +0.000 N 
ATOM      6  C   UNL     1       6.373   6.002  16.371  0.00  0.00    +0.000 A 
ATOM      7  C   UNL     1       5.357   5.189  15.923  0.00  0.00    +0.000 A 
ATOM      8  C   UNL     1       5.734   4.681  14.644  0.00  0.00    +0.000 A 
ATOM      9  C   UNL     1       5.123   3.832  13.697  0.00  0.00    +0.000 A 
ATOM     10  H   UNL     1       8.295   6.373  15.554  0.00  0.00    +0.000 HD
ENDROOT
BRANCH   7  11
ATOM     11  C   UNL     1       4.184   4.854  16.666  0.00  0.00    +0.000 C 
ATOM     12  C   UNL     1       4.196   4.223  17.854  0.00  0.00    +0.000 C 
ATOM     13  C   UNL     1       5.442   3.865  18.631  0.00  0.00    +0.000 C 
ATOM     14  O   UNL     1       6.612   4.126  18.398  0.00  0.00    +0.000 OA
ATOM     15  N   UNL     1       4.992   3.200  19.752  0.00  0.00    +0.000 N 
ATOM     16  C   UNL     1       3.606   3.147  19.789  0.00  0.00    +0.000 A 
ATOM     17  C   UNL     1       2.850   2.594  20.801  0.00  0.00    +0.000 A 
ATOM     18  C   UNL     1       1.467   2.644  20.661  0.00  0.00    +0.000 A 
ATOM     19  C   UNL     1       0.884   3.226  19.520  0.00  0.00    +0.000 A 
ATOM     20  C   UNL     1       1.677   3.785  18.501  0.00  0.00    +0.000 A 
ATOM     21  C   UNL     1       3.052   3.751  18.654  0.00  0.00    +0.000 A 
ATOM     22  H   UNL     1       5.620   2.850  20.457  0.00  0.00    +0.000 HD
ENDBRANCH   7  11
BRANCH   1  24
ATOM     23  C   UNL     1       3.935   3.228  11.132  0.00  0.00    +0.000 C 
ATOM     24  O   UNL     1       5.120   2.658  11.673  0.00  0.00    +0.000 OA
ENDBRANCH   1  24
TORSDOF 2
ENDMDL
MODEL 3
REMARK VINA RESULT:      -8.8      2.070      6.853
REMARK  Name = 
REMARK  3 active torsions:
REMARK  status: ('A' for Active; 'I' for Inactive)
REMARK    1  A    between atoms: C_1  and  O_2
REMARK    2  A    between atoms: O_2  and  C_3
REMARK    3  A    between atoms: C_9  and  C_10
REMARK                            x       y       z     vdW  Elec       q    Type
REMARK                         _______ _______ _______ _____ _____    ______ ____
ROOT
ATOM      1  C   UNL     1       2.322   7.731  18.261  0.00  0.00    +0.000 A 
ATOM      2  C   UNL     1       2.209   7.614  19.645  0.00  0.00    +0.000 A 
ATOM      3  C   UNL     1       2.558   6.428  20.304  0.00  0.00    +0.000 A 
ATOM      4  C   UNL     1       3.026   5.364  19.526  0.00  0.00    +0.000 A 
ATOM      5  N   UNL     1       3.445   4.104  19.896  0.00  0.00    +0.000 N 
ATOM      6  C   UNL     1       3.853   3.393  18.795  0.00  0.00    +0.000 A 
ATOM      7  C   UNL     1       3.746   4.223  17.702  0.00  0.00    +0.000 A 
ATOM      8  C   UNL     1       3.171   5.453  18.141  0.00  0.00    +0.000 A 
ATOM      9  C   UNL     1       2.807   6.659  17.503  0.00  0.00    +0.000 A 
ATOM     10  H   UNL     1       3.486   3.774  20.849  0.00  0.00    +0.000 HD
ENDROOT
BRANCH   7  11
ATOM     11  C   UNL     1       4.221   3.920  16.390  0.00  0.00    +0.000 C 
ATOM     12  C   UNL     1       5.337   4.441  15.849  0.00  0.00    +0.000 C 
ATOM     13  C   UNL     1       6.311   5.342  16.576  0.00  0.00    +0.000 C 
ATOM     14  O   UNL     1       6.328   5.694  17.744  0.00  0.00    +0.000 OA
ATOM     15  N   UNL     1       7.269   5.669  15.639  0.00  0.00    +0.000 N 
ATOM     16  C   UNL     1       7.034   5.035  14.428  0.00  0.00    +0.000 A 
ATOM     17  C   UNL     1       7.836   5.118  13.309  0.00  0.00    +0.000 A 
ATOM     18  C   UNL     1       7.435   4.400  12.186  0.00  0.00    +0.000 A 
ATOM     19  C   UNL     1       6.251   3.639  12.208  0.00  0.00    +0.000 A 
ATOM     20  C   UNL     1       5.451   3.569  13.363  0.00  0.00    +0.000 A 
ATOM     21  C   UNL     1       5.863   4.269  14.484  0.00  0.00    +0.000 A 
ATOM     22  H   UNL     1       8.052   6.262  15.859  0.00  0.00    +0.000 HD
ENDBRANCH   7  11
BRANCH   1  24
ATOM     23  C   UNL     1       1.179   9.799  18.235  0.00  0.00    +0.000 C 
ATOM     24  O   UNL     1       1.970   8.843  17.539  0.00  0.00    +0.000 OA
ENDBRANCH   1  24
TORSDOF 2
ENDMDL
MODEL 4
REMARK VINA RESULT:      -8.5      2.144      6.835
REMARK  Name = 
REMARK  3 active torsions:
REMARK  status: ('A' for Active; 'I' for Inactive)
REMARK    1  A    between atoms: C_1  and  O_2
REMARK    2  A    between atoms: O_2  and  C_3
REMARK    3  A    between atoms: C_9  and  C_10
REMARK                            x       y       z     vdW  Elec       q    Type
REMARK                         _______ _______ _______ _____ _____    ______ ____
ROOT
ATOM      1  C   UNL     1       2.249   6.593  19.108  0.00  0.00    +0.000 A 
ATOM      2  C   UNL     1       2.125   6.158  20.426  0.00  0.00    +0.000 A 
ATOM      3  C   UNL     1       2.477   4.854  20.796  0.00  0.00    +0.000 A 
ATOM      4  C   UNL     1       2.961   4.002  19.797  0.00  0.00    +0.000 A 
ATOM      5  N   UNL     1       3.386   2.693  19.870  0.00  0.00    +0.000 N 
ATOM      6  C   UNL     1       3.810   2.258  18.638  0.00  0.00    +0.000 A 
ATOM      7  C   UNL     1       3.706   3.319  17.766  0.00  0.00    +0.000 A 
ATOM      8  C   UNL     1       3.117   4.411  18.472  0.00  0.00    +0.000 A 
ATOM      9  C   UNL     1       2.750   5.729  18.127  0.00  0.00    +0.000 A 
ATOM     10  H   UNL     1       3.421   2.151  20.720  0.00  0.00    +0.000 HD
ENDROOT
BRANCH   7  11
ATOM     11  C   UNL     1       4.196   3.330  16.425  0.00  0.00    +0.000 C 
ATOM     12  C   UNL     1       5.331   3.940  16.038  0.00  0.00    +0.000 C 
ATOM     13  C   UNL     1       6.311   4.614  16.971  0.00  0.00    +0.000 C 
ATOM     14  O   UNL     1       6.318   4.673  18.190  0.00  0.00    +0.000 OA
ATOM     15  N   UNL     1       7.291   5.135  16.152  0.00  0.00    +0.000 N 
ATOM     16  C   UNL     1       7.062   4.819  14.821  0.00  0.00    +0.000 A 
ATOM     17  C   UNL     1       7.883   5.150  13.764  0.00  0.00    +0.000 A 
ATOM     18  C   UNL     1       7.486   4.735  12.497  0.00  0.00    +0.000 A 
ATOM     19  C   UNL     1       6.286   4.020  12.321  0.00  0.00    +0.000 A 
ATOM     20  C   UNL     1       5.466   3.693  13.416  0.00  0.00    +0.000 A 
ATOM     21  C   UNL     1       5.874   4.090  14.677  0.00  0.00    +0.000 A 
ATOM     22  H   UNL     1       8.083   5.638  16.517  0.00  0.00    +0.000 HD
ENDBRANCH   7  11
BRANCH   1  24
ATOM     23  C   UNL     1       2.760   8.407  17.682  0.00  0.00    +0.000 C 
ATOM     24  O   UNL     1       1.895   7.840  18.659  0.00  0.00    +0.000 OA
ENDBRANCH   1  24
TORSDOF 2
ENDMDL
MODEL 5
REMARK VINA RESULT:      -8.1      5.388      8.376
REMARK  Name = 
REMARK  3 active torsions:
REMARK  status: ('A' for Active; 'I' for Inactive)
REMARK    1  A    between atoms: C_1  and  O_2
REMARK    2  A    between atoms: O_2  and  C_3
REMARK    3  A    between atoms: C_9  and  C_10
REMARK                            x       y       z     vdW  Elec       q    Type
REMARK                         _______ _______ _______ _____ _____    ______ ____
ROOT
ATOM      1  C   UNL     1      -2.630  10.370  17.216  0.00  0.00    +0.000 A 
ATOM      2  C   UNL     1      -3.012  11.478  17.969  0.00  0.00    +0.000 A 
ATOM      3  C   UNL     1      -2.155  12.035  18.927  0.00  0.00    +0.000 A 
ATOM      4  C   UNL     1      -0.899  11.442  19.100  0.00  0.00    +0.000 A 
ATOM      5  N   UNL     1       0.136  11.776  19.946  0.00  0.00    +0.000 N 
ATOM      6  C   UNL     1       1.202  10.931  19.756  0.00  0.00    +0.000 A 
ATOM      7  C   UNL     1       0.870  10.071  18.733  0.00  0.00    +0.000 A 
ATOM      8  C   UNL     1      -0.476  10.345  18.348  0.00  0.00    +0.000 A 
ATOM      9  C   UNL     1      -1.363   9.802  17.394  0.00  0.00    +0.000 A 
ATOM     10  H   UNL     1       0.123  12.560  20.582  0.00  0.00    +0.000 HD
ENDROOT
BRANCH   7  11
ATOM     11  C   UNL     1       1.764   9.141  18.120  0.00  0.00    +0.000 C 
ATOM     12  C   UNL     1       2.237   8.035  18.722  0.00  0.00    +0.000 C 
ATOM     13  C   UNL     1       1.819   7.551  20.093  0.00  0.00    +0.000 C 
ATOM     14  O   UNL     1       0.968   7.988  20.851  0.00  0.00    +0.000 OA
ATOM     15  N   UNL     1       2.577   6.423  20.324  0.00  0.00    +0.000 N 
ATOM     16  C   UNL     1       3.381   6.117  19.236  0.00  0.00    +0.000 A 
ATOM     17  C   UNL     1       4.217   5.025  19.136  0.00  0.00    +0.000 A 
ATOM     18  C   UNL     1       4.941   4.886  17.957  0.00  0.00    +0.000 A 
ATOM     19  C   UNL     1       4.821   5.837  16.926  0.00  0.00    +0.000 A 
ATOM     20  C   UNL     1       3.960   6.942  17.051  0.00  0.00    +0.000 A 
ATOM     21  C   UNL     1       3.227   7.067  18.219  0.00  0.00    +0.000 A 
ATOM     22  H   UNL     1       2.495   5.887  21.173  0.00  0.00    +0.000 HD
ENDBRANCH   7  11
BRANCH   1  24
ATOM     23  C   UNL     1      -3.109  10.031  14.927  0.00  0.00    +0.000 C 
ATOM     24  O   UNL     1      -3.422   9.746  16.285  0.00  0.00    +0.000 OA
ENDBRANCH   1  24
TORSDOF 2
ENDMDL
MODEL 6
REMARK VINA RESULT:      -8.0      3.549      5.600
REMARK  Name = 
REMARK  3 active torsions:
REMARK  status: ('A' for Active; 'I' for Inactive)
REMARK    1  A    between atoms: C_1  and  O_2
REMARK    2  A    between atoms: O_2  and  C_3
REMARK    3  A    between atoms: C_9  and  C_10
REMARK                            x       y       z     vdW  Elec       q    Type
REMARK                         _______ _______ _______ _____ _____    ______ ____
ROOT
ATOM      1  C   UNL     1       6.557   6.022  16.692  0.00  0.00    +0.000 A 
ATOM      2  C   UNL     1       6.569   4.655  16.424  0.00  0.00    +0.000 A 
ATOM      3  C   UNL     1       5.430   3.865  16.622  0.00  0.00    +0.000 A 
ATOM      4  C   UNL     1       4.275   4.497  17.097  0.00  0.00    +0.000 A 
ATOM      5  N   UNL     1       3.026   3.983  17.371  0.00  0.00    +0.000 N 
ATOM      6  C   UNL     1       2.180   4.980  17.792  0.00  0.00    +0.000 A 
ATOM      7  C   UNL     1       2.879   6.166  17.740  0.00  0.00    +0.000 A 
ATOM      8  C   UNL     1       4.221   5.867  17.357  0.00  0.00    +0.000 A 
ATOM      9  C   UNL     1       5.386   6.637  17.153  0.00  0.00    +0.000 A 
ATOM     10  H   UNL     1       2.763   3.018  17.236  0.00  0.00    +0.000 HD
ENDROOT
BRANCH   7  11
ATOM     11  C   UNL     1       2.315   7.462  17.944  0.00  0.00    +0.000 C 
ATOM     12  C   UNL     1       1.883   7.921  19.133  0.00  0.00    +0.000 C 
ATOM     13  C   UNL     1       2.022   7.184  20.446  0.00  0.00    +0.000 C 
ATOM     14  O   UNL     1       2.584   6.130  20.697  0.00  0.00    +0.000 OA
ATOM     15  N   UNL     1       1.411   7.993  21.381  0.00  0.00    +0.000 N 
ATOM     16  C   UNL     1       0.953   9.172  20.812  0.00  0.00    +0.000 A 
ATOM     17  C   UNL     1       0.344  10.207  21.489  0.00  0.00    +0.000 A 
ATOM     18  C   UNL     1      -0.040  11.316  20.742  0.00  0.00    +0.000 A 
ATOM     19  C   UNL     1       0.182  11.355  19.352  0.00  0.00    +0.000 A 
ATOM     20  C   UNL     1       0.808  10.287  18.684  0.00  0.00    +0.000 A 
ATOM     21  C   UNL     1       1.206   9.193  19.434  0.00  0.00    +0.000 A 
ATOM     22  H   UNL     1       1.363   7.744  22.356  0.00  0.00    +0.000 HD
ENDBRANCH   7  11
BRANCH   1  24
ATOM     23  C   UNL     1       7.821   7.795  17.610  0.00  0.00    +0.000 C 
ATOM     24  O   UNL     1       7.638   6.856  16.557  0.00  0.00    +0.000 OA
ENDBRANCH   1  24
TORSDOF 2
ENDMDL
MODEL 7
REMARK VINA RESULT:      -7.8      1.133      1.324
REMARK  Name = 
REMARK  3 active torsions:
REMARK  status: ('A' for Active; 'I' for Inactive)
REMARK    1  A    between atoms: C_1  and  O_2
REMARK    2  A    between atoms: O_2  and  C_3
REMARK    3  A    between atoms: C_9  and  C_10
REMARK                            x       y       z     vdW  Elec       q    Type
REMARK                         _______ _______ _______ _____ _____    ______ ____
ROOT
ATOM      1  C   UNL     1       5.957   3.785  13.766  0.00  0.00    +0.000 A 
ATOM      2  C   UNL     1       6.964   4.632  13.308  0.00  0.00    +0.000 A 
ATOM      3  C   UNL     1       7.621   5.515  14.174  0.00  0.00    +0.000 A 
ATOM      4  C   UNL     1       7.234   5.516  15.519  0.00  0.00    +0.000 A 
ATOM      5  N   UNL     1       7.704   6.257  16.581  0.00  0.00    +0.000 N 
ATOM      6  C   UNL     1       7.049   5.906  17.736  0.00  0.00    +0.000 A 
ATOM      7  C   UNL     1       6.179   4.885  17.425  0.00  0.00    +0.000 A 
ATOM      8  C   UNL     1       6.244   4.667  16.016  0.00  0.00    +0.000 A 
ATOM      9  C   UNL     1       5.596   3.792  15.119  0.00  0.00    +0.000 A 
ATOM     10  H   UNL     1       8.455   6.929  16.521  0.00  0.00    +0.000 HD
ENDROOT
BRANCH   7  11
ATOM     11  C   UNL     1       5.426   4.129  18.375  0.00  0.00    +0.000 C 
ATOM     12  C   UNL     1       4.177   4.438  18.769  0.00  0.00    +0.000 C 
ATOM     13  C   UNL     1       3.343   5.563  18.197  0.00  0.00    +0.000 C 
ATOM     14  O   UNL     1       3.581   6.321  17.271  0.00  0.00    +0.000 OA
ATOM     15  N   UNL     1       2.167   5.542  18.916  0.00  0.00    +0.000 N 
ATOM     16  C   UNL     1       2.149   4.502  19.834  0.00  0.00    +0.000 A 
ATOM     17  C   UNL     1       1.098   4.183  20.668  0.00  0.00    +0.000 A 
ATOM     18  C   UNL     1       1.269   3.095  21.518  0.00  0.00    +0.000 A 
ATOM     19  C   UNL     1       2.476   2.371  21.520  0.00  0.00    +0.000 A 
ATOM     20  C   UNL     1       3.534   2.715  20.659  0.00  0.00    +0.000 A 
ATOM     21  C   UNL     1       3.353   3.786  19.801  0.00  0.00    +0.000 A 
ATOM     22  H   UNL     1       1.417   6.190  18.737  0.00  0.00    +0.000 HD
ENDBRANCH   7  11
BRANCH   1  24
ATOM     23  C   UNL     1       5.795   2.670  11.690  0.00  0.00    +0.000 C 
ATOM     24  O   UNL     1       5.244   2.919  12.977  0.00  0.00    +0.000 OA
ENDBRANCH   1  24
TORSDOF 2
ENDMDL
MODEL 8
REMARK VINA RESULT:      -7.8      2.114      7.042
REMARK  Name = 
REMARK  3 active torsions:
REMARK  status: ('A' for Active; 'I' for Inactive)
REMARK    1  A    between atoms: C_1  and  O_2
REMARK    2  A    between atoms: O_2  and  C_3
REMARK    3  A    between atoms: C_9  and  C_10
REMARK                            x       y       z     vdW  Elec       q    Type
REMARK                         _______ _______ _______ _____ _____    ______ ____
ROOT
ATOM      1  C   UNL     1       4.449   1.920  20.380  0.00  0.00    +0.000 A 
ATOM      2  C   UNL     1       3.548   2.456  21.298  0.00  0.00    +0.000 A 
ATOM      3  C   UNL     1       2.726   3.539  20.961  0.00  0.00    +0.000 A 
ATOM      4  C   UNL     1       2.838   4.064  19.669  0.00  0.00    +0.000 A 
ATOM      5  N   UNL     1       2.162   5.103  19.067  0.00  0.00    +0.000 N 
ATOM      6  C   UNL     1       2.576   5.253  17.766  0.00  0.00    +0.000 A 
ATOM      7  C   UNL     1       3.497   4.263  17.508  0.00  0.00    +0.000 A 
ATOM      8  C   UNL     1       3.715   3.539  18.718  0.00  0.00    +0.000 A 
ATOM      9  C   UNL     1       4.534   2.451  19.088  0.00  0.00    +0.000 A 
ATOM     10  H   UNL     1       1.434   5.643  19.510  0.00  0.00    +0.000 HD
ENDROOT
BRANCH   7  11
ATOM     11  C   UNL     1       4.051   3.971  16.224  0.00  0.00    +0.000 C 
ATOM     12  C   UNL     1       5.203   4.488  15.761  0.00  0.00    +0.000 C 
ATOM     13  C   UNL     1       6.137   5.370  16.559  0.00  0.00    +0.000 C 
ATOM     14  O   UNL     1       6.085   5.708  17.730  0.00  0.00    +0.000 OA
ATOM     15  N   UNL     1       7.155   5.700  15.689  0.00  0.00    +0.000 N 
ATOM     16  C   UNL     1       6.991   5.084  14.457  0.00  0.00    +0.000 A 
ATOM     17  C   UNL     1       7.862   5.173  13.392  0.00  0.00    +0.000 A 
ATOM     18  C   UNL     1       7.526   4.474  12.236  0.00  0.00    +0.000 A 
ATOM     19  C   UNL     1       6.337   3.724  12.174  0.00  0.00    +0.000 A 
ATOM     20  C   UNL     1       5.465   3.647  13.275  0.00  0.00    +0.000 A 
ATOM     21  C   UNL     1       5.812   4.328  14.429  0.00  0.00    +0.000 A 
ATOM     22  H   UNL     1       7.929   6.283  15.964  0.00  0.00    +0.000 HD
ENDBRANCH   7  11
BRANCH   1  24
ATOM     23  C   UNL     1       5.714   0.754  22.000  0.00  0.00    +0.000 C 
ATOM     24  O   UNL     1       5.310   0.885  20.642  0.00  0.00    +0.000 OA
ENDBRANCH   1  24
TORSDOF 2
ENDMDL
MODEL 9
REMARK VINA RESULT:      -7.7      3.202      5.329
REMARK  Name = 
REMARK  3 active torsions:
REMARK  status: ('A' for Active; 'I' for Inactive)
REMARK    1  A    between atoms: C_1  and  O_2
REMARK    2  A    between atoms: O_2  and  C_3
REMARK    3  A    between atoms: C_9  and  C_10
REMARK                            x       y       z     vdW  Elec       q    Type
REMARK                         _______ _______ _______ _____ _____    ______ ____
ROOT
ATOM      1  C   UNL     1       6.956   6.185  17.766  0.00  0.00    +0.000 A 
ATOM      2  C   UNL     1       7.105   5.318  16.685  0.00  0.00    +0.000 A 
ATOM      3  C   UNL     1       6.055   4.490  16.268  0.00  0.00    +0.000 A 
ATOM      4  C   UNL     1       4.848   4.564  16.974  0.00  0.00    +0.000 A 
ATOM      5  N   UNL     1       3.663   3.888  16.786  0.00  0.00    +0.000 N 
ATOM      6  C   UNL     1       2.725   4.302  17.701  0.00  0.00    +0.000 A 
ATOM      7  C   UNL     1       3.298   5.299  18.458  0.00  0.00    +0.000 A 
ATOM      8  C   UNL     1       4.658   5.435  18.047  0.00  0.00    +0.000 A 
ATOM      9  C   UNL     1       5.736   6.254  18.448  0.00  0.00    +0.000 A 
ATOM     10  H   UNL     1       3.498   3.218  16.049  0.00  0.00    +0.000 HD
ENDROOT
BRANCH   7  11
ATOM     11  C   UNL     1       2.607   6.104  19.414  0.00  0.00    +0.000 C 
ATOM     12  C   UNL     1       2.234   7.379  19.201  0.00  0.00    +0.000 C 
ATOM     13  C   UNL     1       2.394   8.120  17.893  0.00  0.00    +0.000 C 
ATOM     14  O   UNL     1       2.793   7.721  16.811  0.00  0.00    +0.000 OA
ATOM     15  N   UNL     1       1.925   9.393  18.139  0.00  0.00    +0.000 N 
ATOM     16  C   UNL     1       1.443   9.517  19.434  0.00  0.00    +0.000 A 
ATOM     17  C   UNL     1       0.864  10.647  19.971  0.00  0.00    +0.000 A 
ATOM     18  C   UNL     1       0.434  10.574  21.292  0.00  0.00    +0.000 A 
ATOM     19  C   UNL     1       0.604   9.390  22.035  0.00  0.00    +0.000 A 
ATOM     20  C   UNL     1       1.196   8.250  21.464  0.00  0.00    +0.000 A 
ATOM     21  C   UNL     1       1.606   8.321  20.144  0.00  0.00    +0.000 A 
ATOM     22  H   UNL     1       1.909  10.106  17.427  0.00  0.00    +0.000 HD
ENDBRANCH   7  11
BRANCH   1  24
ATOM     23  C   UNL     1       7.928   8.339  17.771  0.00  0.00    +0.000 C 
ATOM     24  O   UNL     1       7.944   7.001  18.256  0.00  0.00    +0.000 OA
ENDBRANCH   1  24
TORSDOF 2
ENDMDL
