MODEL 1
REMARK VINA RESULT:      -9.1      0.000      0.000
REMARK  Name = 
REMARK  6 active torsions:
REMARK  status: ('A' for Active; 'I' for Inactive)
REMARK    1  A    between atoms: C_1  and  O_2
REMARK    2  A    between atoms: O_2  and  C_3
REMARK    3  A    between atoms: C_3  and  C_5
REMARK    4  A    between atoms: C_8  and  N_9
REMARK    5  A    between atoms: C_10  and  C_12
REMARK    6  A    between atoms: C_14  and  C_15
REMARK                            x       y       z     vdW  Elec       q    Type
REMARK                         _______ _______ _______ _____ _____    ______ ____
ROOT
ATOM      1  C   UNL     1       2.728   5.863  19.534  0.00  0.00    +0.000 A 
ATOM      2  C   UNL     1       4.089   5.964  19.692  0.00  0.00    +0.000 A 
ATOM      3  C   UNL     1       4.760   5.120  18.885  0.00  0.00    +0.000 A 
ATOM      4  N   UNL     1       4.623   3.884  19.321  0.00  0.00    +0.000 NA
ATOM      5  C   UNL     1       3.369   3.487  19.265  0.00  0.00    +0.000 A 
ATOM      6  C   UNL     1       3.324   2.147  18.888  0.00  0.00    +0.000 A 
ATOM      7  C   UNL     1       2.145   1.534  18.558  0.00  0.00    +0.000 A 
ATOM      8  C   UNL     1       0.980   2.264  18.739  0.00  0.00    +0.000 A 
ATOM      9  C   UNL     1       1.014   3.655  19.125  0.00  0.00    +0.000 A 
ATOM     10  C   UNL     1       2.251   4.404  19.347  0.00  0.00    +0.000 A 
ENDROOT
BRANCH   3  11
ATOM     11  C   UNL     1       4.761   5.127  17.389  0.00  0.00    +0.000 A 
ATOM     12  C   UNL     1       4.704   6.387  16.807  0.00  0.00    +0.000 A 
ATOM     13  C   UNL     1       5.233   6.557  15.541  0.00  0.00    +0.000 A 
ATOM     14  N   UNL     1       5.776   5.569  14.803  0.00  0.00    +0.000 NA
ATOM     15  C   UNL     1       5.758   4.335  15.337  0.00  0.00    +0.000 A 
ATOM     16  C   UNL     1       5.218   4.056  16.581  0.00  0.00    +0.000 A 
ENDBRANCH   3  11
BRANCH   1  18
ATOM     17  N   UNL     1       1.687   7.869  20.817  0.00  0.00    +0.000 N 
ATOM     18  C   UNL     1       2.225   7.414  19.527  0.00  0.00    +0.000 C 
ATOM     19  O   UNL     1       2.291   8.105  18.521  0.00  0.00    +0.000 OA
ATOM     20  H   UNL     1       1.883   7.247  21.590  0.00  0.00    +0.000 HD
BRANCH  17  24
ATOM     21  C   UNL     1      -0.792  11.069  22.519  0.00  0.00    +0.000 A 
ATOM     22  C   UNL     1      -0.213  11.191  21.238  0.00  0.00    +0.000 A 
ATOM     23  C   UNL     1       0.620  10.176  20.649  0.00  0.00    +0.000 A 
ATOM     24  C   UNL     1       0.907   8.995  21.320  0.00  0.00    +0.000 A 
ATOM     25  C   UNL     1       0.318   8.895  22.621  0.00  0.00    +0.000 A 
ATOM     26  C   UNL     1      -0.512   9.897  23.215  0.00  0.00    +0.000 A 
BRANCH  21  27
ATOM     27  C   UNL     1      -1.654  12.205  23.023  0.00  0.00    +0.000 C 
ATOM     28  O   UNL     1      -1.240  13.302  23.281  0.00  0.00    +0.000 OA
BRANCH  27  30
ATOM     29  C   UNL     1      -3.774  12.625  24.088  0.00  0.00    +0.000 C 
ATOM     30  O   UNL     1      -3.002  11.886  23.099  0.00  0.00    +0.000 OA
ENDBRANCH  27  30
ENDBRANCH  21  27
ENDBRANCH  17  24
ENDBRANCH   1  18
TORSDOF 5
ENDMDL
MODEL 2
REMARK VINA RESULT:      -8.8      0.535      1.292
REMARK  Name = 
REMARK  6 active torsions:
REMARK  status: ('A' for Active; 'I' for Inactive)
REMARK    1  A    between atoms: C_1  and  O_2
REMARK    2  A    between atoms: O_2  and  C_3
REMARK    3  A    between atoms: C_3  and  C_5
REMARK    4  A    between atoms: C_8  and  N_9
REMARK    5  A    between atoms: C_10  and  C_12
REMARK    6  A    between atoms: C_14  and  C_15
REMARK                            x       y       z     vdW  Elec       q    Type
REMARK                         _______ _______ _______ _____ _____    ______ ____
ROOT
ATOM      1  C   UNL     1       2.727   5.800  19.619  0.00  0.00    +0.000 A 
ATOM      2  C   UNL     1       4.091   5.905  19.749  0.00  0.00    +0.000 A 
ATOM      3  C   UNL     1       4.747   5.087  18.903  0.00  0.00    +0.000 A 
ATOM      4  N   UNL     1       4.627   3.839  19.307  0.00  0.00    +0.000 NA
ATOM      5  C   UNL     1       3.374   3.436  19.269  0.00  0.00    +0.000 A 
ATOM      6  C   UNL     1       3.326   2.107  18.857  0.00  0.00    +0.000 A 
ATOM      7  C   UNL     1       2.143   1.496  18.538  0.00  0.00    +0.000 A 
ATOM      8  C   UNL     1       0.979   2.215  18.767  0.00  0.00    +0.000 A 
ATOM      9  C   UNL     1       1.015   3.595  19.190  0.00  0.00    +0.000 A 
ATOM     10  C   UNL     1       2.253   4.345  19.404  0.00  0.00    +0.000 A 
ENDROOT
BRANCH   3  11
ATOM     11  C   UNL     1       4.713   5.135  17.407  0.00  0.00    +0.000 A 
ATOM     12  C   UNL     1       4.702   6.412  16.861  0.00  0.00    +0.000 A 
ATOM     13  C   UNL     1       5.208   6.592  15.587  0.00  0.00    +0.000 A 
ATOM     14  N   UNL     1       5.685   5.600  14.810  0.00  0.00    +0.000 NA
ATOM     15  C   UNL     1       5.621   4.354  15.311  0.00  0.00    +0.000 A 
ATOM     16  C   UNL     1       5.098   4.066  16.561  0.00  0.00    +0.000 A 
ENDBRANCH   3  11
BRANCH   1  18
ATOM     17  N   UNL     1       1.539   7.710  20.921  0.00  0.00    +0.000 N 
ATOM     18  C   UNL     1       2.217   7.348  19.668  0.00  0.00    +0.000 C 
ATOM     19  O   UNL     1       2.385   8.109  18.726  0.00  0.00    +0.000 OA
ATOM     20  H   UNL     1       1.655   7.036  21.665  0.00  0.00    +0.000 HD
BRANCH  17  24
ATOM     21  C   UNL     1      -0.888  11.148  22.175  0.00  0.00    +0.000 A 
ATOM     22  C   UNL     1      -0.508  10.144  23.091  0.00  0.00    +0.000 A 
ATOM     23  C   UNL     1       0.271   8.992  22.720  0.00  0.00    +0.000 A 
ATOM     24  C   UNL     1       0.702   8.798  21.415  0.00  0.00    +0.000 A 
ATOM     25  C   UNL     1       0.298   9.823  20.499  0.00  0.00    +0.000 A 
ATOM     26  C   UNL     1      -0.474  10.973  20.858  0.00  0.00    +0.000 A 
BRANCH  21  27
ATOM     27  C   UNL     1      -1.702  12.313  22.691  0.00  0.00    +0.000 C 
ATOM     28  O   UNL     1      -2.886  12.434  22.526  0.00  0.00    +0.000 OA
BRANCH  27  30
ATOM     29  C   UNL     1      -0.587  14.449  22.768  0.00  0.00    +0.000 C 
ATOM     30  O   UNL     1      -0.964  13.215  23.444  0.00  0.00    +0.000 OA
ENDBRANCH  27  30
ENDBRANCH  21  27
ENDBRANCH  17  24
ENDBRANCH   1  18
TORSDOF 5
ENDMDL
MODEL 3
REMARK VINA RESULT:      -8.5      3.103      9.018
REMARK  Name = 
REMARK  6 active torsions:
REMARK  status: ('A' for Active; 'I' for Inactive)
REMARK    1  A    between atoms: C_1  and  O_2
REMARK    2  A    between atoms: O_2  and  C_3
REMARK    3  A    between atoms: C_3  and  C_5
REMARK    4  A    between atoms: C_8  and  N_9
REMARK    5  A    between atoms: C_10  and  C_12
REMARK    6  A    between atoms: C_14  and  C_15
REMARK                            x       y       z     vdW  Elec       q    Type
REMARK                         _______ _______ _______ _____ _____    ______ ____
ROOT
ATOM      1  C   UNL     1       0.321  10.865  18.105  0.00  0.00    +0.000 A 
ATOM      2  C   UNL     1       0.656  11.941  18.890  0.00  0.00    +0.000 A 
ATOM      3  C   UNL     1      -0.230  12.143  19.884  0.00  0.00    +0.000 A 
ATOM      4  N   UNL     1      -1.351  12.627  19.391  0.00  0.00    +0.000 NA
ATOM      5  C   UNL     1      -1.935  11.769  18.581  0.00  0.00    +0.000 A 
ATOM      6  C   UNL     1      -3.315  11.838  18.749  0.00  0.00    +0.000 A 
ATOM      7  C   UNL     1      -4.154  10.917  18.180  0.00  0.00    +0.000 A 
ATOM      8  C   UNL     1      -3.585   9.989  17.323  0.00  0.00    +0.000 A 
ATOM      9  C   UNL     1      -2.155   9.905  17.143  0.00  0.00    +0.000 A 
ATOM     10  C   UNL     1      -1.199  10.765  17.839  0.00  0.00    +0.000 A 
ENDROOT
BRANCH   3  11
ATOM     11  C   UNL     1      -0.541  11.203  21.007  0.00  0.00    +0.000 A 
ATOM     12  C   UNL     1       0.401  10.203  21.214  0.00  0.00    +0.000 A 
ATOM     13  C   UNL     1       0.518   9.655  22.478  0.00  0.00    +0.000 A 
ATOM     14  N   UNL     1      -0.248  10.000  23.532  0.00  0.00    +0.000 NA
ATOM     15  C   UNL     1      -1.211  10.910  23.308  0.00  0.00    +0.000 A 
ATOM     16  C   UNL     1      -1.434  11.490  22.069  0.00  0.00    +0.000 A 
ENDBRANCH   3  11
BRANCH   1  18
ATOM     17  N   UNL     1       1.667   8.643  18.064  0.00  0.00    +0.000 N 
ATOM     18  C   UNL     1       1.741  10.099  17.875  0.00  0.00    +0.000 C 
ATOM     19  O   UNL     1       2.760  10.709  17.586  0.00  0.00    +0.000 OA
ATOM     20  H   UNL     1       0.725   8.277  18.105  0.00  0.00    +0.000 HD
BRANCH  17  24
ATOM     21  C   UNL     1       4.393   5.292  18.856  0.00  0.00    +0.000 A 
ATOM     22  C   UNL     1       4.570   6.134  17.737  0.00  0.00    +0.000 A 
ATOM     23  C   UNL     1       3.691   7.232  17.430  0.00  0.00    +0.000 A 
ATOM     24  C   UNL     1       2.598   7.531  18.231  0.00  0.00    +0.000 A 
ATOM     25  C   UNL     1       2.431   6.660  19.355  0.00  0.00    +0.000 A 
ATOM     26  C   UNL     1       3.299   5.567  19.671  0.00  0.00    +0.000 A 
BRANCH  21  27
ATOM     27  C   UNL     1       5.390   4.176  19.073  0.00  0.00    +0.000 C 
ATOM     28  O   UNL     1       6.529   4.206  18.694  0.00  0.00    +0.000 OA
BRANCH  27  30
ATOM     29  C   UNL     1       4.074   2.157  19.094  0.00  0.00    +0.000 C 
ATOM     30  O   UNL     1       4.887   3.122  19.822  0.00  0.00    +0.000 OA
ENDBRANCH  27  30
ENDBRANCH  21  27
ENDBRANCH  17  24
ENDBRANCH   1  18
TORSDOF 5
ENDMDL
MODEL 4
REMARK VINA RESULT:      -8.4      3.270      9.207
REMARK  Name = 
REMARK  6 active torsions:
REMARK  status: ('A' for Active; 'I' for Inactive)
REMARK    1  A    between atoms: C_1  and  O_2
REMARK    2  A    between atoms: O_2  and  C_3
REMARK    3  A    between atoms: C_3  and  C_5
REMARK    4  A    between atoms: C_8  and  N_9
REMARK    5  A    between atoms: C_10  and  C_12
REMARK    6  A    between atoms: C_14  and  C_15
REMARK                            x       y       z     vdW  Elec       q    Type
REMARK                         _______ _______ _______ _____ _____    ______ ____
ROOT
ATOM      1  C   UNL     1       0.176  10.877  18.089  0.00  0.00    +0.000 A 
ATOM      2  C   UNL     1       0.466  12.002  18.822  0.00  0.00    +0.000 A 
ATOM      3  C   UNL     1      -0.449  12.234  19.782  0.00  0.00    +0.000 A 
ATOM      4  N   UNL     1      -1.569  12.663  19.237  0.00  0.00    +0.000 NA
ATOM      5  C   UNL     1      -2.112  11.748  18.462  0.00  0.00    +0.000 A 
ATOM      6  C   UNL     1      -3.497  11.790  18.594  0.00  0.00    +0.000 A 
ATOM      7  C   UNL     1      -4.300  10.820  18.056  0.00  0.00    +0.000 A 
ATOM      8  C   UNL     1      -3.687   9.861  17.263  0.00  0.00    +0.000 A 
ATOM      9  C   UNL     1      -2.252   9.804  17.122  0.00  0.00    +0.000 A 
ATOM     10  C   UNL     1      -1.334  10.725  17.793  0.00  0.00    +0.000 A 
ENDROOT
BRANCH   3  11
ATOM     11  C   UNL     1      -0.766  11.348  20.947  0.00  0.00    +0.000 A 
ATOM     12  C   UNL     1       0.137  10.314  21.161  0.00  0.00    +0.000 A 
ATOM     13  C   UNL     1       0.271   9.805  22.439  0.00  0.00    +0.000 A 
ATOM     14  N   UNL     1      -0.446  10.219  23.503  0.00  0.00    +0.000 NA
ATOM     15  C   UNL     1      -1.374  11.165  23.276  0.00  0.00    +0.000 A 
ATOM     16  C   UNL     1      -1.610  11.711  22.025  0.00  0.00    +0.000 A 
ENDBRANCH   3  11
BRANCH   1  18
ATOM     17  N   UNL     1       1.582   8.697  18.232  0.00  0.00    +0.000 N 
ATOM     18  C   UNL     1       1.619  10.136  17.934  0.00  0.00    +0.000 C 
ATOM     19  O   UNL     1       2.625  10.751  17.611  0.00  0.00    +0.000 OA
ATOM     20  H   UNL     1       0.650   8.309  18.290  0.00  0.00    +0.000 HD
BRANCH  17  24
ATOM     21  C   UNL     1       4.535   5.485  18.730  0.00  0.00    +0.000 A 
ATOM     22  C   UNL     1       3.490   5.672  19.659  0.00  0.00    +0.000 A 
ATOM     23  C   UNL     1       2.512   6.721  19.545  0.00  0.00    +0.000 A 
ATOM     24  C   UNL     1       2.541   7.628  18.494  0.00  0.00    +0.000 A 
ATOM     25  C   UNL     1       3.614   7.427  17.568  0.00  0.00    +0.000 A 
ATOM     26  C   UNL     1       4.591   6.386  17.671  0.00  0.00    +0.000 A 
BRANCH  21  27
ATOM     27  C   UNL     1       5.497   4.340  18.958  0.00  0.00    +0.000 C 
ATOM     28  O   UNL     1       5.160   3.200  19.125  0.00  0.00    +0.000 OA
BRANCH  27  30
ATOM     29  C   UNL     1       7.473   4.538  17.593  0.00  0.00    +0.000 C 
ATOM     30  O   UNL     1       6.831   4.714  18.888  0.00  0.00    +0.000 OA
ENDBRANCH  27  30
ENDBRANCH  21  27
ENDBRANCH  17  24
ENDBRANCH   1  18
TORSDOF 5
ENDMDL
MODEL 5
REMARK VINA RESULT:      -8.4      1.610      3.870
REMARK  Name = 
REMARK  6 active torsions:
REMARK  status: ('A' for Active; 'I' for Inactive)
REMARK    1  A    between atoms: C_1  and  O_2
REMARK    2  A    between atoms: O_2  and  C_3
REMARK    3  A    between atoms: C_3  and  C_5
REMARK    4  A    between atoms: C_8  and  N_9
REMARK    5  A    between atoms: C_10  and  C_12
REMARK    6  A    between atoms: C_14  and  C_15
REMARK                            x       y       z     vdW  Elec       q    Type
REMARK                         _______ _______ _______ _____ _____    ______ ____
ROOT
ATOM      1  C   UNL     1       3.248   6.954  17.658  0.00  0.00    +0.000 A 
ATOM      2  C   UNL     1       2.253   6.034  17.437  0.00  0.00    +0.000 A 
ATOM      3  C   UNL     1       2.578   4.811  17.898  0.00  0.00    +0.000 A 
ATOM      4  N   UNL     1       3.494   4.270  17.121  0.00  0.00    +0.000 NA
ATOM      5  C   UNL     1       4.618   4.955  17.148  0.00  0.00    +0.000 A 
ATOM      6  C   UNL     1       5.698   4.078  17.104  0.00  0.00    +0.000 A 
ATOM      7  C   UNL     1       6.980   4.506  17.320  0.00  0.00    +0.000 A 
ATOM      8  C   UNL     1       7.176   5.872  17.456  0.00  0.00    +0.000 A 
ATOM      9  C   UNL     1       6.064   6.792  17.506  0.00  0.00    +0.000 A 
ATOM     10  C   UNL     1       4.664   6.376  17.430  0.00  0.00    +0.000 A 
ENDROOT
BRANCH   3  11
ATOM     11  C   UNL     1       2.844   4.436  19.323  0.00  0.00    +0.000 A 
ATOM     12  C   UNL     1       1.908   4.902  20.237  0.00  0.00    +0.000 A 
ATOM     13  C   UNL     1       1.733   4.206  21.419  0.00  0.00    +0.000 A 
ATOM     14  N   UNL     1       2.437   3.112  21.771  0.00  0.00    +0.000 NA
ATOM     15  C   UNL     1       3.396   2.710  20.919  0.00  0.00    +0.000 A 
ATOM     16  C   UNL     1       3.674   3.362  19.729  0.00  0.00    +0.000 A 
ENDBRANCH   3  11
BRANCH   1  18
ATOM     17  N   UNL     1       2.047   8.218  19.585  0.00  0.00    +0.000 N 
ATOM     18  C   UNL     1       2.443   8.276  18.170  0.00  0.00    +0.000 C 
ATOM     19  O   UNL     1       2.195   9.207  17.419  0.00  0.00    +0.000 OA
ATOM     20  H   UNL     1       2.494   7.479  20.111  0.00  0.00    +0.000 HD
BRANCH  17  24
ATOM     21  C   UNL     1      -0.594  10.636  22.127  0.00  0.00    +0.000 A 
ATOM     22  C   UNL     1      -0.073   9.403  22.573  0.00  0.00    +0.000 A 
ATOM     23  C   UNL     1       0.781   8.570  21.768  0.00  0.00    +0.000 A 
ATOM     24  C   UNL     1       1.148   8.939  20.480  0.00  0.00    +0.000 A 
ATOM     25  C   UNL     1       0.601  10.188  20.043  0.00  0.00    +0.000 A 
ATOM     26  C   UNL     1      -0.247  11.024  20.836  0.00  0.00    +0.000 A 
BRANCH  21  27
ATOM     27  C   UNL     1      -1.476  11.421  23.072  0.00  0.00    +0.000 C 
ATOM     28  O   UNL     1      -2.493  11.000  23.552  0.00  0.00    +0.000 OA
BRANCH  27  30
ATOM     29  C   UNL     1      -1.905  13.779  23.326  0.00  0.00    +0.000 C 
ATOM     30  O   UNL     1      -0.965  12.669  23.398  0.00  0.00    +0.000 OA
ENDBRANCH  27  30
ENDBRANCH  21  27
ENDBRANCH  17  24
ENDBRANCH   1  18
TORSDOF 5
ENDMDL
MODEL 6
REMARK VINA RESULT:      -8.3      3.532      9.252
REMARK  Name = 
REMARK  6 active torsions:
REMARK  status: ('A' for Active; 'I' for Inactive)
REMARK    1  A    between atoms: C_1  and  O_2
REMARK    2  A    between atoms: O_2  and  C_3
REMARK    3  A    between atoms: C_3  and  C_5
REMARK    4  A    between atoms: C_8  and  N_9
REMARK    5  A    between atoms: C_10  and  C_12
REMARK    6  A    between atoms: C_14  and  C_15
REMARK                            x       y       z     vdW  Elec       q    Type
REMARK                         _______ _______ _______ _____ _____    ______ ____
ROOT
ATOM      1  C   UNL     1       1.232  10.406  19.082  0.00  0.00    +0.000 A 
ATOM      2  C   UNL     1       0.176  10.013  19.868  0.00  0.00    +0.000 A 
ATOM      3  C   UNL     1      -0.896  10.814  19.719  0.00  0.00    +0.000 A 
ATOM      4  N   UNL     1      -0.669  11.975  20.298  0.00  0.00    +0.000 NA
ATOM      5  C   UNL     1       0.322  12.620  19.719  0.00  0.00    +0.000 A 
ATOM      6  C   UNL     1       0.035  13.981  19.687  0.00  0.00    +0.000 A 
ATOM      7  C   UNL     1       0.798  14.860  18.965  0.00  0.00    +0.000 A 
ATOM      8  C   UNL     1       1.946  14.358  18.371  0.00  0.00    +0.000 A 
ATOM      9  C   UNL     1       2.253  12.948  18.393  0.00  0.00    +0.000 A 
ATOM     10  C   UNL     1       1.398  11.942  19.022  0.00  0.00    +0.000 A 
ENDROOT
BRANCH   3  11
ATOM     11  C   UNL     1      -1.686  11.025  18.465  0.00  0.00    +0.000 A 
ATOM     12  C   UNL     1      -1.489  10.068  17.478  0.00  0.00    +0.000 A 
ATOM     13  C   UNL     1      -2.500   9.840  16.564  0.00  0.00    +0.000 A 
ATOM     14  N   UNL     1      -3.669  10.512  16.537  0.00  0.00    +0.000 NA
ATOM     15  C   UNL     1      -3.823  11.492  17.444  0.00  0.00    +0.000 A 
ATOM     16  C   UNL     1      -2.854  11.822  18.377  0.00  0.00    +0.000 A 
ENDBRANCH   3  11
BRANCH   1  18
ATOM     17  N   UNL     1       1.808   7.897  19.438  0.00  0.00    +0.000 N 
ATOM     18  C   UNL     1       1.800   9.006  18.472  0.00  0.00    +0.000 C 
ATOM     19  O   UNL     1       2.190   8.920  17.316  0.00  0.00    +0.000 OA
ATOM     20  H   UNL     1       1.277   8.077  20.279  0.00  0.00    +0.000 HD
BRANCH  17  24
ATOM     21  C   UNL     1       3.667   3.919  19.470  0.00  0.00    +0.000 A 
ATOM     22  C   UNL     1       2.654   4.264  20.390  0.00  0.00    +0.000 A 
ATOM     23  C   UNL     1       2.030   5.560  20.427  0.00  0.00    +0.000 A 
ATOM     24  C   UNL     1       2.396   6.566  19.543  0.00  0.00    +0.000 A 
ATOM     25  C   UNL     1       3.431   6.199  18.624  0.00  0.00    +0.000 A 
ATOM     26  C   UNL     1       4.057   4.913  18.577  0.00  0.00    +0.000 A 
BRANCH  21  27
ATOM     27  C   UNL     1       4.238   2.520  19.529  0.00  0.00    +0.000 C 
ATOM     28  O   UNL     1       4.887   2.095  20.446  0.00  0.00    +0.000 OA
BRANCH  27  30
ATOM     29  C   UNL     1       2.508   1.857  17.989  0.00  0.00    +0.000 C 
ATOM     30  O   UNL     1       3.886   1.731  18.444  0.00  0.00    +0.000 OA
ENDBRANCH  27  30
ENDBRANCH  21  27
ENDBRANCH  17  24
ENDBRANCH   1  18
TORSDOF 5
ENDMDL
MODEL 7
REMARK VINA RESULT:      -8.3      2.951      4.802
REMARK  Name = 
REMARK  6 active torsions:
REMARK  status: ('A' for Active; 'I' for Inactive)
REMARK    1  A    between atoms: C_1  and  O_2
REMARK    2  A    between atoms: O_2  and  C_3
REMARK    3  A    between atoms: C_3  and  C_5
REMARK    4  A    between atoms: C_8  and  N_9
REMARK    5  A    between atoms: C_10  and  C_12
REMARK    6  A    between atoms: C_14  and  C_15
REMARK                            x       y       z     vdW  Elec       q    Type
REMARK                         _______ _______ _______ _____ _____    ______ ____
ROOT
ATOM      1  C   UNL     1       3.016   6.812  18.048  0.00  0.00    +0.000 A 
ATOM      2  C   UNL     1       2.039   5.864  17.862  0.00  0.00    +0.000 A 
ATOM      3  C   UNL     1       2.484   4.618  18.113  0.00  0.00    +0.000 A 
ATOM      4  N   UNL     1       3.292   4.230  17.148  0.00  0.00    +0.000 NA
ATOM      5  C   UNL     1       4.375   4.976  17.094  0.00  0.00    +0.000 A 
ATOM      6  C   UNL     1       5.472   4.178  16.781  0.00  0.00    +0.000 A 
ATOM      7  C   UNL     1       6.753   4.656  16.857  0.00  0.00    +0.000 A 
ATOM      8  C   UNL     1       6.908   6.006  17.132  0.00  0.00    +0.000 A 
ATOM      9  C   UNL     1       5.779   6.843  17.462  0.00  0.00    +0.000 A 
ATOM     10  C   UNL     1       4.403   6.353  17.542  0.00  0.00    +0.000 A 
ENDROOT
BRANCH   3  11
ATOM     11  C   UNL     1       2.982   4.096  19.425  0.00  0.00    +0.000 A 
ATOM     12  C   UNL     1       2.225   4.462  20.529  0.00  0.00    +0.000 A 
ATOM     13  C   UNL     1       2.241   3.645  21.645  0.00  0.00    +0.000 A 
ATOM     14  N   UNL     1       2.976   2.520  21.754  0.00  0.00    +0.000 NA
ATOM     15  C   UNL     1       3.769   2.212  20.714  0.00  0.00    +0.000 A 
ATOM     16  C   UNL     1       3.851   2.985  19.568  0.00  0.00    +0.000 A 
ENDBRANCH   3  11
BRANCH   1  18
ATOM     17  N   UNL     1       2.080   9.236  18.038  0.00  0.00    +0.000 N 
ATOM     18  C   UNL     1       2.243   8.012  18.835  0.00  0.00    +0.000 C 
ATOM     19  O   UNL     1       1.859   7.879  19.988  0.00  0.00    +0.000 OA
ATOM     20  H   UNL     1       2.273   9.118  17.053  0.00  0.00    +0.000 HD
BRANCH  17  24
ATOM     21  C   UNL     1       0.709  13.352  18.722  0.00  0.00    +0.000 A 
ATOM     22  C   UNL     1       2.006  13.081  18.237  0.00  0.00    +0.000 A 
ATOM     23  C   UNL     1       2.503  11.749  18.015  0.00  0.00    +0.000 A 
ATOM     24  C   UNL     1       1.720  10.631  18.271  0.00  0.00    +0.000 A 
ATOM     25  C   UNL     1       0.411  10.927  18.771  0.00  0.00    +0.000 A 
ATOM     26  C   UNL     1      -0.093  12.248  18.994  0.00  0.00    +0.000 A 
BRANCH  21  27
ATOM     27  C   UNL     1       0.304  14.797  18.906  0.00  0.00    +0.000 C 
ATOM     28  O   UNL     1      -0.732  15.149  19.402  0.00  0.00    +0.000 OA
BRANCH  27  30
ATOM     29  C   UNL     1       1.163  17.043  19.064  0.00  0.00    +0.000 C 
ATOM     30  O   UNL     1       1.279  15.701  18.510  0.00  0.00    +0.000 OA
ENDBRANCH  27  30
ENDBRANCH  21  27
ENDBRANCH  17  24
ENDBRANCH   1  18
TORSDOF 5
ENDMDL
MODEL 8
REMARK VINA RESULT:      -8.2      2.632      4.464
REMARK  Name = 
REMARK  6 active torsions:
REMARK  status: ('A' for Active; 'I' for Inactive)
REMARK    1  A    between atoms: C_1  and  O_2
REMARK    2  A    between atoms: O_2  and  C_3
REMARK    3  A    between atoms: C_3  and  C_5
REMARK    4  A    between atoms: C_8  and  N_9
REMARK    5  A    between atoms: C_10  and  C_12
REMARK    6  A    between atoms: C_14  and  C_15
REMARK                            x       y       z     vdW  Elec       q    Type
REMARK                         _______ _______ _______ _____ _____    ______ ____
ROOT
ATOM      1  C   UNL     1       3.125   6.667  18.047  0.00  0.00    +0.000 A 
ATOM      2  C   UNL     1       2.223   5.656  17.817  0.00  0.00    +0.000 A 
ATOM      3  C   UNL     1       2.764   4.438  18.007  0.00  0.00    +0.000 A 
ATOM      4  N   UNL     1       3.594   4.160  17.023  0.00  0.00    +0.000 NA
ATOM      5  C   UNL     1       4.617   4.989  17.004  0.00  0.00    +0.000 A 
ATOM      6  C   UNL     1       5.771   4.294  16.652  0.00  0.00    +0.000 A 
ATOM      7  C   UNL     1       7.012   4.866  16.750  0.00  0.00    +0.000 A 
ATOM      8  C   UNL     1       7.063   6.209  17.090  0.00  0.00    +0.000 A 
ATOM      9  C   UNL     1       5.874   6.939  17.461  0.00  0.00    +0.000 A 
ATOM     10  C   UNL     1       4.540   6.341  17.518  0.00  0.00    +0.000 A 
ENDROOT
BRANCH   3  11
ATOM     11  C   UNL     1       3.307   3.893  19.291  0.00  0.00    +0.000 A 
ATOM     12  C   UNL     1       2.506   4.104  20.405  0.00  0.00    +0.000 A 
ATOM     13  C   UNL     1       2.604   3.227  21.469  0.00  0.00    +0.000 A 
ATOM     14  N   UNL     1       3.458   2.185  21.521  0.00  0.00    +0.000 NA
ATOM     15  C   UNL     1       4.287   2.030  20.474  0.00  0.00    +0.000 A 
ATOM     16  C   UNL     1       4.292   2.878  19.379  0.00  0.00    +0.000 A 
ENDBRANCH   3  11
BRANCH   1  18
ATOM     17  N   UNL     1       1.743   8.868  18.073  0.00  0.00    +0.000 N 
ATOM     18  C   UNL     1       2.265   7.764  18.892  0.00  0.00    +0.000 C 
ATOM     19  O   UNL     1       2.099   7.658  20.099  0.00  0.00    +0.000 OA
ATOM     20  H   UNL     1       1.799   8.707  17.077  0.00  0.00    +0.000 HD
BRANCH  17  24
ATOM     21  C   UNL     1       0.252  12.929  18.824  0.00  0.00    +0.000 A 
ATOM     22  C   UNL     1      -0.621  11.822  18.788  0.00  0.00    +0.000 A 
ATOM     23  C   UNL     1      -0.179  10.477  18.528  0.00  0.00    +0.000 A 
ATOM     24  C   UNL     1       1.158  10.186  18.293  0.00  0.00    +0.000 A 
ATOM     25  C   UNL     1       2.026  11.325  18.325  0.00  0.00    +0.000 A 
ATOM     26  C   UNL     1       1.598  12.665  18.584  0.00  0.00    +0.000 A 
BRANCH  21  27
ATOM     27  C   UNL     1      -0.336  14.292  19.114  0.00  0.00    +0.000 C 
ATOM     28  O   UNL     1      -0.062  15.288  18.502  0.00  0.00    +0.000 OA
BRANCH  27  30
ATOM     29  C   UNL     1      -0.780  14.446  21.478  0.00  0.00    +0.000 C 
ATOM     30  O   UNL     1      -1.288  14.282  20.123  0.00  0.00    +0.000 OA
ENDBRANCH  27  30
ENDBRANCH  21  27
ENDBRANCH  17  24
ENDBRANCH   1  18
TORSDOF 5
ENDMDL
MODEL 9
REMARK VINA RESULT:      -8.2      3.157      9.357
REMARK  Name = 
REMARK  6 active torsions:
REMARK  status: ('A' for Active; 'I' for Inactive)
REMARK    1  A    between atoms: C_1  and  O_2
REMARK    2  A    between atoms: O_2  and  C_3
REMARK    3  A    between atoms: C_3  and  C_5
REMARK    4  A    between atoms: C_8  and  N_9
REMARK    5  A    between atoms: C_10  and  C_12
REMARK    6  A    between atoms: C_14  and  C_15
REMARK                            x       y       z     vdW  Elec       q    Type
REMARK                         _______ _______ _______ _____ _____    ______ ____
ROOT
ATOM      1  C   UNL     1       0.715   9.850  19.161  0.00  0.00    +0.000 A 
ATOM      2  C   UNL     1       0.091  10.855  18.462  0.00  0.00    +0.000 A 
ATOM      3  C   UNL     1      -0.091  11.959  19.212  0.00  0.00    +0.000 A 
ATOM      4  N   UNL     1      -1.041  11.744  20.098  0.00  0.00    +0.000 NA
ATOM      5  C   UNL     1      -0.703  10.802  20.953  0.00  0.00    +0.000 A 
ATOM      6  C   UNL     1      -1.171  11.136  22.221  0.00  0.00    +0.000 A 
ATOM      7  C   UNL     1      -0.791  10.436  23.335  0.00  0.00    +0.000 A 
ATOM      8  C   UNL     1      -0.021   9.301  23.135  0.00  0.00    +0.000 A 
ATOM      9  C   UNL     1       0.475   8.946  21.826  0.00  0.00    +0.000 A 
ATOM     10  C   UNL     1       0.223   9.738  20.622  0.00  0.00    +0.000 A 
ENDROOT
BRANCH   3  11
ATOM     11  C   UNL     1       0.979  12.811  19.820  0.00  0.00    +0.000 A 
ATOM     12  C   UNL     1       2.145  12.912  19.073  0.00  0.00    +0.000 A 
ATOM     13  C   UNL     1       2.937  14.035  19.227  0.00  0.00    +0.000 A 
ATOM     14  N   UNL     1       2.674  15.040  20.086  0.00  0.00    +0.000 NA
ATOM     15  C   UNL     1       1.586  14.902  20.864  0.00  0.00    +0.000 A 
ATOM     16  C   UNL     1       0.752  13.797  20.812  0.00  0.00    +0.000 A 
ENDBRANCH   3  11
BRANCH   1  18
ATOM     17  N   UNL     1       2.207   7.875  18.369  0.00  0.00    +0.000 N 
ATOM     18  C   UNL     1       1.805   9.263  18.100  0.00  0.00    +0.000 C 
ATOM     19  O   UNL     1       2.238   9.945  17.182  0.00  0.00    +0.000 OA
ATOM     20  H   UNL     1       1.618   7.394  19.036  0.00  0.00    +0.000 HD
BRANCH  17  24
ATOM     21  C   UNL     1       5.472   5.330  16.903  0.00  0.00    +0.000 A 
ATOM     22  C   UNL     1       4.348   4.780  17.554  0.00  0.00    +0.000 A 
ATOM     23  C   UNL     1       3.265   5.577  18.066  0.00  0.00    +0.000 A 
ATOM     24  C   UNL     1       3.263   6.960  17.946  0.00  0.00    +0.000 A 
ATOM     25  C   UNL     1       4.416   7.499  17.291  0.00  0.00    +0.000 A 
ATOM     26  C   UNL     1       5.498   6.716  16.777  0.00  0.00    +0.000 A 
BRANCH  21  27
ATOM     27  C   UNL     1       6.542   4.385  16.404  0.00  0.00    +0.000 C 
ATOM     28  O   UNL     1       7.663   4.349  16.832  0.00  0.00    +0.000 OA
BRANCH  27  30
ATOM     29  C   UNL     1       6.276   3.914  14.056  0.00  0.00    +0.000 C 
ATOM     30  O   UNL     1       6.090   3.497  15.439  0.00  0.00    +0.000 OA
ENDBRANCH  27  30
ENDBRANCH  21  27
ENDBRANCH  17  24
ENDBRANCH   1  18
TORSDOF 5
ENDMDL
