MODEL 1
REMARK VINA RESULT:      -8.1      0.000      0.000
REMARK  Name = 
REMARK  8 active torsions:
REMARK  status: ('A' for Active; 'I' for Inactive)
REMARK    1  A    between atoms: C_1  and  O_2
REMARK    2  A    between atoms: O_2  and  C_3
REMARK    3  A    between atoms: C_6  and  N_7
REMARK    4  A    between atoms: C_10  and  C_11
REMARK    5  A    between atoms: N_13  and  C_14
REMARK    6  A    between atoms: C_17  and  C_18
REMARK    7  A    between atoms: C_29  and  O_30
REMARK    8  A    between atoms: O_30  and  C_31
REMARK                            x       y       z     vdW  Elec       q    Type
REMARK                         _______ _______ _______ _____ _____    ______ ____
ROOT
ATOM      1  N   UNL     1       1.946   8.197  18.037  0.00  0.00    +0.000 N 
ATOM      2  C   UNL     1       1.198   8.987  18.937  0.00  0.00    +0.000 A 
ATOM      3  C   UNL     1       0.363   9.933  18.366  0.00  0.00    +0.000 A 
ATOM      4  C   UNL     1      -0.073  11.010  19.103  0.00  0.00    +0.000 A 
ATOM      5  C   UNL     1      -0.283  10.806  20.469  0.00  0.00    +0.000 A 
ATOM      6  C   UNL     1      -1.135  11.646  21.209  0.00  0.00    +0.000 A 
ATOM      7  C   UNL     1      -1.346  11.404  22.560  0.00  0.00    +0.000 A 
ATOM      8  C   UNL     1      -0.683  10.341  23.145  0.00  0.00    +0.000 A 
ATOM      9  C   UNL     1       0.161   9.518  22.402  0.00  0.00    +0.000 A 
ATOM     10  C   UNL     1       0.389   9.710  21.020  0.00  0.00    +0.000 A 
ATOM     11  N   UNL     1       1.212   8.895  20.305  0.00  0.00    +0.000 NA
ATOM     12  H   UNL     1       2.084   8.716  17.177  0.00  0.00    +0.000 HD
ENDROOT
BRANCH   1  16
ATOM     13  C   UNL     1       5.136   5.375  18.159  0.00  0.00    +0.000 A 
ATOM     14  C   UNL     1       5.140   6.458  17.278  0.00  0.00    +0.000 A 
ATOM     15  C   UNL     1       4.091   7.387  17.286  0.00  0.00    +0.000 A 
ATOM     16  C   UNL     1       2.985   7.247  18.149  0.00  0.00    +0.000 A 
ATOM     17  C   UNL     1       2.953   6.123  18.963  0.00  0.00    +0.000 A 
ATOM     18  C   UNL     1       4.018   5.188  18.991  0.00  0.00    +0.000 A 
BRANCH  13  20
ATOM     19  C   UNL     1       7.257   4.706  17.293  0.00  0.00    +0.000 C 
ATOM     20  O   UNL     1       6.168   4.473  18.185  0.00  0.00    +0.000 OA
ENDBRANCH  13  20
BRANCH  18  21
ATOM     21  O   UNL     1       3.783   4.180  19.888  0.00  0.00    +0.000 OA
ATOM     22  C   UNL     1       2.866   3.150  19.557  0.00  0.00    +0.000 C 
ENDBRANCH  18  21
ENDBRANCH   1  16
BRANCH   4  23
ATOM     23  C   UNL     1       0.579  12.344  18.834  0.00  0.00    +0.000 C 
ATOM     24  O   UNL     1      -0.014  13.220  18.219  0.00  0.00    +0.000 OA
ATOM     25  N   UNL     1       1.821  12.522  19.429  0.00  0.00    +0.000 N 
ATOM     26  H   UNL     1       2.250  11.762  19.940  0.00  0.00    +0.000 HD
BRANCH  25  27
ATOM     27  C   UNL     1       2.506  13.808  19.461  0.00  0.00    +0.000 C 
ATOM     28  C   UNL     1       3.460  13.932  18.272  0.00  0.00    +0.000 C 
ATOM     29  C   UNL     1       4.233  15.249  18.308  0.00  0.00    +0.000 C 
ATOM     30  C   UNL     1       4.984  15.435  19.633  0.00  0.00    +0.000 C 
ATOM     31  C   UNL     1       5.694  16.787  19.673  0.00  0.00    +0.000 C 
ATOM     32  C   UNL     1       4.030  15.298  20.827  0.00  0.00    +0.000 C 
ATOM     33  C   UNL     1       3.267  13.977  20.785  0.00  0.00    +0.000 C 
ENDBRANCH  25  27
ENDBRANCH   4  23
TORSDOF 5
ENDMDL
MODEL 2
REMARK VINA RESULT:      -7.9      0.841      1.665
REMARK  Name = 
REMARK  8 active torsions:
REMARK  status: ('A' for Active; 'I' for Inactive)
REMARK    1  A    between atoms: C_1  and  O_2
REMARK    2  A    between atoms: O_2  and  C_3
REMARK    3  A    between atoms: C_6  and  N_7
REMARK    4  A    between atoms: C_10  and  C_11
REMARK    5  A    between atoms: N_13  and  C_14
REMARK    6  A    between atoms: C_17  and  C_18
REMARK    7  A    between atoms: C_29  and  O_30
REMARK    8  A    between atoms: O_30  and  C_31
REMARK                            x       y       z     vdW  Elec       q    Type
REMARK                         _______ _______ _______ _____ _____    ______ ____
ROOT
ATOM      1  N   UNL     1       2.036   8.109  17.999  0.00  0.00    +0.000 N 
ATOM      2  C   UNL     1       1.295   8.849  18.947  0.00  0.00    +0.000 A 
ATOM      3  C   UNL     1       0.377   9.749  18.431  0.00  0.00    +0.000 A 
ATOM      4  C   UNL     1      -0.079  10.794  19.201  0.00  0.00    +0.000 A 
ATOM      5  C   UNL     1      -0.200  10.570  20.576  0.00  0.00    +0.000 A 
ATOM      6  C   UNL     1      -1.056  11.354  21.369  0.00  0.00    +0.000 A 
ATOM      7  C   UNL     1      -1.177  11.092  22.728  0.00  0.00    +0.000 A 
ATOM      8  C   UNL     1      -0.422  10.066  23.265  0.00  0.00    +0.000 A 
ATOM      9  C   UNL     1       0.425   9.298  22.468  0.00  0.00    +0.000 A 
ATOM     10  C   UNL     1       0.564   9.511  21.078  0.00  0.00    +0.000 A 
ATOM     11  N   UNL     1       1.391   8.750  20.311  0.00  0.00    +0.000 NA
ATOM     12  H   UNL     1       2.096   8.641  17.138  0.00  0.00    +0.000 HD
ENDROOT
BRANCH   1  16
ATOM     13  C   UNL     1       5.333   5.434  18.363  0.00  0.00    +0.000 A 
ATOM     14  C   UNL     1       4.348   5.532  19.348  0.00  0.00    +0.000 A 
ATOM     15  C   UNL     1       3.258   6.399  19.182  0.00  0.00    +0.000 A 
ATOM     16  C   UNL     1       3.133   7.221  18.044  0.00  0.00    +0.000 A 
ATOM     17  C   UNL     1       4.160   7.174  17.111  0.00  0.00    +0.000 A 
ATOM     18  C   UNL     1       5.254   6.284  17.246  0.00  0.00    +0.000 A 
BRANCH  13  20
ATOM     19  C   UNL     1       7.649   5.136  18.855  0.00  0.00    +0.000 C 
ATOM     20  O   UNL     1       6.389   4.571  18.495  0.00  0.00    +0.000 OA
ENDBRANCH  13  20
BRANCH  18  21
ATOM     21  O   UNL     1       6.125   6.389  16.193  0.00  0.00    +0.000 OA
ATOM     22  C   UNL     1       6.136   5.383  15.194  0.00  0.00    +0.000 C 
ENDBRANCH  18  21
ENDBRANCH   1  16
BRANCH   4  23
ATOM     23  C   UNL     1       0.479  12.165  18.910  0.00  0.00    +0.000 C 
ATOM     24  O   UNL     1      -0.219  13.030  18.398  0.00  0.00    +0.000 OA
ATOM     25  N   UNL     1       1.772  12.383  19.365  0.00  0.00    +0.000 N 
ATOM     26  H   UNL     1       2.290  11.628  19.795  0.00  0.00    +0.000 HD
BRANCH  25  27
ATOM     27  C   UNL     1       2.399  13.699  19.366  0.00  0.00    +0.000 C 
ATOM     28  C   UNL     1       3.364  13.828  18.186  0.00  0.00    +0.000 C 
ATOM     29  C   UNL     1       4.078  15.179  18.191  0.00  0.00    +0.000 C 
ATOM     30  C   UNL     1       4.801  15.438  19.520  0.00  0.00    +0.000 C 
ATOM     31  C   UNL     1       5.451  16.821  19.526  0.00  0.00    +0.000 C 
ATOM     32  C   UNL     1       3.837  15.296  20.705  0.00  0.00    +0.000 C 
ATOM     33  C   UNL     1       3.133  13.941  20.694  0.00  0.00    +0.000 C 
ENDBRANCH  25  27
ENDBRANCH   4  23
TORSDOF 5
ENDMDL
MODEL 3
REMARK VINA RESULT:      -7.6      0.833      1.782
REMARK  Name = 
REMARK  8 active torsions:
REMARK  status: ('A' for Active; 'I' for Inactive)
REMARK    1  A    between atoms: C_1  and  O_2
REMARK    2  A    between atoms: O_2  and  C_3
REMARK    3  A    between atoms: C_6  and  N_7
REMARK    4  A    between atoms: C_10  and  C_11
REMARK    5  A    between atoms: N_13  and  C_14
REMARK    6  A    between atoms: C_17  and  C_18
REMARK    7  A    between atoms: C_29  and  O_30
REMARK    8  A    between atoms: O_30  and  C_31
REMARK                            x       y       z     vdW  Elec       q    Type
REMARK                         _______ _______ _______ _____ _____    ______ ____
ROOT
ATOM      1  N   UNL     1       1.584   8.509  18.162  0.00  0.00    +0.000 N 
ATOM      2  C   UNL     1       0.854   9.354  19.025  0.00  0.00    +0.000 A 
ATOM      3  C   UNL     1       0.130  10.366  18.415  0.00  0.00    +0.000 A 
ATOM      4  C   UNL     1      -0.259  11.473  19.133  0.00  0.00    +0.000 A 
ATOM      5  C   UNL     1      -0.559  11.284  20.485  0.00  0.00    +0.000 A 
ATOM      6  C   UNL     1      -1.380  12.188  21.182  0.00  0.00    +0.000 A 
ATOM      7  C   UNL     1      -1.685  11.961  22.518  0.00  0.00    +0.000 A 
ATOM      8  C   UNL     1      -1.142  10.848  23.132  0.00  0.00    +0.000 A 
ATOM      9  C   UNL     1      -0.327   9.961  22.431  0.00  0.00    +0.000 A 
ATOM     10  C   UNL     1      -0.008  10.137  21.065  0.00  0.00    +0.000 A 
ATOM     11  N   UNL     1       0.785   9.259  20.391  0.00  0.00    +0.000 NA
ATOM     12  H   UNL     1       1.811   9.017  17.315  0.00  0.00    +0.000 HD
ENDROOT
BRANCH   1  16
ATOM     13  C   UNL     1       4.404   5.395  18.875  0.00  0.00    +0.000 A 
ATOM     14  C   UNL     1       3.280   5.574  19.684  0.00  0.00    +0.000 A 
ATOM     15  C   UNL     1       2.354   6.588  19.402  0.00  0.00    +0.000 A 
ATOM     16  C   UNL     1       2.537   7.479  18.325  0.00  0.00    +0.000 A 
ATOM     17  C   UNL     1       3.699   7.342  17.578  0.00  0.00    +0.000 A 
ATOM     18  C   UNL     1       4.632   6.305  17.828  0.00  0.00    +0.000 A 
BRANCH  13  20
ATOM     19  C   UNL     1       4.774   3.099  19.415  0.00  0.00    +0.000 C 
ATOM     20  O   UNL     1       5.304   4.390  19.118  0.00  0.00    +0.000 OA
ENDBRANCH  13  20
BRANCH  18  21
ATOM     21  O   UNL     1       5.682   6.347  16.950  0.00  0.00    +0.000 OA
ATOM     22  C   UNL     1       6.902   6.951  17.348  0.00  0.00    +0.000 C 
ENDBRANCH  18  21
ENDBRANCH   1  16
BRANCH   4  23
ATOM     23  C   UNL     1       0.512  12.751  18.909  0.00  0.00    +0.000 C 
ATOM     24  O   UNL     1      -0.007  13.706  18.347  0.00  0.00    +0.000 OA
ATOM     25  N   UNL     1       1.776  12.783  19.482  0.00  0.00    +0.000 N 
ATOM     26  H   UNL     1       2.141  11.963  19.949  0.00  0.00    +0.000 HD
BRANCH  25  27
ATOM     27  C   UNL     1       2.580  13.997  19.556  0.00  0.00    +0.000 C 
ATOM     28  C   UNL     1       3.522  14.084  18.354  0.00  0.00    +0.000 C 
ATOM     29  C   UNL     1       4.417  15.319  18.430  0.00  0.00    +0.000 C 
ATOM     30  C   UNL     1       5.205  15.374  19.746  0.00  0.00    +0.000 C 
ATOM     31  C   UNL     1       6.040  16.649  19.829  0.00  0.00    +0.000 C 
ATOM     32  C   UNL     1       4.262  15.274  20.953  0.00  0.00    +0.000 C 
ATOM     33  C   UNL     1       3.376  14.034  20.869  0.00  0.00    +0.000 C 
ENDBRANCH  25  27
ENDBRANCH   4  23
TORSDOF 5
ENDMDL
MODEL 4
REMARK VINA RESULT:      -7.5      1.095      1.117
REMARK  Name = 
REMARK  8 active torsions:
REMARK  status: ('A' for Active; 'I' for Inactive)
REMARK    1  A    between atoms: C_1  and  O_2
REMARK    2  A    between atoms: O_2  and  C_3
REMARK    3  A    between atoms: C_6  and  N_7
REMARK    4  A    between atoms: C_10  and  C_11
REMARK    5  A    between atoms: N_13  and  C_14
REMARK    6  A    between atoms: C_17  and  C_18
REMARK    7  A    between atoms: C_29  and  O_30
REMARK    8  A    between atoms: O_30  and  C_31
REMARK                            x       y       z     vdW  Elec       q    Type
REMARK                         _______ _______ _______ _____ _____    ______ ____
ROOT
ATOM      1  N   UNL     1       2.099   8.421  17.872  0.00  0.00    +0.000 N 
ATOM      2  C   UNL     1       1.406   9.108  18.892  0.00  0.00    +0.000 A 
ATOM      3  C   UNL     1       0.768  10.278  18.512  0.00  0.00    +0.000 A 
ATOM      4  C   UNL     1       0.437  11.226  19.452  0.00  0.00    +0.000 A 
ATOM      5  C   UNL     1       0.092  10.769  20.727  0.00  0.00    +0.000 A 
ATOM      6  C   UNL     1      -0.683  11.556  21.597  0.00  0.00    +0.000 A 
ATOM      7  C   UNL     1      -1.035  11.066  22.848  0.00  0.00    +0.000 A 
ATOM      8  C   UNL     1      -0.584   9.810  23.208  0.00  0.00    +0.000 A 
ATOM      9  C   UNL     1       0.186   9.041  22.337  0.00  0.00    +0.000 A 
ATOM     10  C   UNL     1       0.549   9.487  21.046  0.00  0.00    +0.000 A 
ATOM     11  N   UNL     1       1.297   8.723  20.204  0.00  0.00    +0.000 NA
ATOM     12  H   UNL     1       2.380   9.084  17.159  0.00  0.00    +0.000 HD
ENDROOT
BRANCH   1  16
ATOM     13  C   UNL     1       4.839   5.177  17.515  0.00  0.00    +0.000 A 
ATOM     14  C   UNL     1       5.137   6.453  17.032  0.00  0.00    +0.000 A 
ATOM     15  C   UNL     1       4.227   7.507  17.195  0.00  0.00    +0.000 A 
ATOM     16  C   UNL     1       2.975   7.315  17.814  0.00  0.00    +0.000 A 
ATOM     17  C   UNL     1       2.657   6.025  18.217  0.00  0.00    +0.000 A 
ATOM     18  C   UNL     1       3.575   4.953  18.088  0.00  0.00    +0.000 A 
BRANCH  13  20
ATOM     19  C   UNL     1       7.110   4.484  17.272  0.00  0.00    +0.000 C 
ATOM     20  O   UNL     1       5.730   4.143  17.390  0.00  0.00    +0.000 OA
ENDBRANCH  13  20
BRANCH  18  21
ATOM     21  O   UNL     1       3.060   3.783  18.579  0.00  0.00    +0.000 OA
ATOM     22  C   UNL     1       1.802   3.323  18.110  0.00  0.00    +0.000 C 
ENDBRANCH  18  21
ENDBRANCH   1  16
BRANCH   4  23
ATOM     23  C   UNL     1       1.298  12.464  19.520  0.00  0.00    +0.000 C 
ATOM     24  O   UNL     1       1.930  12.733  20.532  0.00  0.00    +0.000 OA
ATOM     25  N   UNL     1       1.394  13.180  18.334  0.00  0.00    +0.000 N 
ATOM     26  H   UNL     1       0.857  12.894  17.526  0.00  0.00    +0.000 HD
BRANCH  25  27
ATOM     27  C   UNL     1       2.338  14.274  18.145  0.00  0.00    +0.000 C 
ATOM     28  C   UNL     1       3.774  13.748  18.172  0.00  0.00    +0.000 C 
ATOM     29  C   UNL     1       4.790  14.880  18.030  0.00  0.00    +0.000 C 
ATOM     30  C   UNL     1       4.586  15.967  19.094  0.00  0.00    +0.000 C 
ATOM     31  C   UNL     1       5.567  17.120  18.891  0.00  0.00    +0.000 C 
ATOM     32  C   UNL     1       3.142  16.487  19.076  0.00  0.00    +0.000 C 
ATOM     33  C   UNL     1       2.136  15.348  19.224  0.00  0.00    +0.000 C 
ENDBRANCH  25  27
ENDBRANCH   4  23
TORSDOF 5
ENDMDL
MODEL 5
REMARK VINA RESULT:      -7.5      1.217      1.926
REMARK  Name = 
REMARK  8 active torsions:
REMARK  status: ('A' for Active; 'I' for Inactive)
REMARK    1  A    between atoms: C_1  and  O_2
REMARK    2  A    between atoms: O_2  and  C_3
REMARK    3  A    between atoms: C_6  and  N_7
REMARK    4  A    between atoms: C_10  and  C_11
REMARK    5  A    between atoms: N_13  and  C_14
REMARK    6  A    between atoms: C_17  and  C_18
REMARK    7  A    between atoms: C_29  and  O_30
REMARK    8  A    between atoms: O_30  and  C_31
REMARK                            x       y       z     vdW  Elec       q    Type
REMARK                         _______ _______ _______ _____ _____    ______ ____
ROOT
ATOM      1  N   UNL     1       2.048   8.384  18.346  0.00  0.00    +0.000 N 
ATOM      2  C   UNL     1       1.312   9.204  19.229  0.00  0.00    +0.000 A 
ATOM      3  C   UNL     1       0.822  10.385  18.696  0.00  0.00    +0.000 A 
ATOM      4  C   UNL     1       0.476  11.430  19.521  0.00  0.00    +0.000 A 
ATOM      5  C   UNL     1      -0.041  11.106  20.779  0.00  0.00    +0.000 A 
ATOM      6  C   UNL     1      -0.833  12.019  21.497  0.00  0.00    +0.000 A 
ATOM      7  C   UNL     1      -1.357  11.662  22.733  0.00  0.00    +0.000 A 
ATOM      8  C   UNL     1      -1.057  10.407  23.231  0.00  0.00    +0.000 A 
ATOM      9  C   UNL     1      -0.268   9.513  22.510  0.00  0.00    +0.000 A 
ATOM     10  C   UNL     1       0.267   9.822  21.240  0.00  0.00    +0.000 A 
ATOM     11  N   UNL     1       1.032   8.937  20.544  0.00  0.00    +0.000 NA
ATOM     12  H   UNL     1       2.460   8.964  17.622  0.00  0.00    +0.000 HD
ENDROOT
BRANCH   1  16
ATOM     13  C   UNL     1       4.358   4.852  18.936  0.00  0.00    +0.000 A 
ATOM     14  C   UNL     1       3.336   5.223  19.812  0.00  0.00    +0.000 A 
ATOM     15  C   UNL     1       2.573   6.374  19.571  0.00  0.00    +0.000 A 
ATOM     16  C   UNL     1       2.826   7.212  18.467  0.00  0.00    +0.000 A 
ATOM     17  C   UNL     1       3.896   6.878  17.648  0.00  0.00    +0.000 A 
ATOM     18  C   UNL     1       4.661   5.703  17.858  0.00  0.00    +0.000 A 
BRANCH  13  20
ATOM     19  C   UNL     1       4.424   2.604  19.733  0.00  0.00    +0.000 C 
ATOM     20  O   UNL     1       5.094   3.715  19.140  0.00  0.00    +0.000 OA
ENDBRANCH  13  20
BRANCH  18  21
ATOM     21  O   UNL     1       5.641   5.562  16.912  0.00  0.00    +0.000 OA
ATOM     22  C   UNL     1       5.389   4.777  15.757  0.00  0.00    +0.000 C 
ENDBRANCH  18  21
ENDBRANCH   1  16
BRANCH   4  23
ATOM     23  C   UNL     1       1.428  12.598  19.597  0.00  0.00    +0.000 C 
ATOM     24  O   UNL     1       2.228  12.697  20.517  0.00  0.00    +0.000 OA
ATOM     25  N   UNL     1       1.394  13.456  18.505  0.00  0.00    +0.000 N 
ATOM     26  H   UNL     1       0.718  13.308  17.767  0.00  0.00    +0.000 HD
BRANCH  25  27
ATOM     27  C   UNL     1       2.378  14.511  18.297  0.00  0.00    +0.000 C 
ATOM     28  C   UNL     1       3.777  13.912  18.151  0.00  0.00    +0.000 C 
ATOM     29  C   UNL     1       4.839  14.998  17.986  0.00  0.00    +0.000 C 
ATOM     30  C   UNL     1       4.798  16.016  19.133  0.00  0.00    +0.000 C 
ATOM     31  C   UNL     1       5.821  17.129  18.912  0.00  0.00    +0.000 C 
ATOM     32  C   UNL     1       3.391  16.609  19.289  0.00  0.00    +0.000 C 
ATOM     33  C   UNL     1       2.339  15.516  19.459  0.00  0.00    +0.000 C 
ENDBRANCH  25  27
ENDBRANCH   4  23
TORSDOF 5
ENDMDL
MODEL 6
REMARK VINA RESULT:      -7.4      0.887      1.211
REMARK  Name = 
REMARK  8 active torsions:
REMARK  status: ('A' for Active; 'I' for Inactive)
REMARK    1  A    between atoms: C_1  and  O_2
REMARK    2  A    between atoms: O_2  and  C_3
REMARK    3  A    between atoms: C_6  and  N_7
REMARK    4  A    between atoms: C_10  and  C_11
REMARK    5  A    between atoms: N_13  and  C_14
REMARK    6  A    between atoms: C_17  and  C_18
REMARK    7  A    between atoms: C_29  and  O_30
REMARK    8  A    between atoms: O_30  and  C_31
REMARK                            x       y       z     vdW  Elec       q    Type
REMARK                         _______ _______ _______ _____ _____    ______ ____
ROOT
ATOM      1  N   UNL     1       1.903   8.333  18.112  0.00  0.00    +0.000 N 
ATOM      2  C   UNL     1       1.154   9.101  19.030  0.00  0.00    +0.000 A 
ATOM      3  C   UNL     1       0.361  10.097  18.484  0.00  0.00    +0.000 A 
ATOM      4  C   UNL     1      -0.065  11.150  19.260  0.00  0.00    +0.000 A 
ATOM      5  C   UNL     1      -0.316  10.888  20.610  0.00  0.00    +0.000 A 
ATOM      6  C   UNL     1      -1.163  11.716  21.367  0.00  0.00    +0.000 A 
ATOM      7  C   UNL     1      -1.417  11.417  22.700  0.00  0.00    +0.000 A 
ATOM      8  C   UNL     1      -0.800  10.309  23.250  0.00  0.00    +0.000 A 
ATOM      9  C   UNL     1       0.041   9.498  22.489  0.00  0.00    +0.000 A 
ATOM     10  C   UNL     1       0.310   9.748  21.124  0.00  0.00    +0.000 A 
ATOM     11  N   UNL     1       1.129   8.944  20.392  0.00  0.00    +0.000 NA
ATOM     12  H   UNL     1       2.078   8.888  17.282  0.00  0.00    +0.000 HD
ENDROOT
BRANCH   1  16
ATOM     13  C   UNL     1       5.006   5.414  18.176  0.00  0.00    +0.000 A 
ATOM     14  C   UNL     1       5.053   6.524  17.331  0.00  0.00    +0.000 A 
ATOM     15  C   UNL     1       4.031   7.483  17.358  0.00  0.00    +0.000 A 
ATOM     16  C   UNL     1       2.912   7.349  18.204  0.00  0.00    +0.000 A 
ATOM     17  C   UNL     1       2.837   6.201  18.981  0.00  0.00    +0.000 A 
ATOM     18  C   UNL     1       3.873   5.234  18.989  0.00  0.00    +0.000 A 
BRANCH  13  20
ATOM     19  C   UNL     1       7.080   4.670  17.258  0.00  0.00    +0.000 C 
ATOM     20  O   UNL     1       6.010   4.481  18.184  0.00  0.00    +0.000 OA
ENDBRANCH  13  20
BRANCH  18  21
ATOM     21  O   UNL     1       3.598   4.206  19.851  0.00  0.00    +0.000 OA
ATOM     22  C   UNL     1       2.412   3.447  19.677  0.00  0.00    +0.000 C 
ENDBRANCH  18  21
ENDBRANCH   1  16
BRANCH   4  23
ATOM     23  C   UNL     1       0.631  12.476  19.073  0.00  0.00    +0.000 C 
ATOM     24  O   UNL     1       0.265  13.259  18.207  0.00  0.00    +0.000 OA
ATOM     25  N   UNL     1       1.612  12.764  20.013  0.00  0.00    +0.000 N 
ATOM     26  H   UNL     1       1.856  12.077  20.714  0.00  0.00    +0.000 HD
BRANCH  25  27
ATOM     27  C   UNL     1       2.241  14.074  20.124  0.00  0.00    +0.000 C 
ATOM     28  C   UNL     1       3.529  13.977  20.943  0.00  0.00    +0.000 C 
ATOM     29  C   UNL     1       4.184  15.345  21.123  0.00  0.00    +0.000 C 
ATOM     30  C   UNL     1       3.218  16.365  21.741  0.00  0.00    +0.000 C 
ATOM     31  C   UNL     1       3.872  17.740  21.849  0.00  0.00    +0.000 C 
ATOM     32  C   UNL     1       1.920  16.453  20.927  0.00  0.00    +0.000 C 
ATOM     33  C   UNL     1       1.271  15.082  20.758  0.00  0.00    +0.000 C 
ENDBRANCH  25  27
ENDBRANCH   4  23
TORSDOF 5
ENDMDL
MODEL 7
REMARK VINA RESULT:      -7.3      1.387      2.256
REMARK  Name = 
REMARK  8 active torsions:
REMARK  status: ('A' for Active; 'I' for Inactive)
REMARK    1  A    between atoms: C_1  and  O_2
REMARK    2  A    between atoms: O_2  and  C_3
REMARK    3  A    between atoms: C_6  and  N_7
REMARK    4  A    between atoms: C_10  and  C_11
REMARK    5  A    between atoms: N_13  and  C_14
REMARK    6  A    between atoms: C_17  and  C_18
REMARK    7  A    between atoms: C_29  and  O_30
REMARK    8  A    between atoms: O_30  and  C_31
REMARK                            x       y       z     vdW  Elec       q    Type
REMARK                         _______ _______ _______ _____ _____    ______ ____
ROOT
ATOM      1  N   UNL     1       2.404   7.452  18.257  0.00  0.00    +0.000 N 
ATOM      2  C   UNL     1       1.711   8.420  19.016  0.00  0.00    +0.000 A 
ATOM      3  C   UNL     1       1.243   9.520  18.315  0.00  0.00    +0.000 A 
ATOM      4  C   UNL     1       0.945  10.689  18.975  0.00  0.00    +0.000 A 
ATOM      5  C   UNL     1       0.445  10.579  20.276  0.00  0.00    +0.000 A 
ATOM      6  C   UNL     1      -0.306  11.615  20.858  0.00  0.00    +0.000 A 
ATOM      7  C   UNL     1      -0.813  11.468  22.143  0.00  0.00    +0.000 A 
ATOM      8  C   UNL     1      -0.539  10.297  22.823  0.00  0.00    +0.000 A 
ATOM      9  C   UNL     1       0.210   9.278  22.236  0.00  0.00    +0.000 A 
ATOM     10  C   UNL     1       0.726   9.372  20.924  0.00  0.00    +0.000 A 
ATOM     11  N   UNL     1       1.451   8.366  20.361  0.00  0.00    +0.000 NA
ATOM     12  H   UNL     1       2.817   7.900  17.446  0.00  0.00    +0.000 HD
ENDROOT
BRANCH   1  16
ATOM     13  C   UNL     1       4.466   3.841  19.188  0.00  0.00    +0.000 A 
ATOM     14  C   UNL     1       3.115   3.851  18.833  0.00  0.00    +0.000 A 
ATOM     15  C   UNL     1       2.475   5.052  18.500  0.00  0.00    +0.000 A 
ATOM     16  C   UNL     1       3.152   6.289  18.545  0.00  0.00    +0.000 A 
ATOM     17  C   UNL     1       4.470   6.275  18.978  0.00  0.00    +0.000 A 
ATOM     18  C   UNL     1       5.144   5.068  19.291  0.00  0.00    +0.000 A 
BRANCH  13  20
ATOM     19  C   UNL     1       4.519   1.832  20.476  0.00  0.00    +0.000 C 
ATOM     20  O   UNL     1       5.115   2.671  19.488  0.00  0.00    +0.000 OA
ENDBRANCH  13  20
BRANCH  18  21
ATOM     21  O   UNL     1       6.442   5.295  19.664  0.00  0.00    +0.000 OA
ATOM     22  C   UNL     1       7.357   5.826  18.720  0.00  0.00    +0.000 C 
ENDBRANCH  18  21
ENDBRANCH   1  16
BRANCH   4  23
ATOM     23  C   UNL     1       1.931  11.825  18.854  0.00  0.00    +0.000 C 
ATOM     24  O   UNL     1       2.588  11.979  17.834  0.00  0.00    +0.000 OA
ATOM     25  N   UNL     1       1.937  12.714  19.921  0.00  0.00    +0.000 N 
ATOM     26  H   UNL     1       1.356  12.538  20.729  0.00  0.00    +0.000 HD
BRANCH  25  27
ATOM     27  C   UNL     1       2.661  13.979  19.891  0.00  0.00    +0.000 C 
ATOM     28  C   UNL     1       3.414  14.191  21.206  0.00  0.00    +0.000 C 
ATOM     29  C   UNL     1       4.139  15.535  21.227  0.00  0.00    +0.000 C 
ATOM     30  C   UNL     1       3.186  16.704  20.949  0.00  0.00    +0.000 C 
ATOM     31  C   UNL     1       3.944  18.029  20.908  0.00  0.00    +0.000 C 
ATOM     32  C   UNL     1       2.421  16.486  19.636  0.00  0.00    +0.000 C 
ATOM     33  C   UNL     1       1.695  15.144  19.628  0.00  0.00    +0.000 C 
ENDBRANCH  25  27
ENDBRANCH   4  23
TORSDOF 5
ENDMDL
MODEL 8
REMARK VINA RESULT:      -7.2      0.941      1.331
REMARK  Name = 
REMARK  8 active torsions:
REMARK  status: ('A' for Active; 'I' for Inactive)
REMARK    1  A    between atoms: C_1  and  O_2
REMARK    2  A    between atoms: O_2  and  C_3
REMARK    3  A    between atoms: C_6  and  N_7
REMARK    4  A    between atoms: C_10  and  C_11
REMARK    5  A    between atoms: N_13  and  C_14
REMARK    6  A    between atoms: C_17  and  C_18
REMARK    7  A    between atoms: C_29  and  O_30
REMARK    8  A    between atoms: O_30  and  C_31
REMARK                            x       y       z     vdW  Elec       q    Type
REMARK                         _______ _______ _______ _____ _____    ______ ____
ROOT
ATOM      1  N   UNL     1       1.860   8.450  17.934  0.00  0.00    +0.000 N 
ATOM      2  C   UNL     1       1.168   9.161  18.939  0.00  0.00    +0.000 A 
ATOM      3  C   UNL     1       0.481  10.289  18.522  0.00  0.00    +0.000 A 
ATOM      4  C   UNL     1       0.141  11.269  19.426  0.00  0.00    +0.000 A 
ATOM      5  C   UNL     1      -0.158  10.861  20.728  0.00  0.00    +0.000 A 
ATOM      6  C   UNL     1      -0.938  11.661  21.581  0.00  0.00    +0.000 A 
ATOM      7  C   UNL     1      -1.242  11.219  22.863  0.00  0.00    +0.000 A 
ATOM      8  C   UNL     1      -0.740   9.997  23.268  0.00  0.00    +0.000 A 
ATOM      9  C   UNL     1       0.036   9.215  22.414  0.00  0.00    +0.000 A 
ATOM     10  C   UNL     1       0.351   9.611  21.095  0.00  0.00    +0.000 A 
ATOM     11  N   UNL     1       1.105   8.834  20.269  0.00  0.00    +0.000 NA
ATOM     12  H   UNL     1       2.101   9.088  17.184  0.00  0.00    +0.000 HD
ENDROOT
BRANCH   1  16
ATOM     13  C   UNL     1       4.717   5.299  17.670  0.00  0.00    +0.000 A 
ATOM     14  C   UNL     1       4.999   6.593  17.227  0.00  0.00    +0.000 A 
ATOM     15  C   UNL     1       4.049   7.615  17.359  0.00  0.00    +0.000 A 
ATOM     16  C   UNL     1       2.772   7.372  17.905  0.00  0.00    +0.000 A 
ATOM     17  C   UNL     1       2.474   6.066  18.266  0.00  0.00    +0.000 A 
ATOM     18  C   UNL     1       3.431   5.025  18.169  0.00  0.00    +0.000 A 
BRANCH  13  20
ATOM     19  C   UNL     1       6.846   4.585  16.863  0.00  0.00    +0.000 C 
ATOM     20  O   UNL     1       5.645   4.295  17.576  0.00  0.00    +0.000 OA
ENDBRANCH  13  20
BRANCH  18  21
ATOM     21  O   UNL     1       2.926   3.830  18.610  0.00  0.00    +0.000 OA
ATOM     22  C   UNL     1       2.351   2.929  17.678  0.00  0.00    +0.000 C 
ENDBRANCH  18  21
ENDBRANCH   1  16
BRANCH   4  23
ATOM     23  C   UNL     1       0.959  12.537  19.415  0.00  0.00    +0.000 C 
ATOM     24  O   UNL     1       0.584  13.520  18.792  0.00  0.00    +0.000 OA
ATOM     25  N   UNL     1       2.075  12.523  20.241  0.00  0.00    +0.000 N 
ATOM     26  H   UNL     1       2.322  11.681  20.743  0.00  0.00    +0.000 HD
BRANCH  25  27
ATOM     27  C   UNL     1       2.863  13.716  20.525  0.00  0.00    +0.000 C 
ATOM     28  C   UNL     1       2.077  14.670  21.425  0.00  0.00    +0.000 C 
ATOM     29  C   UNL     1       2.856  15.956  21.697  0.00  0.00    +0.000 C 
ATOM     30  C   UNL     1       3.279  16.654  20.398  0.00  0.00    +0.000 C 
ATOM     31  C   UNL     1       4.113  17.898  20.693  0.00  0.00    +0.000 C 
ATOM     32  C   UNL     1       4.057  15.693  19.488  0.00  0.00    +0.000 C 
ATOM     33  C   UNL     1       3.267  14.415  19.218  0.00  0.00    +0.000 C 
ENDBRANCH  25  27
ENDBRANCH   4  23
TORSDOF 5
ENDMDL
MODEL 9
REMARK VINA RESULT:      -7.2      1.548      2.010
REMARK  Name = 
REMARK  8 active torsions:
REMARK  status: ('A' for Active; 'I' for Inactive)
REMARK    1  A    between atoms: C_1  and  O_2
REMARK    2  A    between atoms: O_2  and  C_3
REMARK    3  A    between atoms: C_6  and  N_7
REMARK    4  A    between atoms: C_10  and  C_11
REMARK    5  A    between atoms: N_13  and  C_14
REMARK    6  A    between atoms: C_17  and  C_18
REMARK    7  A    between atoms: C_29  and  O_30
REMARK    8  A    between atoms: O_30  and  C_31
REMARK                            x       y       z     vdW  Elec       q    Type
REMARK                         _______ _______ _______ _____ _____    ______ ____
ROOT
ATOM      1  N   UNL     1       2.089   9.041  18.549  0.00  0.00    +0.000 N 
ATOM      2  C   UNL     1       1.385   9.902  19.419  0.00  0.00    +0.000 A 
ATOM      3  C   UNL     1       1.253  11.215  18.998  0.00  0.00    +0.000 A 
ATOM      4  C   UNL     1       0.980  12.212  19.907  0.00  0.00    +0.000 A 
ATOM      5  C   UNL     1       0.184  11.875  21.005  0.00  0.00    +0.000 A 
ATOM      6  C   UNL     1      -0.525  12.857  21.718  0.00  0.00    +0.000 A 
ATOM      7  C   UNL     1      -1.331  12.491  22.790  0.00  0.00    +0.000 A 
ATOM      8  C   UNL     1      -1.390  11.154  23.135  0.00  0.00    +0.000 A 
ATOM      9  C   UNL     1      -0.680  10.191  22.421  0.00  0.00    +0.000 A 
ATOM     10  C   UNL     1       0.133  10.511  21.310  0.00  0.00    +0.000 A 
ATOM     11  N   UNL     1       0.817   9.559  20.618  0.00  0.00    +0.000 NA
ATOM     12  H   UNL     1       2.737   9.589  17.994  0.00  0.00    +0.000 HD
ENDROOT
BRANCH   1  16
ATOM     13  C   UNL     1       3.580   5.049  18.517  0.00  0.00    +0.000 A 
ATOM     14  C   UNL     1       3.895   5.965  17.511  0.00  0.00    +0.000 A 
ATOM     15  C   UNL     1       3.415   7.280  17.568  0.00  0.00    +0.000 A 
ATOM     16  C   UNL     1       2.576   7.717  18.613  0.00  0.00    +0.000 A 
ATOM     17  C   UNL     1       2.204   6.776  19.564  0.00  0.00    +0.000 A 
ATOM     18  C   UNL     1       2.702   5.450  19.540  0.00  0.00    +0.000 A 
BRANCH  13  20
ATOM     19  C   UNL     1       3.314   2.803  17.756  0.00  0.00    +0.000 C 
ATOM     20  O   UNL     1       4.065   3.768  18.492  0.00  0.00    +0.000 OA
ENDBRANCH  13  20
BRANCH  18  21
ATOM     21  O   UNL     1       2.225   4.711  20.590  0.00  0.00    +0.000 OA
ATOM     22  C   UNL     1       1.007   3.998  20.446  0.00  0.00    +0.000 C 
ENDBRANCH  18  21
ENDBRANCH   1  16
BRANCH   4  23
ATOM     23  C   UNL     1       2.119  13.118  20.305  0.00  0.00    +0.000 C 
ATOM     24  O   UNL     1       2.534  13.136  21.455  0.00  0.00    +0.000 OA
ATOM     25  N   UNL     1       2.708  13.816  19.258  0.00  0.00    +0.000 N 
ATOM     26  H   UNL     1       2.326  13.745  18.325  0.00  0.00    +0.000 HD
BRANCH  25  27
ATOM     27  C   UNL     1       3.946  14.571  19.409  0.00  0.00    +0.000 C 
ATOM     28  C   UNL     1       3.640  16.029  19.754  0.00  0.00    +0.000 C 
ATOM     29  C   UNL     1       4.917  16.860  19.865  0.00  0.00    +0.000 C 
ATOM     30  C   UNL     1       5.772  16.766  18.594  0.00  0.00    +0.000 C 
ATOM     31  C   UNL     1       7.074  17.549  18.753  0.00  0.00    +0.000 C 
ATOM     32  C   UNL     1       6.069  15.303  18.240  0.00  0.00    +0.000 C 
ATOM     33  C   UNL     1       4.786  14.484  18.126  0.00  0.00    +0.000 C 
ENDBRANCH  25  27
ENDBRANCH   4  23
TORSDOF 5
ENDMDL
