MODEL 1
REMARK VINA RESULT:      -6.4      0.000      0.000
REMARK  Name = 
REMARK  10 active torsions:
REMARK  status: ('A' for Active; 'I' for Inactive)
REMARK    1  A    between atoms: C_1  and  C_2
REMARK    2  A    between atoms: C_2  and  N_3
REMARK    3  A    between atoms: C_4  and  C_5
REMARK    4  A    between atoms: C_6  and  C_7
REMARK    5  A    between atoms: C_9  and  C_10
REMARK    6  A    between atoms: C_15  and  S_16
REMARK    7  A    between atoms: S_16  and  N_19
REMARK    8  A    between atoms: N_19  and  C_20
REMARK    9  A    between atoms: C_20  and  C_21
REMARK   10  A    between atoms: C_26  and  C_27
REMARK                            x       y       z     vdW  Elec       q    Type
REMARK                         _______ _______ _______ _____ _____    ______ ____
ROOT
ATOM      1  N   UNL     1       2.982   3.806  18.756  0.00  0.00    +0.000 N 
ATOM      2  C   UNL     1       3.755   3.225  17.764  0.00  0.00    +0.000 A 
ATOM      3  C   UNL     1       3.884   1.740  17.593  0.00  0.00    +0.000 C 
ATOM      4  C   UNL     1       4.340   4.258  17.027  0.00  0.00    +0.000 A 
ATOM      5  C   UNL     1       3.968   5.488  17.647  0.00  0.00    +0.000 A 
ATOM      6  C   UNL     1       3.069   5.185  18.670  0.00  0.00    +0.000 A 
ATOM      7  C   UNL     1       2.329   6.074  19.619  0.00  0.00    +0.000 C 
ENDROOT
BRANCH   4   8
ATOM      8  C   UNL     1       5.232   4.012  15.833  0.00  0.00    +0.000 A 
ATOM      9  N   UNL     1       4.826   3.626  14.644  0.00  0.00    +0.000 NA
ATOM     10  C   UNL     1       5.953   3.736  13.874  0.00  0.00    +0.000 A 
ATOM     11  N   UNL     1       7.067   4.000  14.563  0.00  0.00    +0.000 NA
ATOM     12  O   UNL     1       6.599   4.178  15.863  0.00  0.00    +0.000 OA
BRANCH  10  13
ATOM     13  C   UNL     1       5.964   3.644  12.353  0.00  0.00    +0.000 C 
ATOM     14  C   UNL     1       5.830   2.305  11.661  0.00  0.00    +0.000 C 
ATOM     15  C   UNL     1       4.674   3.242  11.657  0.00  0.00    +0.000 C 
ENDBRANCH  10  13
ENDBRANCH   4   8
BRANCH   5  16
ATOM     16  S   UNL     1       4.537   7.092  17.218  0.00  0.00    +0.000 S 
ATOM     17  O   UNL     1       4.891   6.993  15.814  0.00  0.00    +0.000 OA
ATOM     18  O   UNL     1       3.514   8.014  17.629  0.00  0.00    +0.000 OA
BRANCH  16  19
ATOM     19  N   UNL     1       5.952   7.393  18.094  0.00  0.00    +0.000 NA
ATOM     20  H   UNL     1       6.110   6.675  18.802  0.00  0.00    +0.000 HD
BRANCH  19  21
ATOM     21  C   UNL     1       7.135   7.666  17.261  0.00  0.00    +0.000 C 
BRANCH  21  22
ATOM     22  C   UNL     1       7.868   8.843  17.799  0.00  0.00    +0.000 A 
ATOM     23  C   UNL     1       7.935  10.170  17.423  0.00  0.00    +0.000 A 
ATOM     24  C   UNL     1       8.883  10.781  18.279  0.00  0.00    +0.000 A 
ATOM     25  C   UNL     1       9.328   9.793  19.125  0.00  0.00    +0.000 A 
ATOM     26  O   UNL     1       8.714   8.613  18.845  0.00  0.00    +0.000 OA
ENDBRANCH  21  22
ENDBRANCH  19  21
ENDBRANCH  16  19
ENDBRANCH   5  16
BRANCH   1  28
ATOM     27  C   UNL     1       0.797   2.748  19.283  0.00  0.00    +0.000 C 
ATOM     28  C   UNL     1       2.198   3.089  19.760  0.00  0.00    +0.000 C 
ENDBRANCH   1  28
TORSDOF 7
ENDMDL
MODEL 2
REMARK VINA RESULT:      -6.4      2.772      6.399
REMARK  Name = 
REMARK  10 active torsions:
REMARK  status: ('A' for Active; 'I' for Inactive)
REMARK    1  A    between atoms: C_1  and  C_2
REMARK    2  A    between atoms: C_2  and  N_3
REMARK    3  A    between atoms: C_4  and  C_5
REMARK    4  A    between atoms: C_6  and  C_7
REMARK    5  A    between atoms: C_9  and  C_10
REMARK    6  A    between atoms: C_15  and  S_16
REMARK    7  A    between atoms: S_16  and  N_19
REMARK    8  A    between atoms: N_19  and  C_20
REMARK    9  A    between atoms: C_20  and  C_21
REMARK   10  A    between atoms: C_26  and  C_27
REMARK                            x       y       z     vdW  Elec       q    Type
REMARK                         _______ _______ _______ _____ _____    ______ ____
ROOT
ATOM      1  N   UNL     1       2.699   3.659  19.156  0.00  0.00    +0.000 N 
ATOM      2  C   UNL     1       1.974   4.754  19.593  0.00  0.00    +0.000 A 
ATOM      3  C   UNL     1       0.725   4.634  20.415  0.00  0.00    +0.000 C 
ATOM      4  C   UNL     1       2.620   5.901  19.125  0.00  0.00    +0.000 A 
ATOM      5  C   UNL     1       3.718   5.473  18.319  0.00  0.00    +0.000 A 
ATOM      6  C   UNL     1       3.788   4.083  18.414  0.00  0.00    +0.000 A 
ATOM      7  C   UNL     1       4.753   3.108  17.817  0.00  0.00    +0.000 C 
ENDROOT
BRANCH   4   8
ATOM      8  C   UNL     1       2.138   7.300  19.430  0.00  0.00    +0.000 A 
ATOM      9  N   UNL     1       1.736   8.179  18.540  0.00  0.00    +0.000 NA
ATOM     10  C   UNL     1       1.224   9.192  19.307  0.00  0.00    +0.000 A 
ATOM     11  N   UNL     1       1.450   9.061  20.617  0.00  0.00    +0.000 NA
ATOM     12  O   UNL     1       2.062   7.812  20.707  0.00  0.00    +0.000 OA
BRANCH  10  13
ATOM     13  C   UNL     1       0.400  10.350  18.757  0.00  0.00    +0.000 C 
ATOM     14  C   UNL     1      -0.667  10.109  17.712  0.00  0.00    +0.000 C 
ATOM     15  C   UNL     1      -1.077  10.402  19.113  0.00  0.00    +0.000 C 
ENDBRANCH  10  13
ENDBRANCH   4   8
BRANCH   5  16
ATOM     16  S   UNL     1       4.783   6.496  17.370  0.00  0.00    +0.000 S 
ATOM     17  O   UNL     1       4.020   7.708  17.139  0.00  0.00    +0.000 OA
ATOM     18  O   UNL     1       6.027   6.567  18.086  0.00  0.00    +0.000 OA
BRANCH  16  19
ATOM     19  N   UNL     1       5.033   5.742  15.877  0.00  0.00    +0.000 NA
ATOM     20  H   UNL     1       4.615   6.279  15.116  0.00  0.00    +0.000 HD
BRANCH  19  21
ATOM     21  C   UNL     1       6.429   5.350  15.621  0.00  0.00    +0.000 C 
BRANCH  21  22
ATOM     22  C   UNL     1       6.552   4.794  14.248  0.00  0.00    +0.000 A 
ATOM     23  C   UNL     1       5.933   3.751  13.590  0.00  0.00    +0.000 A 
ATOM     24  C   UNL     1       6.548   3.658  12.318  0.00  0.00    +0.000 A 
ATOM     25  C   UNL     1       7.496   4.653  12.278  0.00  0.00    +0.000 A 
ATOM     26  O   UNL     1       7.504   5.351  13.443  0.00  0.00    +0.000 OA
ENDBRANCH  21  22
ENDBRANCH  19  21
ENDBRANCH  16  19
ENDBRANCH   5  16
BRANCH   1  28
ATOM     27  C   UNL     1       1.213   1.754  18.572  0.00  0.00    +0.000 C 
ATOM     28  C   UNL     1       2.372   2.258  19.415  0.00  0.00    +0.000 C 
ENDBRANCH   1  28
TORSDOF 7
ENDMDL
MODEL 3
REMARK VINA RESULT:      -6.3      3.220      4.443
REMARK  Name = 
REMARK  10 active torsions:
REMARK  status: ('A' for Active; 'I' for Inactive)
REMARK    1  A    between atoms: C_1  and  C_2
REMARK    2  A    between atoms: C_2  and  N_3
REMARK    3  A    between atoms: C_4  and  C_5
REMARK    4  A    between atoms: C_6  and  C_7
REMARK    5  A    between atoms: C_9  and  C_10
REMARK    6  A    between atoms: C_15  and  S_16
REMARK    7  A    between atoms: S_16  and  N_19
REMARK    8  A    between atoms: N_19  and  C_20
REMARK    9  A    between atoms: C_20  and  C_21
REMARK   10  A    between atoms: C_26  and  C_27
REMARK                            x       y       z     vdW  Elec       q    Type
REMARK                         _______ _______ _______ _____ _____    ______ ____
ROOT
ATOM      1  N   UNL     1       2.774   4.117  20.625  0.00  0.00    +0.000 N 
ATOM      2  C   UNL     1       3.761   3.694  19.751  0.00  0.00    +0.000 A 
ATOM      3  C   UNL     1       4.534   2.423  19.944  0.00  0.00    +0.000 C 
ATOM      4  C   UNL     1       3.864   4.650  18.736  0.00  0.00    +0.000 A 
ATOM      5  C   UNL     1       2.966   5.712  19.059  0.00  0.00    +0.000 A 
ATOM      6  C   UNL     1       2.251   5.324  20.192  0.00  0.00    +0.000 A 
ATOM      7  C   UNL     1       1.160   6.017  20.946  0.00  0.00    +0.000 C 
ENDROOT
BRANCH   4   8
ATOM      8  C   UNL     1       4.820   4.516  17.574  0.00  0.00    +0.000 A 
ATOM      9  N   UNL     1       4.478   4.484  16.306  0.00  0.00    +0.000 NA
ATOM     10  C   UNL     1       5.681   4.553  15.654  0.00  0.00    +0.000 A 
ATOM     11  N   UNL     1       6.747   4.449  16.451  0.00  0.00    +0.000 NA
ATOM     12  O   UNL     1       6.186   4.417  17.726  0.00  0.00    +0.000 OA
BRANCH  10  13
ATOM     13  C   UNL     1       5.831   4.800  14.157  0.00  0.00    +0.000 C 
ATOM     14  C   UNL     1       7.177   4.655  13.483  0.00  0.00    +0.000 C 
ATOM     15  C   UNL     1       6.142   3.607  13.269  0.00  0.00    +0.000 C 
ENDBRANCH  10  13
ENDBRANCH   4   8
BRANCH   5  16
ATOM     16  S   UNL     1       2.793   7.233  18.201  0.00  0.00    +0.000 S 
ATOM     17  O   UNL     1       4.140   7.579  17.789  0.00  0.00    +0.000 OA
ATOM     18  O   UNL     1       1.777   7.029  17.206  0.00  0.00    +0.000 OA
BRANCH  16  19
ATOM     19  N   UNL     1       2.270   8.398  19.310  0.00  0.00    +0.000 NA
ATOM     20  H   UNL     1       3.057   8.820  19.804  0.00  0.00    +0.000 HD
BRANCH  19  21
ATOM     21  C   UNL     1       1.327   9.384  18.756  0.00  0.00    +0.000 C 
BRANCH  21  22
ATOM     22  C   UNL     1       0.709  10.165  19.860  0.00  0.00    +0.000 A 
ATOM     23  C   UNL     1       0.725  11.502  20.199  0.00  0.00    +0.000 A 
ATOM     24  C   UNL     1       0.017  11.616  21.419  0.00  0.00    +0.000 A 
ATOM     25  C   UNL     1      -0.392  10.344  21.743  0.00  0.00    +0.000 A 
ATOM     26  O   UNL     1       0.019   9.456  20.801  0.00  0.00    +0.000 OA
ENDBRANCH  21  22
ENDBRANCH  19  21
ENDBRANCH  16  19
ENDBRANCH   5  16
BRANCH   1  28
ATOM     27  C   UNL     1       1.227   2.420  21.574  0.00  0.00    +0.000 C 
ATOM     28  C   UNL     1       2.344   3.417  21.833  0.00  0.00    +0.000 C 
ENDBRANCH   1  28
TORSDOF 7
ENDMDL
MODEL 4
REMARK VINA RESULT:      -6.3      8.087     11.987
REMARK  Name = 
REMARK  10 active torsions:
REMARK  status: ('A' for Active; 'I' for Inactive)
REMARK    1  A    between atoms: C_1  and  C_2
REMARK    2  A    between atoms: C_2  and  N_3
REMARK    3  A    between atoms: C_4  and  C_5
REMARK    4  A    between atoms: C_6  and  C_7
REMARK    5  A    between atoms: C_9  and  C_10
REMARK    6  A    between atoms: C_15  and  S_16
REMARK    7  A    between atoms: S_16  and  N_19
REMARK    8  A    between atoms: N_19  and  C_20
REMARK    9  A    between atoms: C_20  and  C_21
REMARK   10  A    between atoms: C_26  and  C_27
REMARK                            x       y       z     vdW  Elec       q    Type
REMARK                         _______ _______ _______ _____ _____    ______ ____
ROOT
ATOM      1  N   UNL     1       0.722   9.922  20.870  0.00  0.00    +0.000 N 
ATOM      2  C   UNL     1       0.135  10.602  21.923  0.00  0.00    +0.000 A 
ATOM      3  C   UNL     1      -0.137   9.969  23.256  0.00  0.00    +0.000 C 
ATOM      4  C   UNL     1      -0.129  11.904  21.489  0.00  0.00    +0.000 A 
ATOM      5  C   UNL     1       0.240  11.977  20.112  0.00  0.00    +0.000 A 
ATOM      6  C   UNL     1       0.832  10.760  19.774  0.00  0.00    +0.000 A 
ATOM      7  C   UNL     1       1.437  10.289  18.489  0.00  0.00    +0.000 C 
ENDROOT
BRANCH   4   8
ATOM      8  C   UNL     1      -0.743  12.959  22.379  0.00  0.00    +0.000 A 
ATOM      9  N   UNL     1      -2.016  13.044  22.695  0.00  0.00    +0.000 NA
ATOM     10  C   UNL     1      -2.037  14.019  23.657  0.00  0.00    +0.000 A 
ATOM     11  N   UNL     1      -0.876  14.658  23.820  0.00  0.00    +0.000 NA
ATOM     12  O   UNL     1      -0.013  13.966  22.972  0.00  0.00    +0.000 OA
BRANCH  10  13
ATOM     13  C   UNL     1      -3.243  14.329  24.535  0.00  0.00    +0.000 C 
ATOM     14  C   UNL     1      -3.468  15.726  25.072  0.00  0.00    +0.000 C 
ATOM     15  C   UNL     1      -4.326  15.228  23.962  0.00  0.00    +0.000 C 
ENDBRANCH  10  13
ENDBRANCH   4   8
BRANCH   5  16
ATOM     16  S   UNL     1      -0.008  13.337  19.032  0.00  0.00    +0.000 S 
ATOM     17  O   UNL     1      -0.705  14.324  19.836  0.00  0.00    +0.000 OA
ATOM     18  O   UNL     1       1.277  13.657  18.473  0.00  0.00    +0.000 OA
BRANCH  16  19
ATOM     19  N   UNL     1      -1.051  12.837  17.798  0.00  0.00    +0.000 NA
ATOM     20  H   UNL     1      -0.533  12.455  17.006  0.00  0.00    +0.000 HD
BRANCH  19  21
ATOM     21  C   UNL     1      -2.155  11.974  18.248  0.00  0.00    +0.000 C 
BRANCH  21  22
ATOM     22  C   UNL     1      -2.604  11.106  17.128  0.00  0.00    +0.000 A 
ATOM     23  C   UNL     1      -2.125   9.927  16.593  0.00  0.00    +0.000 A 
ATOM     24  C   UNL     1      -2.938   9.637  15.470  0.00  0.00    +0.000 A 
ATOM     25  C   UNL     1      -3.863  10.652  15.396  0.00  0.00    +0.000 A 
ATOM     26  O   UNL     1      -3.672  11.546  16.401  0.00  0.00    +0.000 OA
ENDBRANCH  21  22
ENDBRANCH  19  21
ENDBRANCH  16  19
ENDBRANCH   5  16
BRANCH   1  28
ATOM     27  C   UNL     1       0.002   7.550  21.051  0.00  0.00    +0.000 C 
ATOM     28  C   UNL     1       1.155   8.526  20.889  0.00  0.00    +0.000 C 
ENDBRANCH   1  28
TORSDOF 7
ENDMDL
MODEL 5
REMARK VINA RESULT:      -6.3      3.105      4.079
REMARK  Name = 
REMARK  10 active torsions:
REMARK  status: ('A' for Active; 'I' for Inactive)
REMARK    1  A    between atoms: C_1  and  C_2
REMARK    2  A    between atoms: C_2  and  N_3
REMARK    3  A    between atoms: C_4  and  C_5
REMARK    4  A    between atoms: C_6  and  C_7
REMARK    5  A    between atoms: C_9  and  C_10
REMARK    6  A    between atoms: C_15  and  S_16
REMARK    7  A    between atoms: S_16  and  N_19
REMARK    8  A    between atoms: N_19  and  C_20
REMARK    9  A    between atoms: C_20  and  C_21
REMARK   10  A    between atoms: C_26  and  C_27
REMARK                            x       y       z     vdW  Elec       q    Type
REMARK                         _______ _______ _______ _____ _____    ______ ____
ROOT
ATOM      1  N   UNL     1       2.357   3.202  19.288  0.00  0.00    +0.000 N 
ATOM      2  C   UNL     1       3.344   2.822  18.394  0.00  0.00    +0.000 A 
ATOM      3  C   UNL     1       3.771   1.396  18.206  0.00  0.00    +0.000 C 
ATOM      4  C   UNL     1       3.813   3.978  17.767  0.00  0.00    +0.000 A 
ATOM      5  C   UNL     1       3.141   5.088  18.361  0.00  0.00    +0.000 A 
ATOM      6  C   UNL     1       2.193   4.576  19.247  0.00  0.00    +0.000 A 
ATOM      7  C   UNL     1       1.185   5.267  20.111  0.00  0.00    +0.000 C 
ENDROOT
BRANCH   4   8
ATOM      8  C   UNL     1       4.879   3.959  16.696  0.00  0.00    +0.000 A 
ATOM      9  N   UNL     1       4.669   3.765  15.414  0.00  0.00    +0.000 NA
ATOM     10  C   UNL     1       5.888   4.032  14.850  0.00  0.00    +0.000 A 
ATOM     11  N   UNL     1       6.877   4.206  15.732  0.00  0.00    +0.000 NA
ATOM     12  O   UNL     1       6.218   4.153  16.959  0.00  0.00    +0.000 OA
BRANCH  10  13
ATOM     13  C   UNL     1       6.123   4.195  13.354  0.00  0.00    +0.000 C 
ATOM     14  C   UNL     1       6.323   2.984  12.468  0.00  0.00    +0.000 C 
ATOM     15  C   UNL     1       5.031   3.721  12.408  0.00  0.00    +0.000 C 
ENDBRANCH  10  13
ENDBRANCH   4   8
BRANCH   5  16
ATOM     16  S   UNL     1       3.448   6.788  18.051  0.00  0.00    +0.000 S 
ATOM     17  O   UNL     1       3.951   7.307  19.309  0.00  0.00    +0.000 OA
ATOM     18  O   UNL     1       4.276   6.847  16.877  0.00  0.00    +0.000 OA
BRANCH  16  19
ATOM     19  N   UNL     1       1.964   7.534  17.732  0.00  0.00    +0.000 NA
ATOM     20  H   UNL     1       1.211   7.107  18.270  0.00  0.00    +0.000 HD
BRANCH  19  21
ATOM     21  C   UNL     1       1.992   9.003  17.824  0.00  0.00    +0.000 C 
BRANCH  21  22
ATOM     22  C   UNL     1       1.158   9.451  18.971  0.00  0.00    +0.000 A 
ATOM     23  C   UNL     1       1.014   9.005  20.269  0.00  0.00    +0.000 A 
ATOM     24  C   UNL     1      -0.009   9.791  20.852  0.00  0.00    +0.000 A 
ATOM     25  C   UNL     1      -0.418  10.670  19.877  0.00  0.00    +0.000 A 
ATOM     26  O   UNL     1       0.287  10.475  18.733  0.00  0.00    +0.000 OA
ENDBRANCH  21  22
ENDBRANCH  19  21
ENDBRANCH  16  19
ENDBRANCH   5  16
BRANCH   1  28
ATOM     27  C   UNL     1       2.030   2.395  21.616  0.00  0.00    +0.000 C 
ATOM     28  C   UNL     1       1.602   2.305  20.160  0.00  0.00    +0.000 C 
ENDBRANCH   1  28
TORSDOF 7
ENDMDL
MODEL 6
REMARK VINA RESULT:      -6.3      8.171     10.707
REMARK  Name = 
REMARK  10 active torsions:
REMARK  status: ('A' for Active; 'I' for Inactive)
REMARK    1  A    between atoms: C_1  and  C_2
REMARK    2  A    between atoms: C_2  and  N_3
REMARK    3  A    between atoms: C_4  and  C_5
REMARK    4  A    between atoms: C_6  and  C_7
REMARK    5  A    between atoms: C_9  and  C_10
REMARK    6  A    between atoms: C_15  and  S_16
REMARK    7  A    between atoms: S_16  and  N_19
REMARK    8  A    between atoms: N_19  and  C_20
REMARK    9  A    between atoms: C_20  and  C_21
REMARK   10  A    between atoms: C_26  and  C_27
REMARK                            x       y       z     vdW  Elec       q    Type
REMARK                         _______ _______ _______ _____ _____    ______ ____
ROOT
ATOM      1  N   UNL     1      -3.822  11.842  18.870  0.00  0.00    +0.000 N 
ATOM      2  C   UNL     1      -2.558  11.681  18.327  0.00  0.00    +0.000 A 
ATOM      3  C   UNL     1      -2.304  10.920  17.059  0.00  0.00    +0.000 C 
ATOM      4  C   UNL     1      -1.652  12.332  19.167  0.00  0.00    +0.000 A 
ATOM      5  C   UNL     1      -2.389  12.828  20.285  0.00  0.00    +0.000 A 
ATOM      6  C   UNL     1      -3.739  12.576  20.041  0.00  0.00    +0.000 A 
ATOM      7  C   UNL     1      -4.958  12.907  20.842  0.00  0.00    +0.000 C 
ENDROOT
BRANCH   4   8
ATOM      8  C   UNL     1      -0.170  12.402  18.883  0.00  0.00    +0.000 A 
ATOM      9  N   UNL     1       0.460  13.434  18.368  0.00  0.00    +0.000 NA
ATOM     10  C   UNL     1       1.780  13.090  18.490  0.00  0.00    +0.000 A 
ATOM     11  N   UNL     1       1.988  11.833  18.891  0.00  0.00    +0.000 NA
ATOM     12  O   UNL     1       0.700  11.367  19.147  0.00  0.00    +0.000 OA
BRANCH  10  13
ATOM     13  C   UNL     1       2.939  14.054  18.268  0.00  0.00    +0.000 C 
ATOM     14  C   UNL     1       2.702  15.547  18.217  0.00  0.00    +0.000 C 
ATOM     15  C   UNL     1       3.344  14.955  19.423  0.00  0.00    +0.000 C 
ENDBRANCH  10  13
ENDBRANCH   4   8
BRANCH   5  16
ATOM     16  S   UNL     1      -1.728  13.605  21.713  0.00  0.00    +0.000 S 
ATOM     17  O   UNL     1      -1.048  14.784  21.210  0.00  0.00    +0.000 OA
ATOM     18  O   UNL     1      -2.818  13.756  22.639  0.00  0.00    +0.000 OA
BRANCH  16  19
ATOM     19  N   UNL     1      -0.565  12.572  22.376  0.00  0.00    +0.000 NA
ATOM     20  H   UNL     1       0.007  13.054  23.070  0.00  0.00    +0.000 HD
BRANCH  19  21
ATOM     21  C   UNL     1      -1.096  11.282  22.847  0.00  0.00    +0.000 C 
BRANCH  21  22
ATOM     22  C   UNL     1      -0.269  10.170  22.308  0.00  0.00    +0.000 A 
ATOM     23  C   UNL     1      -0.524   9.142  21.423  0.00  0.00    +0.000 A 
ATOM     24  C   UNL     1       0.648   8.348  21.383  0.00  0.00    +0.000 A 
ATOM     25  C   UNL     1       1.544   8.945  22.238  0.00  0.00    +0.000 A 
ATOM     26  O   UNL     1       0.999  10.055  22.802  0.00  0.00    +0.000 OA
ENDBRANCH  21  22
ENDBRANCH  19  21
ENDBRANCH  16  19
ENDBRANCH   5  16
BRANCH   1  28
ATOM     27  C   UNL     1      -5.676  12.221  17.259  0.00  0.00    +0.000 C 
ATOM     28  C   UNL     1      -5.066  11.313  18.313  0.00  0.00    +0.000 C 
ENDBRANCH   1  28
TORSDOF 7
ENDMDL
MODEL 7
REMARK VINA RESULT:      -6.2      9.481     13.464
REMARK  Name = 
REMARK  10 active torsions:
REMARK  status: ('A' for Active; 'I' for Inactive)
REMARK    1  A    between atoms: C_1  and  C_2
REMARK    2  A    between atoms: C_2  and  N_3
REMARK    3  A    between atoms: C_4  and  C_5
REMARK    4  A    between atoms: C_6  and  C_7
REMARK    5  A    between atoms: C_9  and  C_10
REMARK    6  A    between atoms: C_15  and  S_16
REMARK    7  A    between atoms: S_16  and  N_19
REMARK    8  A    between atoms: N_19  and  C_20
REMARK    9  A    between atoms: C_20  and  C_21
REMARK   10  A    between atoms: C_26  and  C_27
REMARK                            x       y       z     vdW  Elec       q    Type
REMARK                         _______ _______ _______ _____ _____    ______ ____
ROOT
ATOM      1  N   UNL     1      -0.314  10.935  20.824  0.00  0.00    +0.000 N 
ATOM      2  C   UNL     1      -1.261  11.660  21.528  0.00  0.00    +0.000 A 
ATOM      3  C   UNL     1      -1.099  12.029  22.974  0.00  0.00    +0.000 C 
ATOM      4  C   UNL     1      -2.315  11.939  20.655  0.00  0.00    +0.000 A 
ATOM      5  C   UNL     1      -2.023  11.294  19.416  0.00  0.00    +0.000 A 
ATOM      6  C   UNL     1      -0.747  10.742  19.523  0.00  0.00    +0.000 A 
ATOM      7  C   UNL     1       0.083   9.990  18.529  0.00  0.00    +0.000 C 
ENDROOT
BRANCH   4   8
ATOM      8  C   UNL     1      -3.526  12.747  21.058  0.00  0.00    +0.000 A 
ATOM      9  N   UNL     1      -4.344  12.454  22.044  0.00  0.00    +0.000 NA
ATOM     10  C   UNL     1      -5.141  13.564  22.133  0.00  0.00    +0.000 A 
ATOM     11  N   UNL     1      -4.971  14.445  21.144  0.00  0.00    +0.000 NA
ATOM     12  O   UNL     1      -3.907  13.908  20.422  0.00  0.00    +0.000 OA
BRANCH  10  13
ATOM     13  C   UNL     1      -6.100  13.840  23.284  0.00  0.00    +0.000 C 
ATOM     14  C   UNL     1      -7.230  14.833  23.126  0.00  0.00    +0.000 C 
ATOM     15  C   UNL     1      -7.541  13.377  23.135  0.00  0.00    +0.000 C 
ENDBRANCH  10  13
ENDBRANCH   4   8
BRANCH   5  16
ATOM     16  S   UNL     1      -3.072  11.197  18.012  0.00  0.00    +0.000 S 
ATOM     17  O   UNL     1      -2.330  11.853  16.951  0.00  0.00    +0.000 OA
ATOM     18  O   UNL     1      -3.441   9.816  17.870  0.00  0.00    +0.000 OA
BRANCH  16  19
ATOM     19  N   UNL     1      -4.453  12.120  18.332  0.00  0.00    +0.000 NA
ATOM     20  H   UNL     1      -4.316  13.096  18.068  0.00  0.00    +0.000 HD
BRANCH  19  21
ATOM     21  C   UNL     1      -5.703  11.541  17.813  0.00  0.00    +0.000 C 
BRANCH  21  22
ATOM     22  C   UNL     1      -6.451  10.886  18.918  0.00  0.00    +0.000 A 
ATOM     23  C   UNL     1      -6.736   9.569  19.218  0.00  0.00    +0.000 A 
ATOM     24  C   UNL     1      -7.571   9.590  20.362  0.00  0.00    +0.000 A 
ATOM     25  C   UNL     1      -7.736  10.915  20.690  0.00  0.00    +0.000 A 
ATOM     26  O   UNL     1      -7.056  11.710  19.822  0.00  0.00    +0.000 OA
ENDBRANCH  21  22
ENDBRANCH  19  21
ENDBRANCH  16  19
ENDBRANCH   5  16
BRANCH   1  28
ATOM     27  C   UNL     1       0.788   9.132  22.130  0.00  0.00    +0.000 C 
ATOM     28  C   UNL     1       0.949  10.431  21.359  0.00  0.00    +0.000 C 
ENDBRANCH   1  28
TORSDOF 7
ENDMDL
MODEL 8
REMARK VINA RESULT:      -6.2      8.306     10.812
REMARK  Name = 
REMARK  10 active torsions:
REMARK  status: ('A' for Active; 'I' for Inactive)
REMARK    1  A    between atoms: C_1  and  C_2
REMARK    2  A    between atoms: C_2  and  N_3
REMARK    3  A    between atoms: C_4  and  C_5
REMARK    4  A    between atoms: C_6  and  C_7
REMARK    5  A    between atoms: C_9  and  C_10
REMARK    6  A    between atoms: C_15  and  S_16
REMARK    7  A    between atoms: S_16  and  N_19
REMARK    8  A    between atoms: N_19  and  C_20
REMARK    9  A    between atoms: C_20  and  C_21
REMARK   10  A    between atoms: C_26  and  C_27
REMARK                            x       y       z     vdW  Elec       q    Type
REMARK                         _______ _______ _______ _____ _____    ______ ____
ROOT
ATOM      1  N   UNL     1      -4.786  13.041  22.044  0.00  0.00    +0.000 N 
ATOM      2  C   UNL     1      -4.522  12.792  20.708  0.00  0.00    +0.000 A 
ATOM      3  C   UNL     1      -5.548  12.964  19.626  0.00  0.00    +0.000 C 
ATOM      4  C   UNL     1      -3.193  12.374  20.611  0.00  0.00    +0.000 A 
ATOM      5  C   UNL     1      -2.673  12.296  21.939  0.00  0.00    +0.000 A 
ATOM      6  C   UNL     1      -3.655  12.784  22.801  0.00  0.00    +0.000 A 
ATOM      7  C   UNL     1      -3.650  12.972  24.285  0.00  0.00    +0.000 C 
ENDROOT
BRANCH   4   8
ATOM      8  C   UNL     1      -2.529  12.041  19.296  0.00  0.00    +0.000 A 
ATOM      9  N   UNL     1      -2.769  10.972  18.570  0.00  0.00    +0.000 NA
ATOM     10  C   UNL     1      -2.086  11.220  17.409  0.00  0.00    +0.000 A 
ATOM     11  N   UNL     1      -1.300  12.299  17.451  0.00  0.00    +0.000 NA
ATOM     12  O   UNL     1      -1.582  12.846  18.701  0.00  0.00    +0.000 OA
BRANCH  10  13
ATOM     13  C   UNL     1      -2.240  10.400  16.134  0.00  0.00    +0.000 C 
ATOM     14  C   UNL     1      -3.493   9.590  15.884  0.00  0.00    +0.000 C 
ATOM     15  C   UNL     1      -3.280  10.851  15.121  0.00  0.00    +0.000 C 
ENDBRANCH  10  13
ENDBRANCH   4   8
BRANCH   5  16
ATOM     16  S   UNL     1      -1.095  11.691  22.412  0.00  0.00    +0.000 S 
ATOM     17  O   UNL     1      -0.254  12.872  22.485  0.00  0.00    +0.000 OA
ATOM     18  O   UNL     1      -1.299  10.891  23.588  0.00  0.00    +0.000 OA
BRANCH  16  19
ATOM     19  N   UNL     1      -0.517  10.713  21.159  0.00  0.00    +0.000 NA
ATOM     20  H   UNL     1      -1.220  10.589  20.430  0.00  0.00    +0.000 HD
BRANCH  19  21
ATOM     21  C   UNL     1       0.803  11.110  20.640  0.00  0.00    +0.000 C 
BRANCH  21  22
ATOM     22  C   UNL     1       1.263  10.121  19.629  0.00  0.00    +0.000 A 
ATOM     23  C   UNL     1       1.452  10.181  18.263  0.00  0.00    +0.000 A 
ATOM     24  C   UNL     1       1.820   8.877  17.851  0.00  0.00    +0.000 A 
ATOM     25  C   UNL     1       1.838   8.108  18.991  0.00  0.00    +0.000 A 
ATOM     26  O   UNL     1       1.506   8.855  20.076  0.00  0.00    +0.000 OA
ENDBRANCH  21  22
ENDBRANCH  19  21
ENDBRANCH  16  19
ENDBRANCH   5  16
BRANCH   1  28
ATOM     27  C   UNL     1      -6.194  15.007  22.618  0.00  0.00    +0.000 C 
ATOM     28  C   UNL     1      -6.062  13.493  22.595  0.00  0.00    +0.000 C 
ENDBRANCH   1  28
TORSDOF 7
ENDMDL
MODEL 9
REMARK VINA RESULT:      -6.2      2.987      6.482
REMARK  Name = 
REMARK  10 active torsions:
REMARK  status: ('A' for Active; 'I' for Inactive)
REMARK    1  A    between atoms: C_1  and  C_2
REMARK    2  A    between atoms: C_2  and  N_3
REMARK    3  A    between atoms: C_4  and  C_5
REMARK    4  A    between atoms: C_6  and  C_7
REMARK    5  A    between atoms: C_9  and  C_10
REMARK    6  A    between atoms: C_15  and  S_16
REMARK    7  A    between atoms: S_16  and  N_19
REMARK    8  A    between atoms: N_19  and  C_20
REMARK    9  A    between atoms: C_20  and  C_21
REMARK   10  A    between atoms: C_26  and  C_27
REMARK                            x       y       z     vdW  Elec       q    Type
REMARK                         _______ _______ _______ _____ _____    ______ ____
ROOT
ATOM      1  N   UNL     1       3.271   4.180  19.791  0.00  0.00    +0.000 N 
ATOM      2  C   UNL     1       2.350   5.212  19.731  0.00  0.00    +0.000 A 
ATOM      3  C   UNL     1       1.001   5.143  20.384  0.00  0.00    +0.000 C 
ATOM      4  C   UNL     1       2.920   6.243  18.980  0.00  0.00    +0.000 A 
ATOM      5  C   UNL     1       4.187   5.779  18.512  0.00  0.00    +0.000 A 
ATOM      6  C   UNL     1       4.412   4.529  19.088  0.00  0.00    +0.000 A 
ATOM      7  C   UNL     1       5.580   3.600  18.987  0.00  0.00    +0.000 C 
ENDROOT
BRANCH   4   8
ATOM      8  C   UNL     1       2.221   7.557  18.723  0.00  0.00    +0.000 A 
ATOM      9  N   UNL     1       1.785   8.383  19.648  0.00  0.00    +0.000 NA
ATOM     10  C   UNL     1       1.419   9.492  18.934  0.00  0.00    +0.000 A 
ATOM     11  N   UNL     1       1.442   9.327  17.608  0.00  0.00    +0.000 NA
ATOM     12  O   UNL     1       1.967   8.045  17.460  0.00  0.00    +0.000 OA
BRANCH  10  13
ATOM     13  C   UNL     1       1.078  10.839  19.559  0.00  0.00    +0.000 C 
ATOM     14  C   UNL     1      -0.333  11.141  20.016  0.00  0.00    +0.000 C 
ATOM     15  C   UNL     1       0.716  10.865  21.036  0.00  0.00    +0.000 C 
ENDBRANCH  10  13
ENDBRANCH   4   8
BRANCH   5  16
ATOM     16  S   UNL     1       5.265   6.614  17.408  0.00  0.00    +0.000 S 
ATOM     17  O   UNL     1       4.667   7.924  17.229  0.00  0.00    +0.000 OA
ATOM     18  O   UNL     1       6.586   6.507  17.966  0.00  0.00    +0.000 OA
BRANCH  16  19
ATOM     19  N   UNL     1       5.215   5.808  15.922  0.00  0.00    +0.000 NA
ATOM     20  H   UNL     1       5.193   6.467  15.143  0.00  0.00    +0.000 HD
BRANCH  19  21
ATOM     21  C   UNL     1       6.228   4.751  15.770  0.00  0.00    +0.000 C 
BRANCH  21  22
ATOM     22  C   UNL     1       6.631   4.643  14.343  0.00  0.00    +0.000 A 
ATOM     23  C   UNL     1       6.223   3.833  13.302  0.00  0.00    +0.000 A 
ATOM     24  C   UNL     1       7.053   4.148  12.199  0.00  0.00    +0.000 A 
ATOM     25  C   UNL     1       7.908   5.133  12.634  0.00  0.00    +0.000 A 
ATOM     26  O   UNL     1       7.658   5.444  13.933  0.00  0.00    +0.000 OA
ENDBRANCH  21  22
ENDBRANCH  19  21
ENDBRANCH  16  19
ENDBRANCH   5  16
BRANCH   1  28
ATOM     27  C   UNL     1       2.315   1.891  19.638  0.00  0.00    +0.000 C 
ATOM     28  C   UNL     1       3.081   2.902  20.475  0.00  0.00    +0.000 C 
ENDBRANCH   1  28
TORSDOF 7
ENDMDL
