MODEL 1
REMARK VINA RESULT:      -7.1      0.000      0.000
REMARK  Name = 
REMARK  9 active torsions:
REMARK  status: ('A' for Active; 'I' for Inactive)
REMARK    1  A    between atoms: C_1  and  C_2
REMARK    2  A    between atoms: C_5  and  C_6
REMARK    3  A    between atoms: C_6  and  N_7
REMARK    4  A    between atoms: C_8  and  C_10
REMARK    5  A    between atoms: C_16  and  O_18
REMARK    6  A    between atoms: O_18  and  C_19
REMARK    7  A    between atoms: C_19  and  C_20
REMARK    8  A    between atoms: C_19  and  C_21
REMARK    9  A    between atoms: C_19  and  C_22
REMARK                            x       y       z     vdW  Elec       q    Type
REMARK                         _______ _______ _______ _____ _____    ______ ____
ROOT
ATOM      1  C   UNL     1       2.267   4.452  19.112  0.00  0.00    +0.000 C 
ATOM      2  C   UNL     1       1.576   3.140  19.557  0.00  0.00    +0.000 C 
ATOM      3  C   UNL     1       1.567   2.078  18.464  0.00  0.00    +0.000 C 
ATOM      4  C   UNL     1       2.969   1.841  17.917  0.00  0.00    +0.000 C 
ATOM      5  C   UNL     1       3.643   3.150  17.528  0.00  0.00    +0.000 C 
ATOM      6  N   UNL     1       3.626   4.115  18.634  0.00  0.00    +0.000 N 
ATOM      7  C   UNL     1       4.642   5.062  18.727  0.00  0.00    +0.000 C 
ATOM      8  O   UNL     1       4.550   6.065  19.417  0.00  0.00    +0.000 OA
ENDROOT
BRANCH   1  10
ATOM      9  N   UNL     1       1.779   6.780  19.902  0.00  0.00    +0.000 N 
ATOM     10  C   UNL     1       1.995   5.466  20.262  0.00  0.00    +0.000 C 
ATOM     11  O   UNL     1       2.188   5.137  21.437  0.00  0.00    +0.000 OA
ATOM     12  H   UNL     1       1.336   6.935  19.005  0.00  0.00    +0.000 HD
BRANCH   9  13
ATOM     13  C   UNL     1       1.638   7.806  20.918  0.00  0.00    +0.000 C 
BRANCH  13  18
ATOM     14  C   UNL     1      -0.878  12.502  18.701  0.00  0.00    +0.000 C 
ATOM     15  C   UNL     1      -0.249  11.289  19.318  0.00  0.00    +0.000 A 
ATOM     16  C   UNL     1      -0.517  10.935  20.635  0.00  0.00    +0.000 A 
ATOM     17  C   UNL     1       0.104   9.806  21.172  0.00  0.00    +0.000 A 
ATOM     18  C   UNL     1       0.979   9.050  20.388  0.00  0.00    +0.000 A 
ATOM     19  C   UNL     1       1.166   9.469  19.076  0.00  0.00    +0.000 A 
ATOM     20  N   UNL     1       0.582  10.564  18.531  0.00  0.00    +0.000 NA
ENDBRANCH  13  18
ENDBRANCH   9  13
ENDBRANCH   1  10
BRANCH   7  21
ATOM     21  O   UNL     1       5.762   4.708  18.034  0.00  0.00    +0.000 OA
BRANCH  21  22
ATOM     22  C   UNL     1       6.305   5.566  16.992  0.00  0.00    +0.000 C 
ATOM     23  C   UNL     1       7.323   6.559  17.566  0.00  0.00    +0.000 C 
ATOM     24  C   UNL     1       7.051   4.631  16.019  0.00  0.00    +0.000 C 
ATOM     25  C   UNL     1       5.186   6.265  16.215  0.00  0.00    +0.000 C 
ENDBRANCH  21  22
ENDBRANCH   7  21
TORSDOF 5
ENDMDL
MODEL 2
REMARK VINA RESULT:      -7.0      0.676      1.339
REMARK  Name = 
REMARK  9 active torsions:
REMARK  status: ('A' for Active; 'I' for Inactive)
REMARK    1  A    between atoms: C_1  and  C_2
REMARK    2  A    between atoms: C_5  and  C_6
REMARK    3  A    between atoms: C_6  and  N_7
REMARK    4  A    between atoms: C_8  and  C_10
REMARK    5  A    between atoms: C_16  and  O_18
REMARK    6  A    between atoms: O_18  and  C_19
REMARK    7  A    between atoms: C_19  and  C_20
REMARK    8  A    between atoms: C_19  and  C_21
REMARK    9  A    between atoms: C_19  and  C_22
REMARK                            x       y       z     vdW  Elec       q    Type
REMARK                         _______ _______ _______ _____ _____    ______ ____
ROOT
ATOM      1  C   UNL     1       2.215   4.551  19.084  0.00  0.00    +0.000 C 
ATOM      2  C   UNL     1       1.470   3.270  19.529  0.00  0.00    +0.000 C 
ATOM      3  C   UNL     1       1.402   2.216  18.430  0.00  0.00    +0.000 C 
ATOM      4  C   UNL     1       2.786   1.919  17.868  0.00  0.00    +0.000 C 
ATOM      5  C   UNL     1       3.515   3.197  17.479  0.00  0.00    +0.000 C 
ATOM      6  N   UNL     1       3.553   4.156  18.590  0.00  0.00    +0.000 N 
ATOM      7  C   UNL     1       4.612   5.055  18.678  0.00  0.00    +0.000 C 
ATOM      8  O   UNL     1       4.572   6.058  19.374  0.00  0.00    +0.000 OA
ENDROOT
BRANCH   1  10
ATOM      9  N   UNL     1       1.829   6.893  19.890  0.00  0.00    +0.000 N 
ATOM     10  C   UNL     1       2.002   5.571  20.242  0.00  0.00    +0.000 C 
ATOM     11  O   UNL     1       2.201   5.229  21.412  0.00  0.00    +0.000 OA
ATOM     12  H   UNL     1       1.378   7.068  19.001  0.00  0.00    +0.000 HD
BRANCH   9  13
ATOM     13  C   UNL     1       1.745   7.919  20.913  0.00  0.00    +0.000 C 
BRANCH  13  18
ATOM     14  C   UNL     1      -1.537  12.441  19.468  0.00  0.00    +0.000 C 
ATOM     15  C   UNL     1      -0.666  11.266  19.799  0.00  0.00    +0.000 A 
ATOM     16  C   UNL     1       0.128  10.668  18.827  0.00  0.00    +0.000 A 
ATOM     17  C   UNL     1       0.910   9.566  19.177  0.00  0.00    +0.000 A 
ATOM     18  C   UNL     1       0.888   9.081  20.488  0.00  0.00    +0.000 A 
ATOM     19  C   UNL     1       0.081   9.758  21.393  0.00  0.00    +0.000 A 
ATOM     20  N   UNL     1      -0.694  10.826  21.080  0.00  0.00    +0.000 NA
ENDBRANCH  13  18
ENDBRANCH   9  13
ENDBRANCH   1  10
BRANCH   7  21
ATOM     21  O   UNL     1       5.708   4.654  17.971  0.00  0.00    +0.000 OA
BRANCH  21  22
ATOM     22  C   UNL     1       6.229   5.453  16.873  0.00  0.00    +0.000 C 
ATOM     23  C   UNL     1       5.129   6.316  16.243  0.00  0.00    +0.000 C 
ATOM     24  C   UNL     1       7.276   6.397  17.495  0.00  0.00    +0.000 C 
ATOM     25  C   UNL     1       6.938   4.573  15.840  0.00  0.00    +0.000 C 
ENDBRANCH  21  22
ENDBRANCH   7  21
TORSDOF 5
ENDMDL
MODEL 3
REMARK VINA RESULT:      -6.8      0.646      1.346
REMARK  Name = 
REMARK  9 active torsions:
REMARK  status: ('A' for Active; 'I' for Inactive)
REMARK    1  A    between atoms: C_1  and  C_2
REMARK    2  A    between atoms: C_5  and  C_6
REMARK    3  A    between atoms: C_6  and  N_7
REMARK    4  A    between atoms: C_8  and  C_10
REMARK    5  A    between atoms: C_16  and  O_18
REMARK    6  A    between atoms: O_18  and  C_19
REMARK    7  A    between atoms: C_19  and  C_20
REMARK    8  A    between atoms: C_19  and  C_21
REMARK    9  A    between atoms: C_19  and  C_22
REMARK                            x       y       z     vdW  Elec       q    Type
REMARK                         _______ _______ _______ _____ _____    ______ ____
ROOT
ATOM      1  C   UNL     1       2.249   4.459  19.124  0.00  0.00    +0.000 C 
ATOM      2  C   UNL     1       1.514   3.165  19.550  0.00  0.00    +0.000 C 
ATOM      3  C   UNL     1       1.483   2.114  18.448  0.00  0.00    +0.000 C 
ATOM      4  C   UNL     1       2.883   1.839  17.912  0.00  0.00    +0.000 C 
ATOM      5  C   UNL     1       3.600   3.129  17.541  0.00  0.00    +0.000 C 
ATOM      6  N   UNL     1       3.602   4.085  18.655  0.00  0.00    +0.000 N 
ATOM      7  C   UNL     1       4.646   4.999  18.767  0.00  0.00    +0.000 C 
ATOM      8  O   UNL     1       4.578   5.999  19.464  0.00  0.00    +0.000 OA
ENDROOT
BRANCH   1  10
ATOM      9  N   UNL     1       1.776   6.786  19.926  0.00  0.00    +0.000 N 
ATOM     10  C   UNL     1       1.998   5.472  20.280  0.00  0.00    +0.000 C 
ATOM     11  O   UNL     1       2.210   5.140  21.450  0.00  0.00    +0.000 OA
ATOM     12  H   UNL     1       1.318   6.943  19.037  0.00  0.00    +0.000 HD
BRANCH   9  13
ATOM     13  C   UNL     1       1.653   7.810  20.947  0.00  0.00    +0.000 C 
BRANCH  13  18
ATOM     14  C   UNL     1      -0.188  12.912  18.976  0.00  0.00    +0.000 C 
ATOM     15  C   UNL     1       0.302  11.574  19.443  0.00  0.00    +0.000 A 
ATOM     16  C   UNL     1       0.756  10.622  18.537  0.00  0.00    +0.000 A 
ATOM     17  C   UNL     1       1.188   9.385  19.017  0.00  0.00    +0.000 A 
ATOM     18  C   UNL     1       1.161   9.118  20.388  0.00  0.00    +0.000 A 
ATOM     19  C   UNL     1       0.712  10.140  21.216  0.00  0.00    +0.000 A 
ATOM     20  N   UNL     1       0.281  11.348  20.778  0.00  0.00    +0.000 NA
ENDBRANCH  13  18
ENDBRANCH   9  13
ENDBRANCH   1  10
BRANCH   7  21
ATOM     21  O   UNL     1       5.762   4.617  18.081  0.00  0.00    +0.000 OA
BRANCH  21  22
ATOM     22  C   UNL     1       6.345   5.469  17.057  0.00  0.00    +0.000 C 
ATOM     23  C   UNL     1       7.030   4.637  15.966  0.00  0.00    +0.000 C 
ATOM     24  C   UNL     1       5.166   6.222  16.410  0.00  0.00    +0.000 C 
ATOM     25  C   UNL     1       7.288   6.505  17.674  0.00  0.00    +0.000 C 
ENDBRANCH  21  22
ENDBRANCH   7  21
TORSDOF 5
ENDMDL
MODEL 4
REMARK VINA RESULT:      -6.7      1.914      2.474
REMARK  Name = 
REMARK  9 active torsions:
REMARK  status: ('A' for Active; 'I' for Inactive)
REMARK    1  A    between atoms: C_1  and  C_2
REMARK    2  A    between atoms: C_5  and  C_6
REMARK    3  A    between atoms: C_6  and  N_7
REMARK    4  A    between atoms: C_8  and  C_10
REMARK    5  A    between atoms: C_16  and  O_18
REMARK    6  A    between atoms: O_18  and  C_19
REMARK    7  A    between atoms: C_19  and  C_20
REMARK    8  A    between atoms: C_19  and  C_21
REMARK    9  A    between atoms: C_19  and  C_22
REMARK                            x       y       z     vdW  Elec       q    Type
REMARK                         _______ _______ _______ _____ _____    ______ ____
ROOT
ATOM      1  C   UNL     1       2.263   5.948  18.059  0.00  0.00    +0.000 C 
ATOM      2  C   UNL     1       1.607   4.897  18.987  0.00  0.00    +0.000 C 
ATOM      3  C   UNL     1       1.649   3.489  18.406  0.00  0.00    +0.000 C 
ATOM      4  C   UNL     1       3.066   3.104  18.000  0.00  0.00    +0.000 C 
ATOM      5  C   UNL     1       3.704   4.174  17.124  0.00  0.00    +0.000 C 
ATOM      6  N   UNL     1       3.639   5.498  17.756  0.00  0.00    +0.000 N 
ATOM      7  C   UNL     1       4.623   6.439  17.467  0.00  0.00    +0.000 C 
ATOM      8  O   UNL     1       4.488   7.630  17.700  0.00  0.00    +0.000 OA
ENDROOT
BRANCH   1  10
ATOM      9  N   UNL     1       1.682   8.378  17.858  0.00  0.00    +0.000 N 
ATOM     10  C   UNL     1       1.941   7.326  18.711  0.00  0.00    +0.000 C 
ATOM     11  O   UNL     1       2.130   7.498  19.918  0.00  0.00    +0.000 OA
ATOM     12  H   UNL     1       1.245   8.146  16.974  0.00  0.00    +0.000 HD
BRANCH   9  13
ATOM     13  C   UNL     1       1.493   9.718  18.382  0.00  0.00    +0.000 C 
BRANCH  13  18
ATOM     14  C   UNL     1      -3.980  11.547  18.299  0.00  0.00    +0.000 C 
ATOM     15  C   UNL     1      -2.568  11.042  18.284  0.00  0.00    +0.000 A 
ATOM     16  C   UNL     1      -2.182  10.021  17.423  0.00  0.00    +0.000 A 
ATOM     17  C   UNL     1      -0.861   9.573  17.455  0.00  0.00    +0.000 A 
ATOM     18  C   UNL     1       0.051  10.148  18.344  0.00  0.00    +0.000 A 
ATOM     19  C   UNL     1      -0.422  11.178  19.149  0.00  0.00    +0.000 A 
ATOM     20  N   UNL     1      -1.700  11.629  19.143  0.00  0.00    +0.000 NA
ENDBRANCH  13  18
ENDBRANCH   9  13
ENDBRANCH   1  10
BRANCH   7  21
ATOM     21  O   UNL     1       5.765   5.879  16.972  0.00  0.00    +0.000 OA
BRANCH  21  22
ATOM     22  C   UNL     1       6.913   5.631  17.829  0.00  0.00    +0.000 C 
ATOM     23  C   UNL     1       7.757   4.464  17.303  0.00  0.00    +0.000 C 
ATOM     24  C   UNL     1       7.775   6.907  17.762  0.00  0.00    +0.000 C 
ATOM     25  C   UNL     1       6.482   5.426  19.283  0.00  0.00    +0.000 C 
ENDBRANCH  21  22
ENDBRANCH   7  21
TORSDOF 5
ENDMDL
MODEL 5
REMARK VINA RESULT:      -6.7      1.839      2.392
REMARK  Name = 
REMARK  9 active torsions:
REMARK  status: ('A' for Active; 'I' for Inactive)
REMARK    1  A    between atoms: C_1  and  C_2
REMARK    2  A    between atoms: C_5  and  C_6
REMARK    3  A    between atoms: C_6  and  N_7
REMARK    4  A    between atoms: C_8  and  C_10
REMARK    5  A    between atoms: C_16  and  O_18
REMARK    6  A    between atoms: O_18  and  C_19
REMARK    7  A    between atoms: C_19  and  C_20
REMARK    8  A    between atoms: C_19  and  C_21
REMARK    9  A    between atoms: C_19  and  C_22
REMARK                            x       y       z     vdW  Elec       q    Type
REMARK                         _______ _______ _______ _____ _____    ______ ____
ROOT
ATOM      1  C   UNL     1       2.161   6.003  19.069  0.00  0.00    +0.000 C 
ATOM      2  C   UNL     1       1.766   5.271  20.375  0.00  0.00    +0.000 C 
ATOM      3  C   UNL     1       1.751   3.756  20.220  0.00  0.00    +0.000 C 
ATOM      4  C   UNL     1       3.068   3.250  19.644  0.00  0.00    +0.000 C 
ATOM      5  C   UNL     1       3.456   4.015  18.387  0.00  0.00    +0.000 C 
ATOM      6  N   UNL     1       3.463   5.464  18.617  0.00  0.00    +0.000 N 
ATOM      7  C   UNL     1       4.318   6.270  17.870  0.00  0.00    +0.000 C 
ATOM      8  O   UNL     1       4.179   7.479  17.781  0.00  0.00    +0.000 OA
ENDROOT
BRANCH   1  10
ATOM      9  N   UNL     1       1.565   8.310  18.289  0.00  0.00    +0.000 N 
ATOM     10  C   UNL     1       1.918   7.514  19.359  0.00  0.00    +0.000 C 
ATOM     11  O   UNL     1       2.245   7.996  20.447  0.00  0.00    +0.000 OA
ATOM     12  H   UNL     1       1.029   7.865  17.554  0.00  0.00    +0.000 HD
BRANCH   9  13
ATOM     13  C   UNL     1       1.439   9.746  18.452  0.00  0.00    +0.000 C 
BRANCH  13  18
ATOM     14  C   UNL     1      -4.003  11.664  18.426  0.00  0.00    +0.000 C 
ATOM     15  C   UNL     1      -2.600  11.138  18.395  0.00  0.00    +0.000 A 
ATOM     16  C   UNL     1      -2.224  10.153  17.488  0.00  0.00    +0.000 A 
ATOM     17  C   UNL     1      -0.911   9.683  17.506  0.00  0.00    +0.000 A 
ATOM     18  C   UNL     1       0.005  10.201  18.426  0.00  0.00    +0.000 A 
ATOM     19  C   UNL     1      -0.457  11.198  19.277  0.00  0.00    +0.000 A 
ATOM     20  N   UNL     1      -1.728  11.669  19.286  0.00  0.00    +0.000 NA
ENDBRANCH  13  18
ENDBRANCH   9  13
ENDBRANCH   1  10
BRANCH   7  21
ATOM     21  O   UNL     1       5.356   5.574  17.321  0.00  0.00    +0.000 OA
BRANCH  21  22
ATOM     22  C   UNL     1       6.705   5.693  17.850  0.00  0.00    +0.000 C 
ATOM     23  C   UNL     1       6.723   5.521  19.373  0.00  0.00    +0.000 C 
ATOM     24  C   UNL     1       7.508   4.532  17.231  0.00  0.00    +0.000 C 
ATOM     25  C   UNL     1       7.356   7.007  17.408  0.00  0.00    +0.000 C 
ENDBRANCH  21  22
ENDBRANCH   7  21
TORSDOF 5
ENDMDL
MODEL 6
REMARK VINA RESULT:      -6.6      1.817      4.136
REMARK  Name = 
REMARK  9 active torsions:
REMARK  status: ('A' for Active; 'I' for Inactive)
REMARK    1  A    between atoms: C_1  and  C_2
REMARK    2  A    between atoms: C_5  and  C_6
REMARK    3  A    between atoms: C_6  and  N_7
REMARK    4  A    between atoms: C_8  and  C_10
REMARK    5  A    between atoms: C_16  and  O_18
REMARK    6  A    between atoms: O_18  and  C_19
REMARK    7  A    between atoms: C_19  and  C_20
REMARK    8  A    between atoms: C_19  and  C_21
REMARK    9  A    between atoms: C_19  and  C_22
REMARK                            x       y       z     vdW  Elec       q    Type
REMARK                         _______ _______ _______ _____ _____    ______ ____
ROOT
ATOM      1  C   UNL     1       4.796   6.532  17.890  0.00  0.00    +0.000 C 
ATOM      2  C   UNL     1       6.040   7.036  17.119  0.00  0.00    +0.000 C 
ATOM      3  C   UNL     1       7.303   6.255  17.462  0.00  0.00    +0.000 C 
ATOM      4  C   UNL     1       7.084   4.757  17.297  0.00  0.00    +0.000 C 
ATOM      5  C   UNL     1       5.831   4.294  18.028  0.00  0.00    +0.000 C 
ATOM      6  N   UNL     1       4.656   5.081  17.636  0.00  0.00    +0.000 N 
ATOM      7  C   UNL     1       3.395   4.493  17.684  0.00  0.00    +0.000 C 
ATOM      8  O   UNL     1       2.361   5.143  17.668  0.00  0.00    +0.000 OA
ENDROOT
BRANCH   1  10
ATOM      9  N   UNL     1       2.794   7.866  18.594  0.00  0.00    +0.000 N 
ATOM     10  C   UNL     1       3.674   7.565  17.575  0.00  0.00    +0.000 C 
ATOM     11  O   UNL     1       3.465   7.915  16.410  0.00  0.00    +0.000 OA
ATOM     12  H   UNL     1       3.163   7.823  19.535  0.00  0.00    +0.000 HD
BRANCH   9  13
ATOM     13  C   UNL     1       1.652   8.726  18.346  0.00  0.00    +0.000 C 
BRANCH  13  18
ATOM     14  C   UNL     1      -0.991  10.594  23.124  0.00  0.00    +0.000 C 
ATOM     15  C   UNL     1      -0.286  10.072  21.907  0.00  0.00    +0.000 A 
ATOM     16  C   UNL     1       0.555   8.968  21.986  0.00  0.00    +0.000 A 
ATOM     17  C   UNL     1       1.202   8.527  20.831  0.00  0.00    +0.000 A 
ATOM     18  C   UNL     1       1.001   9.193  19.619  0.00  0.00    +0.000 A 
ATOM     19  C   UNL     1       0.126  10.272  19.635  0.00  0.00    +0.000 A 
ATOM     20  N   UNL     1      -0.511  10.726  20.742  0.00  0.00    +0.000 NA
ENDBRANCH  13  18
ENDBRANCH   9  13
ENDBRANCH   1  10
BRANCH   7  21
ATOM     21  O   UNL     1       3.444   3.130  17.674  0.00  0.00    +0.000 OA
BRANCH  21  22
ATOM     22  C   UNL     1       3.013   2.352  18.825  0.00  0.00    +0.000 C 
ATOM     23  C   UNL     1       3.195   3.141  20.128  0.00  0.00    +0.000 C 
ATOM     24  C   UNL     1       1.505   2.103  18.628  0.00  0.00    +0.000 C 
ATOM     25  C   UNL     1       3.717   0.993  18.867  0.00  0.00    +0.000 C 
ENDBRANCH  21  22
ENDBRANCH   7  21
TORSDOF 5
ENDMDL
MODEL 7
REMARK VINA RESULT:      -6.5      0.849      1.211
REMARK  Name = 
REMARK  9 active torsions:
REMARK  status: ('A' for Active; 'I' for Inactive)
REMARK    1  A    between atoms: C_1  and  C_2
REMARK    2  A    between atoms: C_5  and  C_6
REMARK    3  A    between atoms: C_6  and  N_7
REMARK    4  A    between atoms: C_8  and  C_10
REMARK    5  A    between atoms: C_16  and  O_18
REMARK    6  A    between atoms: O_18  and  C_19
REMARK    7  A    between atoms: C_19  and  C_20
REMARK    8  A    between atoms: C_19  and  C_21
REMARK    9  A    between atoms: C_19  and  C_22
REMARK                            x       y       z     vdW  Elec       q    Type
REMARK                         _______ _______ _______ _____ _____    ______ ____
ROOT
ATOM      1  C   UNL     1       1.824   4.616  19.164  0.00  0.00    +0.000 C 
ATOM      2  C   UNL     1       1.578   3.224  19.795  0.00  0.00    +0.000 C 
ATOM      3  C   UNL     1       1.336   2.139  18.753  0.00  0.00    +0.000 C 
ATOM      4  C   UNL     1       2.449   2.118  17.713  0.00  0.00    +0.000 C 
ATOM      5  C   UNL     1       2.701   3.506  17.140  0.00  0.00    +0.000 C 
ATOM      6  N   UNL     1       2.940   4.492  18.201  0.00  0.00    +0.000 N 
ATOM      7  C   UNL     1       3.745   5.596  17.935  0.00  0.00    +0.000 C 
ATOM      8  O   UNL     1       3.753   6.594  18.639  0.00  0.00    +0.000 OA
ENDROOT
BRANCH   1  10
ATOM      9  N   UNL     1       1.397   6.894  20.118  0.00  0.00    +0.000 N 
ATOM     10  C   UNL     1       1.839   5.610  20.362  0.00  0.00    +0.000 C 
ATOM     11  O   UNL     1       2.425   5.312  21.407  0.00  0.00    +0.000 OA
ATOM     12  H   UNL     1       0.680   6.997  19.412  0.00  0.00    +0.000 HD
BRANCH   9  13
ATOM     13  C   UNL     1       1.492   7.911  21.149  0.00  0.00    +0.000 C 
BRANCH  13  18
ATOM     14  C   UNL     1      -1.248  12.714  19.497  0.00  0.00    +0.000 C 
ATOM     15  C   UNL     1      -0.556  11.471  19.969  0.00  0.00    +0.000 A 
ATOM     16  C   UNL     1      -0.669  11.045  21.288  0.00  0.00    +0.000 A 
ATOM     17  C   UNL     1       0.005   9.891  21.687  0.00  0.00    +0.000 A 
ATOM     18  C   UNL     1       0.781   9.181  20.767  0.00  0.00    +0.000 A 
ATOM     19  C   UNL     1       0.815   9.670  19.466  0.00  0.00    +0.000 A 
ATOM     20  N   UNL     1       0.175  10.792  19.053  0.00  0.00    +0.000 NA
ENDBRANCH  13  18
ENDBRANCH   9  13
ENDBRANCH   1  10
BRANCH   7  21
ATOM     21  O   UNL     1       4.566   5.408  16.861  0.00  0.00    +0.000 OA
BRANCH  21  22
ATOM     22  C   UNL     1       5.990   5.169  17.035  0.00  0.00    +0.000 C 
ATOM     23  C   UNL     1       6.553   4.317  15.891  0.00  0.00    +0.000 C 
ATOM     24  C   UNL     1       6.664   6.553  16.973  0.00  0.00    +0.000 C 
ATOM     25  C   UNL     1       6.282   4.560  18.409  0.00  0.00    +0.000 C 
ENDBRANCH  21  22
ENDBRANCH   7  21
TORSDOF 5
ENDMDL
MODEL 8
REMARK VINA RESULT:      -6.5      1.066      1.373
REMARK  Name = 
REMARK  9 active torsions:
REMARK  status: ('A' for Active; 'I' for Inactive)
REMARK    1  A    between atoms: C_1  and  C_2
REMARK    2  A    between atoms: C_5  and  C_6
REMARK    3  A    between atoms: C_6  and  N_7
REMARK    4  A    between atoms: C_8  and  C_10
REMARK    5  A    between atoms: C_16  and  O_18
REMARK    6  A    between atoms: O_18  and  C_19
REMARK    7  A    between atoms: C_19  and  C_20
REMARK    8  A    between atoms: C_19  and  C_21
REMARK    9  A    between atoms: C_19  and  C_22
REMARK                            x       y       z     vdW  Elec       q    Type
REMARK                         _______ _______ _______ _____ _____    ______ ____
ROOT
ATOM      1  C   UNL     1       1.998   4.542  19.130  0.00  0.00    +0.000 C 
ATOM      2  C   UNL     1       1.698   3.114  19.647  0.00  0.00    +0.000 C 
ATOM      3  C   UNL     1       1.638   2.083  18.527  0.00  0.00    +0.000 C 
ATOM      4  C   UNL     1       2.891   2.138  17.662  0.00  0.00    +0.000 C 
ATOM      5  C   UNL     1       3.188   3.559  17.203  0.00  0.00    +0.000 C 
ATOM      6  N   UNL     1       3.245   4.490  18.336  0.00  0.00    +0.000 N 
ATOM      7  C   UNL     1       4.052   5.622  18.248  0.00  0.00    +0.000 C 
ATOM      8  O   UNL     1       3.932   6.580  18.996  0.00  0.00    +0.000 OA
ENDROOT
BRANCH   1  10
ATOM      9  N   UNL     1       1.371   6.755  20.127  0.00  0.00    +0.000 N 
ATOM     10  C   UNL     1       1.812   5.471  20.367  0.00  0.00    +0.000 C 
ATOM     11  O   UNL     1       2.254   5.130  21.469  0.00  0.00    +0.000 OA
ATOM     12  H   UNL     1       0.757   6.880  19.332  0.00  0.00    +0.000 HD
BRANCH   9  13
ATOM     13  C   UNL     1       1.288   7.717  21.211  0.00  0.00    +0.000 C 
BRANCH  13  18
ATOM     14  C   UNL     1       0.586  13.175  19.475  0.00  0.00    +0.000 C 
ATOM     15  C   UNL     1       0.777  11.745  19.880  0.00  0.00    +0.000 A 
ATOM     16  C   UNL     1       0.988  10.753  18.929  0.00  0.00    +0.000 A 
ATOM     17  C   UNL     1       1.144   9.432  19.352  0.00  0.00    +0.000 A 
ATOM     18  C   UNL     1       1.087   9.122  20.713  0.00  0.00    +0.000 A 
ATOM     19  C   UNL     1       0.895  10.184  21.590  0.00  0.00    +0.000 A 
ATOM     20  N   UNL     1       0.734  11.474  21.207  0.00  0.00    +0.000 NA
ENDBRANCH  13  18
ENDBRANCH   9  13
ENDBRANCH   1  10
BRANCH   7  21
ATOM     21  O   UNL     1       5.025   5.507  17.299  0.00  0.00    +0.000 OA
BRANCH  21  22
ATOM     22  C   UNL     1       6.433   5.604  17.648  0.00  0.00    +0.000 C 
ATOM     23  C   UNL     1       6.670   5.222  19.114  0.00  0.00    +0.000 C 
ATOM     24  C   UNL     1       7.161   4.572  16.764  0.00  0.00    +0.000 C 
ATOM     25  C   UNL     1       6.989   6.991  17.313  0.00  0.00    +0.000 C 
ENDBRANCH  21  22
ENDBRANCH   7  21
TORSDOF 5
ENDMDL
MODEL 9
REMARK VINA RESULT:      -6.5      3.936      6.422
REMARK  Name = 
REMARK  9 active torsions:
REMARK  status: ('A' for Active; 'I' for Inactive)
REMARK    1  A    between atoms: C_1  and  C_2
REMARK    2  A    between atoms: C_5  and  C_6
REMARK    3  A    between atoms: C_6  and  N_7
REMARK    4  A    between atoms: C_8  and  C_10
REMARK    5  A    between atoms: C_16  and  O_18
REMARK    6  A    between atoms: O_18  and  C_19
REMARK    7  A    between atoms: C_19  and  C_20
REMARK    8  A    between atoms: C_19  and  C_21
REMARK    9  A    between atoms: C_19  and  C_22
REMARK                            x       y       z     vdW  Elec       q    Type
REMARK                         _______ _______ _______ _____ _____    ______ ____
ROOT
ATOM      1  C   UNL     1       6.779   4.937  17.473  0.00  0.00    +0.000 C 
ATOM      2  C   UNL     1       7.343   5.415  16.112  0.00  0.00    +0.000 C 
ATOM      3  C   UNL     1       6.825   4.594  14.938  0.00  0.00    +0.000 C 
ATOM      4  C   UNL     1       5.303   4.525  14.946  0.00  0.00    +0.000 C 
ATOM      5  C   UNL     1       4.772   4.096  16.307  0.00  0.00    +0.000 C 
ATOM      6  N   UNL     1       5.302   4.940  17.384  0.00  0.00    +0.000 N 
ATOM      7  C   UNL     1       4.544   5.132  18.535  0.00  0.00    +0.000 C 
ATOM      8  O   UNL     1       5.020   5.556  19.577  0.00  0.00    +0.000 OA
ENDROOT
BRANCH   1  10
ATOM      9  N   UNL     1       7.871   7.054  18.253  0.00  0.00    +0.000 N 
ATOM     10  C   UNL     1       7.570   5.741  18.547  0.00  0.00    +0.000 C 
ATOM     11  O   UNL     1       8.084   5.155  19.505  0.00  0.00    +0.000 OA
ATOM     12  H   UNL     1       7.208   7.548  17.668  0.00  0.00    +0.000 HD
BRANCH   9  13
ATOM     13  C   UNL     1       8.707   7.834  19.147  0.00  0.00    +0.000 C 
BRANCH  13  18
ATOM     14  C   UNL     1       8.672  13.400  17.626  0.00  0.00    +0.000 C 
ATOM     15  C   UNL     1       8.710  11.965  18.058  0.00  0.00    +0.000 A 
ATOM     16  C   UNL     1       9.504  11.559  19.125  0.00  0.00    +0.000 A 
ATOM     17  C   UNL     1       9.520  10.210  19.481  0.00  0.00    +0.000 A 
ATOM     18  C   UNL     1       8.745   9.289  18.769  0.00  0.00    +0.000 A 
ATOM     19  C   UNL     1       7.967   9.793  17.735  0.00  0.00    +0.000 A 
ATOM     20  N   UNL     1       7.937  11.097  17.363  0.00  0.00    +0.000 NA
ENDBRANCH  13  18
ENDBRANCH   9  13
ENDBRANCH   1  10
BRANCH   7  21
ATOM     21  O   UNL     1       3.219   4.868  18.348  0.00  0.00    +0.000 OA
BRANCH  21  22
ATOM     22  C   UNL     1       2.507   3.938  19.210  0.00  0.00    +0.000 C 
ATOM     23  C   UNL     1       1.929   4.650  20.439  0.00  0.00    +0.000 C 
ATOM     24  C   UNL     1       1.329   3.402  18.373  0.00  0.00    +0.000 C 
ATOM     25  C   UNL     1       3.396   2.751  19.592  0.00  0.00    +0.000 C 
ENDBRANCH  21  22
ENDBRANCH   7  21
TORSDOF 5
ENDMDL
