MODEL 1
REMARK VINA RESULT:      -8.3      0.000      0.000
REMARK  Name = 
REMARK  2 active torsions:
REMARK  status: ('A' for Active; 'I' for Inactive)
REMARK    1  A    between atoms: C_5  and  N_6
REMARK    2  A    between atoms: C_7  and  C_8
REMARK                            x       y       z     vdW  Elec       q    Type
REMARK                         _______ _______ _______ _____ _____    ______ ____
ROOT
ATOM      1  N   UNL     1       0.557  10.926  20.272  0.00  0.00    +0.000 N 
ATOM      2  C   UNL     1      -0.269  11.838  19.634  0.00  0.00    +0.000 A 
ATOM      3  N   UNL     1       0.130  13.034  20.045  0.00  0.00    +0.000 NA
ATOM      4  C   UNL     1       0.532  12.746  21.351  0.00  0.00    +0.000 A 
ATOM      5  N   UNL     1       0.253  13.684  22.289  0.00  0.00    +0.000 NA
ATOM      6  C   UNL     1      -0.928  13.454  22.861  0.00  0.00    +0.000 A 
ATOM      7  C   UNL     1      -1.585  14.569  23.381  0.00  0.00    +0.000 A 
ATOM      8  C   UNL     1      -2.906  14.515  23.808  0.00  0.00    +0.000 A 
ATOM      9  C   UNL     1      -3.571  13.303  23.728  0.00  0.00    +0.000 A 
ATOM     10  C   UNL     1      -2.887  12.154  23.270  0.00  0.00    +0.000 A 
ATOM     11  C   UNL     1      -1.540  12.167  22.840  0.00  0.00    +0.000 A 
ATOM     12  N   UNL     1      -0.868  11.038  22.350  0.00  0.00    +0.000 NA
ATOM     13  C   UNL     1       0.251  11.368  21.589  0.00  0.00    +0.000 A 
ENDROOT
BRANCH   1  18
ATOM     14 CL   UNL     1       3.450   6.256  17.893  0.00  0.00    +0.000 Cl
ATOM     15  C   UNL     1       2.510   7.568  18.489  0.00  0.00    +0.000 A 
ATOM     16  C   UNL     1       1.991   7.498  19.764  0.00  0.00    +0.000 A 
ATOM     17  C   UNL     1       1.255   8.582  20.247  0.00  0.00    +0.000 A 
ATOM     18  C   UNL     1       1.100   9.808  19.523  0.00  0.00    +0.000 A 
ATOM     19  C   UNL     1       1.579   9.841  18.218  0.00  0.00    +0.000 A 
ATOM     20  C   UNL     1       2.278   8.713  17.706  0.00  0.00    +0.000 A 
ENDBRANCH   1  18
BRANCH   2  21
ATOM     21  C   UNL     1      -1.538  11.360  19.064  0.00  0.00    +0.000 A 
ATOM     22  C   UNL     1      -1.535  10.239  18.207  0.00  0.00    +0.000 A 
ATOM     23  C   UNL     1      -2.656   9.866  17.491  0.00  0.00    +0.000 A 
ATOM     24  C   UNL     1      -3.831  10.559  17.714  0.00  0.00    +0.000 A 
ATOM     25  C   UNL     1      -3.874  11.593  18.658  0.00  0.00    +0.000 A 
ATOM     26 BR   UNL     1      -5.525  12.434  19.022  0.00  0.00    +0.000 Br
ATOM     27  C   UNL     1      -2.731  12.010  19.337  0.00  0.00    +0.000 A 
ENDBRANCH   2  21
TORSDOF 2
ENDMDL
MODEL 2
REMARK VINA RESULT:      -8.3      7.018      9.419
REMARK  Name = 
REMARK  2 active torsions:
REMARK  status: ('A' for Active; 'I' for Inactive)
REMARK    1  A    between atoms: C_5  and  N_6
REMARK    2  A    between atoms: C_7  and  C_8
REMARK                            x       y       z     vdW  Elec       q    Type
REMARK                         _______ _______ _______ _____ _____    ______ ____
ROOT
ATOM      1  N   UNL     1       5.217   3.930  17.326  0.00  0.00    +0.000 N 
ATOM      2  C   UNL     1       5.094   4.861  18.346  0.00  0.00    +0.000 A 
ATOM      3  N   UNL     1       5.509   4.248  19.446  0.00  0.00    +0.000 NA
ATOM      4  C   UNL     1       5.097   2.938  19.192  0.00  0.00    +0.000 A 
ATOM      5  N   UNL     1       4.620   2.240  20.251  0.00  0.00    +0.000 NA
ATOM      6  C   UNL     1       3.299   2.375  20.360  0.00  0.00    +0.000 A 
ATOM      7  C   UNL     1       2.771   2.222  21.641  0.00  0.00    +0.000 A 
ATOM      8  C   UNL     1       1.453   2.545  21.940  0.00  0.00    +0.000 A 
ATOM      9  C   UNL     1       0.646   3.015  20.918  0.00  0.00    +0.000 A 
ATOM     10  C   UNL     1       1.156   3.104  19.603  0.00  0.00    +0.000 A 
ATOM     11  C   UNL     1       2.487   2.770  19.258  0.00  0.00    +0.000 A 
ATOM     12  N   UNL     1       3.009   2.892  17.962  0.00  0.00    +0.000 NA
ATOM     13  C   UNL     1       4.400   2.945  17.948  0.00  0.00    +0.000 A 
ENDROOT
BRANCH   1  18
ATOM     14 CL   UNL     1       7.451   4.678  11.823  0.00  0.00    +0.000 Cl
ATOM     15  C   UNL     1       6.784   4.604  13.408  0.00  0.00    +0.000 A 
ATOM     16  C   UNL     1       5.556   4.005  13.592  0.00  0.00    +0.000 A 
ATOM     17  C   UNL     1       5.040   3.925  14.887  0.00  0.00    +0.000 A 
ATOM     18  C   UNL     1       5.770   4.338  16.048  0.00  0.00    +0.000 A 
ATOM     19  C   UNL     1       6.979   4.991  15.840  0.00  0.00    +0.000 A 
ATOM     20  C   UNL     1       7.477   5.126  14.514  0.00  0.00    +0.000 A 
ENDBRANCH   1  18
BRANCH   2  21
ATOM     21  C   UNL     1       4.226   6.029  18.131  0.00  0.00    +0.000 A 
ATOM     22  C   UNL     1       4.362   6.787  16.949  0.00  0.00    +0.000 A 
ATOM     23  C   UNL     1       3.717   7.997  16.781  0.00  0.00    +0.000 A 
ATOM     24  C   UNL     1       2.838   8.408  17.765  0.00  0.00    +0.000 A 
ATOM     25  C   UNL     1       2.600   7.599  18.884  0.00  0.00    +0.000 A 
ATOM     26 BR   UNL     1       1.301   8.137  20.144  0.00  0.00    +0.000 Br
ATOM     27  C   UNL     1       3.293   6.408  19.084  0.00  0.00    +0.000 A 
ENDBRANCH   2  21
TORSDOF 2
ENDMDL
MODEL 3
REMARK VINA RESULT:      -7.6      1.258      1.588
REMARK  Name = 
REMARK  2 active torsions:
REMARK  status: ('A' for Active; 'I' for Inactive)
REMARK    1  A    between atoms: C_5  and  N_6
REMARK    2  A    between atoms: C_7  and  C_8
REMARK                            x       y       z     vdW  Elec       q    Type
REMARK                         _______ _______ _______ _____ _____    ______ ____
ROOT
ATOM      1  N   UNL     1       0.078  11.615  20.637  0.00  0.00    +0.000 N 
ATOM      2  C   UNL     1      -0.704  12.611  20.073  0.00  0.00    +0.000 A 
ATOM      3  N   UNL     1      -0.342  13.737  20.673  0.00  0.00    +0.000 NA
ATOM      4  C   UNL     1      -0.034  13.269  21.953  0.00  0.00    +0.000 A 
ATOM      5  N   UNL     1      -0.385  14.070  22.988  0.00  0.00    +0.000 NA
ATOM      6  C   UNL     1      -1.604  13.769  23.436  0.00  0.00    +0.000 A 
ATOM      7  C   UNL     1      -2.302  14.805  24.055  0.00  0.00    +0.000 A 
ATOM      8  C   UNL     1      -3.650  14.699  24.375  0.00  0.00    +0.000 A 
ATOM      9  C   UNL     1      -4.301  13.514  24.080  0.00  0.00    +0.000 A 
ATOM     10  C   UNL     1      -3.581  12.435  23.518  0.00  0.00    +0.000 A 
ATOM     11  C   UNL     1      -2.206  12.501  23.193  0.00  0.00    +0.000 A 
ATOM     12  N   UNL     1      -1.494  11.447  22.602  0.00  0.00    +0.000 NA
ATOM     13  C   UNL     1      -0.325  11.873  21.977  0.00  0.00    +0.000 A 
ENDROOT
BRANCH   1  18
ATOM     14 CL   UNL     1       3.136   7.280  17.865  0.00  0.00    +0.000 Cl
ATOM     15  C   UNL     1       2.157   8.512  18.560  0.00  0.00    +0.000 A 
ATOM     16  C   UNL     1       1.513   8.265  19.753  0.00  0.00    +0.000 A 
ATOM     17  C   UNL     1       0.745   9.283  20.322  0.00  0.00    +0.000 A 
ATOM     18  C   UNL     1       0.680  10.609  19.782  0.00  0.00    +0.000 A 
ATOM     19  C   UNL     1       1.287  10.825  18.551  0.00  0.00    +0.000 A 
ATOM     20  C   UNL     1       2.020   9.768  17.942  0.00  0.00    +0.000 A 
ENDBRANCH   1  18
BRANCH   2  21
ATOM     21  C   UNL     1      -1.926  12.223  19.352  0.00  0.00    +0.000 A 
ATOM     22  C   UNL     1      -3.185  12.601  19.866  0.00  0.00    +0.000 A 
ATOM     23  C   UNL     1      -4.363  12.104  19.345  0.00  0.00    +0.000 A 
ATOM     24  C   UNL     1      -4.292  11.299  18.224  0.00  0.00    +0.000 A 
ATOM     25  C   UNL     1      -3.053  11.022  17.630  0.00  0.00    +0.000 A 
ATOM     26 BR   UNL     1      -3.007  10.021  16.030  0.00  0.00    +0.000 Br
ATOM     27  C   UNL     1      -1.859  11.473  18.188  0.00  0.00    +0.000 A 
ENDBRANCH   2  21
TORSDOF 2
ENDMDL
MODEL 4
REMARK VINA RESULT:      -7.6      1.064      1.148
REMARK  Name = 
REMARK  2 active torsions:
REMARK  status: ('A' for Active; 'I' for Inactive)
REMARK    1  A    between atoms: C_5  and  N_6
REMARK    2  A    between atoms: C_7  and  C_8
REMARK                            x       y       z     vdW  Elec       q    Type
REMARK                         _______ _______ _______ _____ _____    ______ ____
ROOT
ATOM      1  N   UNL     1       0.760  11.248  19.605  0.00  0.00    +0.000 N 
ATOM      2  C   UNL     1      -0.089  11.965  18.777  0.00  0.00    +0.000 A 
ATOM      3  N   UNL     1       0.358  13.213  18.794  0.00  0.00    +0.000 NA
ATOM      4  C   UNL     1       0.840  13.304  20.102  0.00  0.00    +0.000 A 
ATOM      5  N   UNL     1       0.641  14.484  20.738  0.00  0.00    +0.000 NA
ATOM      6  C   UNL     1      -0.503  14.475  21.420  0.00  0.00    +0.000 A 
ATOM      7  C   UNL     1      -1.103  15.716  21.627  0.00  0.00    +0.000 A 
ATOM      8  C   UNL     1      -2.393  15.838  22.128  0.00  0.00    +0.000 A 
ATOM      9  C   UNL     1      -3.085  14.681  22.446  0.00  0.00    +0.000 A 
ATOM     10  C   UNL     1      -2.454  13.424  22.305  0.00  0.00    +0.000 A 
ATOM     11  C   UNL     1      -1.138  13.261  21.813  0.00  0.00    +0.000 A 
ATOM     12  N   UNL     1      -0.521  12.014  21.637  0.00  0.00    +0.000 NA
ATOM     13  C   UNL     1       0.550  12.067  20.750  0.00  0.00    +0.000 A 
ENDROOT
BRANCH   1  18
ATOM     14 CL   UNL     1       3.293   5.911  18.643  0.00  0.00    +0.000 Cl
ATOM     15  C   UNL     1       2.461   7.405  18.831  0.00  0.00    +0.000 A 
ATOM     16  C   UNL     1       1.847   7.684  20.033  0.00  0.00    +0.000 A 
ATOM     17  C   UNL     1       1.199   8.912  20.183  0.00  0.00    +0.000 A 
ATOM     18  C   UNL     1       1.232   9.941  19.186  0.00  0.00    +0.000 A 
ATOM     19  C   UNL     1       1.804   9.622  17.961  0.00  0.00    +0.000 A 
ATOM     20  C   UNL     1       2.412   8.347  17.789  0.00  0.00    +0.000 A 
ENDBRANCH   1  18
BRANCH   2  21
ATOM     21  C   UNL     1      -1.402  11.389  18.446  0.00  0.00    +0.000 A 
ATOM     22  C   UNL     1      -1.468  10.211  17.672  0.00  0.00    +0.000 A 
ATOM     23  C   UNL     1      -2.664   9.736  17.168  0.00  0.00    +0.000 A 
ATOM     24  C   UNL     1      -3.827  10.387  17.531  0.00  0.00    +0.000 A 
ATOM     25  C   UNL     1      -3.782  11.483  18.403  0.00  0.00    +0.000 A 
ATOM     26 BR   UNL     1      -5.402  12.269  18.972  0.00  0.00    +0.000 Br
ATOM     27  C   UNL     1      -2.574  11.999  18.865  0.00  0.00    +0.000 A 
ENDBRANCH   2  21
TORSDOF 2
ENDMDL
MODEL 5
REMARK VINA RESULT:      -7.5      7.315      9.536
REMARK  Name = 
REMARK  2 active torsions:
REMARK  status: ('A' for Active; 'I' for Inactive)
REMARK    1  A    between atoms: C_5  and  N_6
REMARK    2  A    between atoms: C_7  and  C_8
REMARK                            x       y       z     vdW  Elec       q    Type
REMARK                         _______ _______ _______ _____ _____    ______ ____
ROOT
ATOM      1  N   UNL     1       5.257   3.564  17.275  0.00  0.00    +0.000 N 
ATOM      2  C   UNL     1       5.189   4.563  18.233  0.00  0.00    +0.000 A 
ATOM      3  N   UNL     1       5.532   3.988  19.378  0.00  0.00    +0.000 NA
ATOM      4  C   UNL     1       5.021   2.701  19.193  0.00  0.00    +0.000 A 
ATOM      5  N   UNL     1       4.470   2.110  20.280  0.00  0.00    +0.000 NA
ATOM      6  C   UNL     1       3.162   2.355  20.349  0.00  0.00    +0.000 A 
ATOM      7  C   UNL     1       2.599   2.323  21.624  0.00  0.00    +0.000 A 
ATOM      8  C   UNL     1       1.306   2.767  21.872  0.00  0.00    +0.000 A 
ATOM      9  C   UNL     1       0.559   3.236  20.804  0.00  0.00    +0.000 A 
ATOM     10  C   UNL     1       1.100   3.203  19.499  0.00  0.00    +0.000 A 
ATOM     11  C   UNL     1       2.405   2.745  19.206  0.00  0.00    +0.000 A 
ATOM     12  N   UNL     1       2.960   2.745  17.919  0.00  0.00    +0.000 NA
ATOM     13  C   UNL     1       4.351   2.687  17.934  0.00  0.00    +0.000 A 
ENDROOT
BRANCH   1  18
ATOM     14 CL   UNL     1       7.839   5.643  12.291  0.00  0.00    +0.000 Cl
ATOM     15  C   UNL     1       7.130   4.914  13.679  0.00  0.00    +0.000 A 
ATOM     16  C   UNL     1       7.747   5.059  14.903  0.00  0.00    +0.000 A 
ATOM     17  C   UNL     1       7.146   4.488  16.026  0.00  0.00    +0.000 A 
ATOM     18  C   UNL     1       5.864   3.848  15.988  0.00  0.00    +0.000 A 
ATOM     19  C   UNL     1       5.284   3.659  14.740  0.00  0.00    +0.000 A 
ATOM     20  C   UNL     1       5.927   4.190  13.587  0.00  0.00    +0.000 A 
ENDBRANCH   1  18
BRANCH   2  21
ATOM     21  C   UNL     1       4.422   5.780  17.929  0.00  0.00    +0.000 A 
ATOM     22  C   UNL     1       4.691   6.491  16.740  0.00  0.00    +0.000 A 
ATOM     23  C   UNL     1       4.146   7.737  16.497  0.00  0.00    +0.000 A 
ATOM     24  C   UNL     1       3.233   8.237  17.405  0.00  0.00    +0.000 A 
ATOM     25  C   UNL     1       2.863   7.480  18.526  0.00  0.00    +0.000 A 
ATOM     26 BR   UNL     1       1.523   8.144  19.678  0.00  0.00    +0.000 Br
ATOM     27  C   UNL     1       3.456   6.251  18.804  0.00  0.00    +0.000 A 
ENDBRANCH   2  21
TORSDOF 2
ENDMDL
MODEL 6
REMARK VINA RESULT:      -7.2      1.509      2.153
REMARK  Name = 
REMARK  2 active torsions:
REMARK  status: ('A' for Active; 'I' for Inactive)
REMARK    1  A    between atoms: C_5  and  N_6
REMARK    2  A    between atoms: C_7  and  C_8
REMARK                            x       y       z     vdW  Elec       q    Type
REMARK                         _______ _______ _______ _____ _____    ______ ____
ROOT
ATOM      1  N   UNL     1      -0.588  11.579  21.508  0.00  0.00    +0.000 N 
ATOM      2  C   UNL     1      -1.125  12.583  20.718  0.00  0.00    +0.000 A 
ATOM      3  N   UNL     1      -0.746  13.724  21.277  0.00  0.00    +0.000 NA
ATOM      4  C   UNL     1      -0.739  13.369  22.628  0.00  0.00    +0.000 A 
ATOM      5  N   UNL     1      -1.176  14.308  23.501  0.00  0.00    +0.000 NA
ATOM      6  C   UNL     1      -2.483  14.184  23.726  0.00  0.00    +0.000 A 
ATOM      7  C   UNL     1      -3.153  15.347  24.105  0.00  0.00    +0.000 A 
ATOM      8  C   UNL     1      -4.539  15.414  24.163  0.00  0.00    +0.000 A 
ATOM      9  C   UNL     1      -5.264  14.277  23.850  0.00  0.00    +0.000 A 
ATOM     10  C   UNL     1      -4.588  13.076  23.536  0.00  0.00    +0.000 A 
ATOM     11  C   UNL     1      -3.179  12.965  23.481  0.00  0.00    +0.000 A 
ATOM     12  N   UNL     1      -2.504  11.786  23.134  0.00  0.00    +0.000 NA
ATOM     13  C   UNL     1      -1.197  12.020  22.715  0.00  0.00    +0.000 A 
ENDROOT
BRANCH   1  18
ATOM     14 CL   UNL     1       2.495   6.768  19.724  0.00  0.00    +0.000 Cl
ATOM     15  C   UNL     1       1.517   8.123  20.131  0.00  0.00    +0.000 A 
ATOM     16  C   UNL     1       0.780   8.093  21.296  0.00  0.00    +0.000 A 
ATOM     17  C   UNL     1       0.013   9.211  21.631  0.00  0.00    +0.000 A 
ATOM     18  C   UNL     1       0.035  10.430  20.878  0.00  0.00    +0.000 A 
ATOM     19  C   UNL     1       0.736  10.423  19.678  0.00  0.00    +0.000 A 
ATOM     20  C   UNL     1       1.470   9.262  19.308  0.00  0.00    +0.000 A 
ENDBRANCH   1  18
BRANCH   2  21
ATOM     21  C   UNL     1      -2.231  12.246  19.808  0.00  0.00    +0.000 A 
ATOM     22  C   UNL     1      -3.534  12.701  20.101  0.00  0.00    +0.000 A 
ATOM     23  C   UNL     1      -4.637  12.257  19.397  0.00  0.00    +0.000 A 
ATOM     24  C   UNL     1      -4.426  11.428  18.313  0.00  0.00    +0.000 A 
ATOM     25  C   UNL     1      -3.124  11.073  17.937  0.00  0.00    +0.000 A 
ATOM     26 BR   UNL     1      -2.870  10.038  16.378  0.00  0.00    +0.000 Br
ATOM     27  C   UNL     1      -2.015  11.470  18.680  0.00  0.00    +0.000 A 
ENDBRANCH   2  21
TORSDOF 2
ENDMDL
MODEL 7
REMARK VINA RESULT:      -7.2      1.425      1.724
REMARK  Name = 
REMARK  2 active torsions:
REMARK  status: ('A' for Active; 'I' for Inactive)
REMARK    1  A    between atoms: C_5  and  N_6
REMARK    2  A    between atoms: C_7  and  C_8
REMARK                            x       y       z     vdW  Elec       q    Type
REMARK                         _______ _______ _______ _____ _____    ______ ____
ROOT
ATOM      1  N   UNL     1       0.070  11.595  19.963  0.00  0.00    +0.000 N 
ATOM      2  C   UNL     1      -0.692  12.160  18.953  0.00  0.00    +0.000 A 
ATOM      3  N   UNL     1      -0.506  13.469  19.048  0.00  0.00    +0.000 NA
ATOM      4  C   UNL     1      -0.355  13.616  20.430  0.00  0.00    +0.000 A 
ATOM      5  N   UNL     1      -0.912  14.720  20.983  0.00  0.00    +0.000 NA
ATOM      6  C   UNL     1      -2.157  14.477  21.391  0.00  0.00    +0.000 A 
ATOM      7  C   UNL     1      -3.013  15.577  21.435  0.00  0.00    +0.000 A 
ATOM      8  C   UNL     1      -4.382  15.440  21.631  0.00  0.00    +0.000 A 
ATOM      9  C   UNL     1      -4.894  14.165  21.805  0.00  0.00    +0.000 A 
ATOM     10  C   UNL     1      -4.021  13.054  21.833  0.00  0.00    +0.000 A 
ATOM     11  C   UNL     1      -2.622  13.156  21.652  0.00  0.00    +0.000 A 
ATOM     12  N   UNL     1      -1.756  12.053  21.642  0.00  0.00    +0.000 NA
ATOM     13  C   UNL     1      -0.543  12.330  21.017  0.00  0.00    +0.000 A 
ENDROOT
BRANCH   1  18
ATOM     14 CL   UNL     1       2.871   6.694  17.972  0.00  0.00    +0.000 Cl
ATOM     15  C   UNL     1       2.169   8.115  18.642  0.00  0.00    +0.000 A 
ATOM     16  C   UNL     1       2.198   9.285  17.914  0.00  0.00    +0.000 A 
ATOM     17  C   UNL     1       1.599  10.425  18.456  0.00  0.00    +0.000 A 
ATOM     18  C   UNL     1       0.863  10.413  19.685  0.00  0.00    +0.000 A 
ATOM     19  C   UNL     1       0.893   9.242  20.433  0.00  0.00    +0.000 A 
ATOM     20  C   UNL     1       1.555   8.098  19.907  0.00  0.00    +0.000 A 
ENDBRANCH   1  18
BRANCH   2  21
ATOM     21  C   UNL     1      -1.764  11.355  18.346  0.00  0.00    +0.000 A 
ATOM     22  C   UNL     1      -1.428  10.262  17.518  0.00  0.00    +0.000 A 
ATOM     23  C   UNL     1      -2.378   9.596  16.769  0.00  0.00    +0.000 A 
ATOM     24  C   UNL     1      -3.702   9.955  16.929  0.00  0.00    +0.000 A 
ATOM     25  C   UNL     1      -4.058  10.954  17.845  0.00  0.00    +0.000 A 
ATOM     26 BR   UNL     1      -5.887  11.332  18.124  0.00  0.00    +0.000 Br
ATOM     27  C   UNL     1      -3.097  11.668  18.557  0.00  0.00    +0.000 A 
ENDBRANCH   2  21
TORSDOF 2
ENDMDL
MODEL 8
REMARK VINA RESULT:      -7.1      1.913      2.855
REMARK  Name = 
REMARK  2 active torsions:
REMARK  status: ('A' for Active; 'I' for Inactive)
REMARK    1  A    between atoms: C_5  and  N_6
REMARK    2  A    between atoms: C_7  and  C_8
REMARK                            x       y       z     vdW  Elec       q    Type
REMARK                         _______ _______ _______ _____ _____    ______ ____
ROOT
ATOM      1  N   UNL     1      -1.437  12.469  21.343  0.00  0.00    +0.000 N 
ATOM      2  C   UNL     1      -2.276  13.189  20.507  0.00  0.00    +0.000 A 
ATOM      3  N   UNL     1      -2.260  14.434  20.966  0.00  0.00    +0.000 NA
ATOM      4  C   UNL     1      -2.117  14.210  22.337  0.00  0.00    +0.000 A 
ATOM      5  N   UNL     1      -2.808  15.037  23.158  0.00  0.00    +0.000 NA
ATOM      6  C   UNL     1      -4.007  14.534  23.450  0.00  0.00    +0.000 A 
ATOM      7  C   UNL     1      -4.998  15.460  23.773  0.00  0.00    +0.000 A 
ATOM      8  C   UNL     1      -6.335  15.100  23.886  0.00  0.00    +0.000 A 
ATOM      9  C   UNL     1      -6.675  13.772  23.688  0.00  0.00    +0.000 A 
ATOM     10  C   UNL     1      -5.664  12.818  23.432  0.00  0.00    +0.000 A 
ATOM     11  C   UNL     1      -4.292  13.144  23.324  0.00  0.00    +0.000 A 
ATOM     12  N   UNL     1      -3.290  12.207  23.033  0.00  0.00    +0.000 NA
ATOM     13  C   UNL     1      -2.130  12.799  22.541  0.00  0.00    +0.000 A 
ENDROOT
BRANCH   1  18
ATOM     14 CL   UNL     1       2.091   8.857  18.129  0.00  0.00    +0.000 Cl
ATOM     15  C   UNL     1       1.164   9.871  19.163  0.00  0.00    +0.000 A 
ATOM     16  C   UNL     1       1.181  11.234  18.958  0.00  0.00    +0.000 A 
ATOM     17  C   UNL     1       0.401  12.045  19.786  0.00  0.00    +0.000 A 
ATOM     18  C   UNL     1      -0.499  11.522  20.771  0.00  0.00    +0.000 A 
ATOM     19  C   UNL     1      -0.461  10.152  21.003  0.00  0.00    +0.000 A 
ATOM     20  C   UNL     1       0.379   9.333  20.199  0.00  0.00    +0.000 A 
ENDBRANCH   1  18
BRANCH   2  21
ATOM     21  C   UNL     1      -3.239  12.454  19.673  0.00  0.00    +0.000 A 
ATOM     22  C   UNL     1      -2.768  11.658  18.607  0.00  0.00    +0.000 A 
ATOM     23  C   UNL     1      -3.626  11.106  17.676  0.00  0.00    +0.000 A 
ATOM     24  C   UNL     1      -4.985  11.261  17.871  0.00  0.00    +0.000 A 
ATOM     25  C   UNL     1      -5.465  11.942  18.997  0.00  0.00    +0.000 A 
ATOM     26 BR   UNL     1      -7.328  12.027  19.292  0.00  0.00    +0.000 Br
ATOM     27  C   UNL     1      -4.602  12.550  19.905  0.00  0.00    +0.000 A 
ENDBRANCH   2  21
TORSDOF 2
ENDMDL
MODEL 9
REMARK VINA RESULT:      -7.1      3.910      6.599
REMARK  Name = 
REMARK  2 active torsions:
REMARK  status: ('A' for Active; 'I' for Inactive)
REMARK    1  A    between atoms: C_5  and  N_6
REMARK    2  A    between atoms: C_7  and  C_8
REMARK                            x       y       z     vdW  Elec       q    Type
REMARK                         _______ _______ _______ _____ _____    ______ ____
ROOT
ATOM      1  N   UNL     1      -1.853  13.700  22.022  0.00  0.00    +0.000 N 
ATOM      2  C   UNL     1      -0.688  13.081  22.444  0.00  0.00    +0.000 A 
ATOM      3  N   UNL     1       0.170  14.060  22.698  0.00  0.00    +0.000 NA
ATOM      4  C   UNL     1      -0.207  15.000  21.734  0.00  0.00    +0.000 A 
ATOM      5  N   UNL     1       0.796  15.698  21.149  0.00  0.00    +0.000 NA
ATOM      6  C   UNL     1       1.219  15.092  20.040  0.00  0.00    +0.000 A 
ATOM      7  C   UNL     1       2.540  15.343  19.671  0.00  0.00    +0.000 A 
ATOM      8  C   UNL     1       3.177  14.619  18.670  0.00  0.00    +0.000 A 
ATOM      9  C   UNL     1       2.457  13.634  18.015  0.00  0.00    +0.000 A 
ATOM     10  C   UNL     1       1.097  13.425  18.337  0.00  0.00    +0.000 A 
ATOM     11  C   UNL     1       0.411  14.151  19.338  0.00  0.00    +0.000 A 
ATOM     12  N   UNL     1      -0.928  13.923  19.686  0.00  0.00    +0.000 NA
ATOM     13  C   UNL     1      -1.244  14.412  20.951  0.00  0.00    +0.000 A 
ENDROOT
BRANCH   1  18
ATOM     14 CL   UNL     1      -7.503  12.531  23.616  0.00  0.00    +0.000 Cl
ATOM     15  C   UNL     1      -5.847  12.734  23.196  0.00  0.00    +0.000 A 
ATOM     16  C   UNL     1      -5.499  12.835  21.866  0.00  0.00    +0.000 A 
ATOM     17  C   UNL     1      -4.155  13.029  21.540  0.00  0.00    +0.000 A 
ATOM     18  C   UNL     1      -3.132  13.234  22.522  0.00  0.00    +0.000 A 
ATOM     19  C   UNL     1      -3.490  13.071  23.855  0.00  0.00    +0.000 A 
ATOM     20  C   UNL     1      -4.850  12.815  24.184  0.00  0.00    +0.000 A 
ENDBRANCH   1  18
BRANCH   2  21
ATOM     21  C   UNL     1      -0.498  11.655  22.140  0.00  0.00    +0.000 A 
ATOM     22  C   UNL     1      -0.922  10.684  23.072  0.00  0.00    +0.000 A 
ATOM     23  C   UNL     1      -0.597   9.349  22.932  0.00  0.00    +0.000 A 
ATOM     24  C   UNL     1       0.072   8.958  21.789  0.00  0.00    +0.000 A 
ATOM     25  C   UNL     1       0.385   9.896  20.797  0.00  0.00    +0.000 A 
ATOM     26 BR   UNL     1       1.190   9.303  19.195  0.00  0.00    +0.000 Br
ATOM     27  C   UNL     1       0.111  11.252  20.962  0.00  0.00    +0.000 A 
ENDBRANCH   2  21
TORSDOF 2
ENDMDL
