MODEL 1
REMARK VINA RESULT:      -7.1      0.000      0.000
REMARK  Name = 
REMARK  8 active torsions:
REMARK  status: ('A' for Active; 'I' for Inactive)
REMARK    1  A    between atoms: C_1  and  O_2
REMARK    2  A    between atoms: O_2  and  C_3
REMARK    3  A    between atoms: C_6  and  N_7
REMARK    4  A    between atoms: C_11  and  N_12
REMARK    5  A    between atoms: C_13  and  C_15
REMARK    6  A    between atoms: C_15  and  O_16
REMARK    7  A    between atoms: O_16  and  C_17
REMARK    8  A    between atoms: C_17  and  C_19
REMARK                            x       y       z     vdW  Elec       q    Type
REMARK                         _______ _______ _______ _____ _____    ______ ____
ROOT
ATOM      1  C   UNL     1       3.003   6.469  19.203  0.00  0.00    +0.000 A 
ATOM      2  C   UNL     1       1.906   6.430  20.079  0.00  0.00    +0.000 A 
ATOM      3  C   UNL     1       1.633   5.281  20.824  0.00  0.00    +0.000 A 
ATOM      4  C   UNL     1       2.475   4.176  20.705  0.00  0.00    +0.000 A 
ATOM      5  C   UNL     1       3.604   4.223  19.877  0.00  0.00    +0.000 A 
ATOM      6  C   UNL     1       3.886   5.364  19.113  0.00  0.00    +0.000 A 
ENDROOT
BRANCH   6   7
ATOM      7  N   UNL     1       5.043   5.432  18.275  0.00  0.00    +0.000 N 
ATOM      8  C   UNL     1       6.365   5.526  18.715  0.00  0.00    +0.000 C 
ATOM      9  O   UNL     1       6.726   5.380  19.882  0.00  0.00    +0.000 OA
ATOM     10  H   UNL     1       4.852   5.356  17.280  0.00  0.00    +0.000 HD
BRANCH   8  11
ATOM     11  C   UNL     1       7.416   5.786  17.620  0.00  0.00    +0.000 C 
BRANCH  11  12
ATOM     12  O   UNL     1       7.699   4.623  16.815  0.00  0.00    +0.000 OA
BRANCH  12  13
ATOM     13  C   UNL     1       7.353   4.790  15.509  0.00  0.00    +0.000 C 
ATOM     14  O   UNL     1       7.849   5.624  14.762  0.00  0.00    +0.000 OA
BRANCH  13  15
ATOM     15  C   UNL     1       6.290   3.886  15.003  0.00  0.00    +0.000 C 
ATOM     16  C   UNL     1       4.891   4.427  14.774  0.00  0.00    +0.000 C 
ATOM     17  C   UNL     1       5.686   3.873  13.620  0.00  0.00    +0.000 C 
ENDBRANCH  13  15
ENDBRANCH  12  13
ENDBRANCH  11  12
ENDBRANCH   8  11
ENDBRANCH   6   7
BRANCH   4  18
ATOM     18  N   UNL     1       2.175   2.950  21.459  0.00  0.00    +0.000 N 
ATOM     19  O   UNL     1       3.136   2.281  21.867  0.00  0.00    +0.000 OA
ATOM     20  O   UNL     1       0.988   2.659  21.650  0.00  0.00    +0.000 OA
ENDBRANCH   4  18
BRANCH   1  22
ATOM     21  C   UNL     1       2.093   8.202  17.866  0.00  0.00    +0.000 C 
ATOM     22  O   UNL     1       3.260   7.562  18.401  0.00  0.00    +0.000 OA
ENDBRANCH   1  22
TORSDOF 7
ENDMDL
MODEL 2
REMARK VINA RESULT:      -6.9      2.006      6.274
REMARK  Name = 
REMARK  8 active torsions:
REMARK  status: ('A' for Active; 'I' for Inactive)
REMARK    1  A    between atoms: C_1  and  O_2
REMARK    2  A    between atoms: O_2  and  C_3
REMARK    3  A    between atoms: C_6  and  N_7
REMARK    4  A    between atoms: C_11  and  N_12
REMARK    5  A    between atoms: C_13  and  C_15
REMARK    6  A    between atoms: C_15  and  O_16
REMARK    7  A    between atoms: O_16  and  C_17
REMARK    8  A    between atoms: C_17  and  C_19
REMARK                            x       y       z     vdW  Elec       q    Type
REMARK                         _______ _______ _______ _____ _____    ______ ____
ROOT
ATOM      1  C   UNL     1       4.284   5.968  17.182  0.00  0.00    +0.000 A 
ATOM      2  C   UNL     1       4.646   6.894  16.190  0.00  0.00    +0.000 A 
ATOM      3  C   UNL     1       5.471   6.512  15.130  0.00  0.00    +0.000 A 
ATOM      4  C   UNL     1       5.917   5.193  15.055  0.00  0.00    +0.000 A 
ATOM      5  C   UNL     1       5.516   4.247  16.007  0.00  0.00    +0.000 A 
ATOM      6  C   UNL     1       4.699   4.616  17.084  0.00  0.00    +0.000 A 
ENDROOT
BRANCH   6   7
ATOM      7  N   UNL     1       4.269   3.659  18.056  0.00  0.00    +0.000 N 
ATOM      8  C   UNL     1       4.898   3.395  19.275  0.00  0.00    +0.000 C 
ATOM      9  O   UNL     1       5.801   4.076  19.759  0.00  0.00    +0.000 OA
ATOM     10  H   UNL     1       3.402   3.181  17.828  0.00  0.00    +0.000 HD
BRANCH   8  11
ATOM     11  C   UNL     1       4.358   2.182  20.056  0.00  0.00    +0.000 C 
BRANCH  11  12
ATOM     12  O   UNL     1       2.921   2.069  20.008  0.00  0.00    +0.000 OA
BRANCH  12  13
ATOM     13  C   UNL     1       2.312   2.656  21.075  0.00  0.00    +0.000 C 
ATOM     14  O   UNL     1       2.611   2.449  22.244  0.00  0.00    +0.000 OA
BRANCH  13  15
ATOM     15  C   UNL     1       1.210   3.596  20.751  0.00  0.00    +0.000 C 
ATOM     16  C   UNL     1       1.490   5.085  20.680  0.00  0.00    +0.000 C 
ATOM     17  C   UNL     1       1.003   4.348  19.459  0.00  0.00    +0.000 C 
ENDBRANCH  13  15
ENDBRANCH  12  13
ENDBRANCH  11  12
ENDBRANCH   8  11
ENDBRANCH   6   7
BRANCH   4  18
ATOM     18  N   UNL     1       6.814   4.791  13.962  0.00  0.00    +0.000 N 
ATOM     19  O   UNL     1       7.873   5.424  13.829  0.00  0.00    +0.000 OA
ATOM     20  O   UNL     1       6.470   3.845  13.243  0.00  0.00    +0.000 OA
ENDBRANCH   4  18
BRANCH   1  22
ATOM     21  C   UNL     1       2.771   7.536  18.115  0.00  0.00    +0.000 C 
ATOM     22  O   UNL     1       3.528   6.329  18.279  0.00  0.00    +0.000 OA
ENDBRANCH   1  22
TORSDOF 7
ENDMDL
MODEL 3
REMARK VINA RESULT:      -6.9      1.719      3.161
REMARK  Name = 
REMARK  8 active torsions:
REMARK  status: ('A' for Active; 'I' for Inactive)
REMARK    1  A    between atoms: C_1  and  O_2
REMARK    2  A    between atoms: O_2  and  C_3
REMARK    3  A    between atoms: C_6  and  N_7
REMARK    4  A    between atoms: C_11  and  N_12
REMARK    5  A    between atoms: C_13  and  C_15
REMARK    6  A    between atoms: C_15  and  O_16
REMARK    7  A    between atoms: O_16  and  C_17
REMARK    8  A    between atoms: C_17  and  C_19
REMARK                            x       y       z     vdW  Elec       q    Type
REMARK                         _______ _______ _______ _____ _____    ______ ____
ROOT
ATOM      1  C   UNL     1       3.250   3.661  19.513  0.00  0.00    +0.000 A 
ATOM      2  C   UNL     1       2.096   3.906  20.275  0.00  0.00    +0.000 A 
ATOM      3  C   UNL     1       1.634   5.209  20.467  0.00  0.00    +0.000 A 
ATOM      4  C   UNL     1       2.322   6.269  19.876  0.00  0.00    +0.000 A 
ATOM      5  C   UNL     1       3.442   6.033  19.067  0.00  0.00    +0.000 A 
ATOM      6  C   UNL     1       3.925   4.731  18.875  0.00  0.00    +0.000 A 
ENDROOT
BRANCH   6   7
ATOM      7  N   UNL     1       5.058   4.473  18.041  0.00  0.00    +0.000 N 
ATOM      8  C   UNL     1       6.381   4.810  18.334  0.00  0.00    +0.000 C 
ATOM      9  O   UNL     1       6.775   5.211  19.428  0.00  0.00    +0.000 OA
ATOM     10  H   UNL     1       4.851   3.957  17.191  0.00  0.00    +0.000 HD
BRANCH   8  11
ATOM     11  C   UNL     1       7.392   4.605  17.189  0.00  0.00    +0.000 C 
BRANCH  11  12
ATOM     12  O   UNL     1       7.371   5.670  16.216  0.00  0.00    +0.000 OA
BRANCH  12  13
ATOM     13  C   UNL     1       7.393   5.211  14.934  0.00  0.00    +0.000 C 
ATOM     14  O   UNL     1       8.096   5.673  14.045  0.00  0.00    +0.000 OA
BRANCH  13  15
ATOM     15  C   UNL     1       6.479   4.079  14.639  0.00  0.00    +0.000 C 
ATOM     16  C   UNL     1       5.054   4.359  14.203  0.00  0.00    +0.000 C 
ATOM     17  C   UNL     1       5.996   3.627  13.283  0.00  0.00    +0.000 C 
ENDBRANCH  13  15
ENDBRANCH  12  13
ENDBRANCH  11  12
ENDBRANCH   8  11
ENDBRANCH   6   7
BRANCH   4  18
ATOM     18  N   UNL     1       1.864   7.647  20.101  0.00  0.00    +0.000 N 
ATOM     19  O   UNL     1       1.961   8.444  19.156  0.00  0.00    +0.000 OA
ATOM     20  O   UNL     1       1.402   7.934  21.212  0.00  0.00    +0.000 OA
ENDBRANCH   4  18
BRANCH   1  22
ATOM     21  C   UNL     1       4.636   1.968  20.427  0.00  0.00    +0.000 C 
ATOM     22  O   UNL     1       3.773   2.392  19.363  0.00  0.00    +0.000 OA
ENDBRANCH   1  22
TORSDOF 7
ENDMDL
MODEL 4
REMARK VINA RESULT:      -6.7      2.392      6.747
REMARK  Name = 
REMARK  8 active torsions:
REMARK  status: ('A' for Active; 'I' for Inactive)
REMARK    1  A    between atoms: C_1  and  O_2
REMARK    2  A    between atoms: O_2  and  C_3
REMARK    3  A    between atoms: C_6  and  N_7
REMARK    4  A    between atoms: C_11  and  N_12
REMARK    5  A    between atoms: C_13  and  C_15
REMARK    6  A    between atoms: C_15  and  O_16
REMARK    7  A    between atoms: O_16  and  C_17
REMARK    8  A    between atoms: C_17  and  C_19
REMARK                            x       y       z     vdW  Elec       q    Type
REMARK                         _______ _______ _______ _____ _____    ______ ____
ROOT
ATOM      1  C   UNL     1       5.343   5.111  18.090  0.00  0.00    +0.000 A 
ATOM      2  C   UNL     1       6.170   6.147  17.626  0.00  0.00    +0.000 A 
ATOM      3  C   UNL     1       6.743   6.083  16.354  0.00  0.00    +0.000 A 
ATOM      4  C   UNL     1       6.469   4.986  15.538  0.00  0.00    +0.000 A 
ATOM      5  C   UNL     1       5.599   3.974  15.968  0.00  0.00    +0.000 A 
ATOM      6  C   UNL     1       5.026   4.017  17.246  0.00  0.00    +0.000 A 
ENDROOT
BRANCH   6   7
ATOM      7  N   UNL     1       4.126   3.000  17.693  0.00  0.00    +0.000 N 
ATOM      8  C   UNL     1       2.751   2.963  17.451  0.00  0.00    +0.000 C 
ATOM      9  O   UNL     1       2.157   3.705  16.670  0.00  0.00    +0.000 OA
ATOM     10  H   UNL     1       4.567   2.228  18.186  0.00  0.00    +0.000 HD
BRANCH   8  11
ATOM     11  C   UNL     1       1.969   1.870  18.206  0.00  0.00    +0.000 C 
BRANCH  11  12
ATOM     12  O   UNL     1       0.720   2.341  18.754  0.00  0.00    +0.000 OA
BRANCH  12  13
ATOM     13  C   UNL     1       0.890   3.106  19.867  0.00  0.00    +0.000 C 
ATOM     14  O   UNL     1       0.523   4.270  19.970  0.00  0.00    +0.000 OA
BRANCH  13  15
ATOM     15  C   UNL     1       1.580   2.447  21.003  0.00  0.00    +0.000 C 
ATOM     16  C   UNL     1       3.075   2.627  21.180  0.00  0.00    +0.000 C 
ATOM     17  C   UNL     1       2.125   3.107  22.246  0.00  0.00    +0.000 C 
ENDBRANCH  13  15
ENDBRANCH  12  13
ENDBRANCH  11  12
ENDBRANCH   8  11
ENDBRANCH   6   7
BRANCH   4  18
ATOM     18  N   UNL     1       7.095   4.893  14.212  0.00  0.00    +0.000 N 
ATOM     19  O   UNL     1       8.051   5.647  13.976  0.00  0.00    +0.000 OA
ATOM     20  O   UNL     1       6.641   4.068  13.410  0.00  0.00    +0.000 OA
ENDBRANCH   4  18
BRANCH   1  22
ATOM     21  C   UNL     1       3.608   5.865  19.519  0.00  0.00    +0.000 C 
ATOM     22  O   UNL     1       4.818   5.109  19.366  0.00  0.00    +0.000 OA
ENDBRANCH   1  22
TORSDOF 7
ENDMDL
MODEL 5
REMARK VINA RESULT:      -6.6      2.119      3.376
REMARK  Name = 
REMARK  8 active torsions:
REMARK  status: ('A' for Active; 'I' for Inactive)
REMARK    1  A    between atoms: C_1  and  O_2
REMARK    2  A    between atoms: O_2  and  C_3
REMARK    3  A    between atoms: C_6  and  N_7
REMARK    4  A    between atoms: C_11  and  N_12
REMARK    5  A    between atoms: C_13  and  C_15
REMARK    6  A    between atoms: C_15  and  O_16
REMARK    7  A    between atoms: O_16  and  C_17
REMARK    8  A    between atoms: C_17  and  C_19
REMARK                            x       y       z     vdW  Elec       q    Type
REMARK                         _______ _______ _______ _____ _____    ______ ____
ROOT
ATOM      1  C   UNL     1       3.525   3.604  19.577  0.00  0.00    +0.000 A 
ATOM      2  C   UNL     1       2.347   3.801  20.316  0.00  0.00    +0.000 A 
ATOM      3  C   UNL     1       1.814   5.081  20.476  0.00  0.00    +0.000 A 
ATOM      4  C   UNL     1       2.454   6.165  19.875  0.00  0.00    +0.000 A 
ATOM      5  C   UNL     1       3.598   5.973  19.088  0.00  0.00    +0.000 A 
ATOM      6  C   UNL     1       4.153   4.696  18.928  0.00  0.00    +0.000 A 
ENDROOT
BRANCH   6   7
ATOM      7  N   UNL     1       5.311   4.483  18.117  0.00  0.00    +0.000 N 
ATOM      8  C   UNL     1       5.533   5.031  16.851  0.00  0.00    +0.000 C 
ATOM      9  O   UNL     1       4.845   5.914  16.341  0.00  0.00    +0.000 OA
ATOM     10  H   UNL     1       6.035   3.917  18.549  0.00  0.00    +0.000 HD
BRANCH   8  11
ATOM     11  C   UNL     1       6.764   4.493  16.097  0.00  0.00    +0.000 C 
BRANCH  11  12
ATOM     12  O   UNL     1       7.348   5.460  15.200  0.00  0.00    +0.000 OA
BRANCH  12  13
ATOM     13  C   UNL     1       7.349   5.041  13.904  0.00  0.00    +0.000 C 
ATOM     14  O   UNL     1       8.000   5.564  13.008  0.00  0.00    +0.000 OA
BRANCH  13  15
ATOM     15  C   UNL     1       6.481   3.876  13.603  0.00  0.00    +0.000 C 
ATOM     16  C   UNL     1       5.130   4.095  12.949  0.00  0.00    +0.000 C 
ATOM     17  C   UNL     1       6.188   3.284  12.246  0.00  0.00    +0.000 C 
ENDBRANCH  13  15
ENDBRANCH  12  13
ENDBRANCH  11  12
ENDBRANCH   8  11
ENDBRANCH   6   7
BRANCH   4  18
ATOM     18  N   UNL     1       1.921   7.521  20.066  0.00  0.00    +0.000 N 
ATOM     19  O   UNL     1       2.012   8.311  19.114  0.00  0.00    +0.000 OA
ATOM     20  O   UNL     1       1.406   7.796  21.157  0.00  0.00    +0.000 OA
ENDBRANCH   4  18
BRANCH   1  22
ATOM     21  C   UNL     1       3.508   1.497  18.489  0.00  0.00    +0.000 C 
ATOM     22  O   UNL     1       4.116   2.362  19.459  0.00  0.00    +0.000 OA
ENDBRANCH   1  22
TORSDOF 7
ENDMDL
MODEL 6
REMARK VINA RESULT:      -6.6      3.971      6.036
REMARK  Name = 
REMARK  8 active torsions:
REMARK  status: ('A' for Active; 'I' for Inactive)
REMARK    1  A    between atoms: C_1  and  O_2
REMARK    2  A    between atoms: O_2  and  C_3
REMARK    3  A    between atoms: C_6  and  N_7
REMARK    4  A    between atoms: C_11  and  N_12
REMARK    5  A    between atoms: C_13  and  C_15
REMARK    6  A    between atoms: C_15  and  O_16
REMARK    7  A    between atoms: O_16  and  C_17
REMARK    8  A    between atoms: C_17  and  C_19
REMARK                            x       y       z     vdW  Elec       q    Type
REMARK                         _______ _______ _______ _____ _____    ______ ____
ROOT
ATOM      1  C   UNL     1       6.291   5.343  15.916  0.00  0.00    +0.000 A 
ATOM      2  C   UNL     1       5.501   4.190  15.782  0.00  0.00    +0.000 A 
ATOM      3  C   UNL     1       4.409   3.975  16.625  0.00  0.00    +0.000 A 
ATOM      4  C   UNL     1       4.097   4.930  17.593  0.00  0.00    +0.000 A 
ATOM      5  C   UNL     1       4.843   6.111  17.698  0.00  0.00    +0.000 A 
ATOM      6  C   UNL     1       5.950   6.336  16.868  0.00  0.00    +0.000 A 
ENDROOT
BRANCH   6   7
ATOM      7  N   UNL     1       6.712   7.543  16.954  0.00  0.00    +0.000 N 
ATOM      8  C   UNL     1       7.716   7.810  17.889  0.00  0.00    +0.000 C 
ATOM      9  O   UNL     1       8.204   6.975  18.649  0.00  0.00    +0.000 OA
ATOM     10  H   UNL     1       6.513   8.225  16.228  0.00  0.00    +0.000 HD
BRANCH   8  11
ATOM     11  C   UNL     1       8.250   9.255  17.901  0.00  0.00    +0.000 C 
BRANCH  11  12
ATOM     12  O   UNL     1       9.097   9.538  19.033  0.00  0.00    +0.000 OA
BRANCH  12  13
ATOM     13  C   UNL     1       9.730  10.739  18.929  0.00  0.00    +0.000 C 
ATOM     14  O   UNL     1      10.120  11.228  17.876  0.00  0.00    +0.000 OA
BRANCH  13  15
ATOM     15  C   UNL     1       9.949  11.465  20.205  0.00  0.00    +0.000 C 
ATOM     16  C   UNL     1       9.122  12.697  20.520  0.00  0.00    +0.000 C 
ATOM     17  C   UNL     1       9.041  11.485  21.410  0.00  0.00    +0.000 C 
ENDBRANCH  13  15
ENDBRANCH  12  13
ENDBRANCH  11  12
ENDBRANCH   8  11
ENDBRANCH   6   7
BRANCH   4  18
ATOM     18  N   UNL     1       2.971   4.696  18.507  0.00  0.00    +0.000 N 
ATOM     19  O   UNL     1       1.826   4.762  18.034  0.00  0.00    +0.000 OA
ATOM     20  O   UNL     1       3.224   4.440  19.691  0.00  0.00    +0.000 OA
ENDBRANCH   4  18
BRANCH   1  22
ATOM     21  C   UNL     1       7.339   5.029  13.814  0.00  0.00    +0.000 C 
ATOM     22  O   UNL     1       7.418   5.552  15.147  0.00  0.00    +0.000 OA
ENDBRANCH   1  22
TORSDOF 7
ENDMDL
MODEL 7
REMARK VINA RESULT:      -6.6      2.375      6.596
REMARK  Name = 
REMARK  8 active torsions:
REMARK  status: ('A' for Active; 'I' for Inactive)
REMARK    1  A    between atoms: C_1  and  O_2
REMARK    2  A    between atoms: O_2  and  C_3
REMARK    3  A    between atoms: C_6  and  N_7
REMARK    4  A    between atoms: C_11  and  N_12
REMARK    5  A    between atoms: C_13  and  C_15
REMARK    6  A    between atoms: C_15  and  O_16
REMARK    7  A    between atoms: O_16  and  C_17
REMARK    8  A    between atoms: C_17  and  C_19
REMARK                            x       y       z     vdW  Elec       q    Type
REMARK                         _______ _______ _______ _____ _____    ______ ____
ROOT
ATOM      1  C   UNL     1       4.656   5.572  17.062  0.00  0.00    +0.000 A 
ATOM      2  C   UNL     1       4.972   6.587  16.143  0.00  0.00    +0.000 A 
ATOM      3  C   UNL     1       5.691   6.295  14.982  0.00  0.00    +0.000 A 
ATOM      4  C   UNL     1       6.077   4.979  14.733  0.00  0.00    +0.000 A 
ATOM      5  C   UNL     1       5.718   3.949  15.613  0.00  0.00    +0.000 A 
ATOM      6  C   UNL     1       5.007   4.227  16.789  0.00  0.00    +0.000 A 
ENDROOT
BRANCH   6   7
ATOM      7  N   UNL     1       4.621   3.185  17.689  0.00  0.00    +0.000 N 
ATOM      8  C   UNL     1       3.364   2.579  17.746  0.00  0.00    +0.000 C 
ATOM      9  O   UNL     1       2.474   2.734  16.910  0.00  0.00    +0.000 OA
ATOM     10  H   UNL     1       5.365   2.848  18.294  0.00  0.00    +0.000 HD
BRANCH   8  11
ATOM     11  C   UNL     1       3.136   1.623  18.932  0.00  0.00    +0.000 C 
BRANCH  11  12
ATOM     12  O   UNL     1       3.784   2.058  20.145  0.00  0.00    +0.000 OA
BRANCH  12  13
ATOM     13  C   UNL     1       2.957   2.777  20.954  0.00  0.00    +0.000 C 
ATOM     14  O   UNL     1       2.695   2.483  22.113  0.00  0.00    +0.000 OA
BRANCH  13  15
ATOM     15  C   UNL     1       2.349   3.985  20.343  0.00  0.00    +0.000 C 
ATOM     16  C   UNL     1       0.840   4.086  20.223  0.00  0.00    +0.000 C 
ATOM     17  C   UNL     1       1.600   5.087  21.053  0.00  0.00    +0.000 C 
ENDBRANCH  13  15
ENDBRANCH  12  13
ENDBRANCH  11  12
ENDBRANCH   8  11
ENDBRANCH   6   7
BRANCH   4  18
ATOM     18  N   UNL     1       6.864   4.668  13.531  0.00  0.00    +0.000 N 
ATOM     19  O   UNL     1       6.517   3.685  12.859  0.00  0.00    +0.000 OA
ATOM     20  O   UNL     1       7.819   5.403  13.253  0.00  0.00    +0.000 OA
ENDBRANCH   4  18
BRANCH   1  22
ATOM     21  C   UNL     1       3.034   6.887  18.183  0.00  0.00    +0.000 C 
ATOM     22  O   UNL     1       4.009   5.838  18.251  0.00  0.00    +0.000 OA
ENDBRANCH   1  22
TORSDOF 7
ENDMDL
MODEL 8
REMARK VINA RESULT:      -6.5      2.362      6.456
REMARK  Name = 
REMARK  8 active torsions:
REMARK  status: ('A' for Active; 'I' for Inactive)
REMARK    1  A    between atoms: C_1  and  O_2
REMARK    2  A    between atoms: O_2  and  C_3
REMARK    3  A    between atoms: C_6  and  N_7
REMARK    4  A    between atoms: C_11  and  N_12
REMARK    5  A    between atoms: C_13  and  C_15
REMARK    6  A    between atoms: C_15  and  O_16
REMARK    7  A    between atoms: O_16  and  C_17
REMARK    8  A    between atoms: C_17  and  C_19
REMARK                            x       y       z     vdW  Elec       q    Type
REMARK                         _______ _______ _______ _____ _____    ______ ____
ROOT
ATOM      1  C   UNL     1       4.190   5.717  17.208  0.00  0.00    +0.000 A 
ATOM      2  C   UNL     1       4.930   6.781  16.666  0.00  0.00    +0.000 A 
ATOM      3  C   UNL     1       5.860   6.555  15.649  0.00  0.00    +0.000 A 
ATOM      4  C   UNL     1       6.033   5.261  15.161  0.00  0.00    +0.000 A 
ATOM      5  C   UNL     1       5.260   4.200  15.654  0.00  0.00    +0.000 A 
ATOM      6  C   UNL     1       4.332   4.408  16.683  0.00  0.00    +0.000 A 
ENDROOT
BRANCH   6   7
ATOM      7  N   UNL     1       3.526   3.339  17.186  0.00  0.00    +0.000 N 
ATOM      8  C   UNL     1       3.779   2.601  18.344  0.00  0.00    +0.000 C 
ATOM      9  O   UNL     1       4.630   2.888  19.185  0.00  0.00    +0.000 OA
ATOM     10  H   UNL     1       2.678   3.160  16.655  0.00  0.00    +0.000 HD
BRANCH   8  11
ATOM     11  C   UNL     1       2.874   1.374  18.565  0.00  0.00    +0.000 C 
BRANCH  11  12
ATOM     12  O   UNL     1       1.863   1.588  19.571  0.00  0.00    +0.000 OA
BRANCH  12  13
ATOM     13  C   UNL     1       1.148   2.728  19.364  0.00  0.00    +0.000 C 
ATOM     14  O   UNL     1       0.601   3.021  18.308  0.00  0.00    +0.000 OA
BRANCH  13  15
ATOM     15  C   UNL     1       1.062   3.654  20.520  0.00  0.00    +0.000 C 
ATOM     16  C   UNL     1       1.772   3.305  21.815  0.00  0.00    +0.000 C 
ATOM     17  C   UNL     1       2.154   4.549  21.055  0.00  0.00    +0.000 C 
ENDBRANCH  13  15
ENDBRANCH  12  13
ENDBRANCH  11  12
ENDBRANCH   8  11
ENDBRANCH   6   7
BRANCH   4  18
ATOM     18  N   UNL     1       7.034   5.007  14.115  0.00  0.00    +0.000 N 
ATOM     19  O   UNL     1       8.094   5.650  14.169  0.00  0.00    +0.000 OA
ATOM     20  O   UNL     1       6.770   4.167  13.247  0.00  0.00    +0.000 OA
ENDBRANCH   4  18
BRANCH   1  22
ATOM     21  C   UNL     1       2.631   7.155  18.266  0.00  0.00    +0.000 C 
ATOM     22  O   UNL     1       3.316   5.895  18.260  0.00  0.00    +0.000 OA
ENDBRANCH   1  22
TORSDOF 7
ENDMDL
MODEL 9
REMARK VINA RESULT:      -6.5      0.796      1.014
REMARK  Name = 
REMARK  8 active torsions:
REMARK  status: ('A' for Active; 'I' for Inactive)
REMARK    1  A    between atoms: C_1  and  O_2
REMARK    2  A    between atoms: O_2  and  C_3
REMARK    3  A    between atoms: C_6  and  N_7
REMARK    4  A    between atoms: C_11  and  N_12
REMARK    5  A    between atoms: C_13  and  C_15
REMARK    6  A    between atoms: C_15  and  O_16
REMARK    7  A    between atoms: O_16  and  C_17
REMARK    8  A    between atoms: C_17  and  C_19
REMARK                            x       y       z     vdW  Elec       q    Type
REMARK                         _______ _______ _______ _____ _____    ______ ____
ROOT
ATOM      1  C   UNL     1       2.864   6.749  19.235  0.00  0.00    +0.000 A 
ATOM      2  C   UNL     1       1.757   6.443  20.044  0.00  0.00    +0.000 A 
ATOM      3  C   UNL     1       1.619   5.172  20.607  0.00  0.00    +0.000 A 
ATOM      4  C   UNL     1       2.604   4.214  20.374  0.00  0.00    +0.000 A 
ATOM      5  C   UNL     1       3.741   4.525  19.616  0.00  0.00    +0.000 A 
ATOM      6  C   UNL     1       3.889   5.792  19.033  0.00  0.00    +0.000 A 
ENDROOT
BRANCH   6   7
ATOM      7  N   UNL     1       5.050   6.129  18.270  0.00  0.00    +0.000 N 
ATOM      8  C   UNL     1       6.373   6.018  18.703  0.00  0.00    +0.000 C 
ATOM      9  O   UNL     1       6.726   5.446  19.734  0.00  0.00    +0.000 OA
ATOM     10  H   UNL     1       4.860   6.427  17.317  0.00  0.00    +0.000 HD
BRANCH   8  11
ATOM     11  C   UNL     1       7.435   6.631  17.771  0.00  0.00    +0.000 C 
BRANCH  11  12
ATOM     12  O   UNL     1       7.372   6.119  16.424  0.00  0.00    +0.000 OA
BRANCH  12  13
ATOM     13  C   UNL     1       7.467   4.762  16.373  0.00  0.00    +0.000 C 
ATOM     14  O   UNL     1       8.212   4.092  17.077  0.00  0.00    +0.000 OA
BRANCH  13  15
ATOM     15  C   UNL     1       6.598   4.092  15.372  0.00  0.00    +0.000 C 
ATOM     16  C   UNL     1       5.135   3.850  15.692  0.00  0.00    +0.000 C 
ATOM     17  C   UNL     1       5.520   4.729  14.530  0.00  0.00    +0.000 C 
ENDBRANCH  13  15
ENDBRANCH  12  13
ENDBRANCH  11  12
ENDBRANCH   8  11
ENDBRANCH   6   7
BRANCH   4  18
ATOM     18  N   UNL     1       2.450   2.863  20.933  0.00  0.00    +0.000 N 
ATOM     19  O   UNL     1       2.727   1.904  20.197  0.00  0.00    +0.000 OA
ATOM     20  O   UNL     1       2.062   2.758  22.103  0.00  0.00    +0.000 OA
ENDBRANCH   4  18
BRANCH   1  22
ATOM     21  C   UNL     1       1.829   8.409  17.897  0.00  0.00    +0.000 C 
ATOM     22  O   UNL     1       2.995   7.971  18.607  0.00  0.00    +0.000 OA
ENDBRANCH   1  22
TORSDOF 7
ENDMDL
