MODEL 1
REMARK VINA RESULT:      -6.8      0.000      0.000
REMARK  Name = 
REMARK  8 active torsions:
REMARK  status: ('A' for Active; 'I' for Inactive)
REMARK    1  A    between atoms: C_1  and  C_2
REMARK    2  A    between atoms: C_5  and  C_6
REMARK    3  A    between atoms: C_6  and  N_7
REMARK    4  A    between atoms: C_9  and  C_10
REMARK    5  A    between atoms: C_10  and  C_11
REMARK    6  A    between atoms: C_11  and  C_12
REMARK    7  A    between atoms: C_12  and  N_13
REMARK    8  A    between atoms: C_16  and  N_17
REMARK                            x       y       z     vdW  Elec       q    Type
REMARK                         _______ _______ _______ _____ _____    ______ ____
ROOT
ATOM      1  C   UNL     1       5.230   6.620  17.203  0.00  0.00    +0.000 C 
ENDROOT
BRANCH   1   6
ATOM      2  C   UNL     1       1.576   3.906  20.783  0.00  0.00    +0.000 C 
ATOM      3  C   UNL     1       2.533   4.548  19.837  0.00  0.00    +0.000 A 
ATOM      4  N   UNL     1       2.214   5.708  19.221  0.00  0.00    +0.000 NA
ATOM      5  C   UNL     1       3.092   6.319  18.390  0.00  0.00    +0.000 A 
ATOM      6  C   UNL     1       4.372   5.779  18.149  0.00  0.00    +0.000 A 
ATOM      7  C   UNL     1       4.685   4.555  18.821  0.00  0.00    +0.000 A 
ATOM      8  N   UNL     1       3.746   3.987  19.626  0.00  0.00    +0.000 NA
BRANCH   7   9
ATOM      9  N   UNL     1       5.941   3.902  18.763  0.00  0.00    +0.000 N 
ATOM     10  H   UNL     1       6.824   4.382  18.587  0.00  0.00    +0.000 HD
ATOM     11  H   UNL     1       6.007   2.917  19.057  0.00  0.00    +0.000 HD
ENDBRANCH   7   9
ENDBRANCH   1   6
BRANCH   1  12
ATOM     12  N   UNL     1       5.925   5.931  16.120  0.00  0.00    +0.000 N 
ATOM     13  C   UNL     1       5.377   5.055  15.259  0.00  0.00    +0.000 A 
ATOM     14  C   UNL     1       6.401   4.610  14.457  0.00  0.00    +0.000 A 
ATOM     15  N   UNL     1       7.540   5.216  14.852  0.00  0.00    +0.000 NA
ATOM     16  N   UNL     1       7.225   6.002  15.876  0.00  0.00    +0.000 NA
BRANCH  14  17
ATOM     17  C   UNL     1       6.310   3.584  13.365  0.00  0.00    +0.000 C 
BRANCH  17  18
ATOM     18  C   UNL     1       5.252   3.908  12.300  0.00  0.00    +0.000 C 
BRANCH  18  19
ATOM     19  C   UNL     1       4.792   2.680  11.511  0.00  0.00    +0.000 C 
BRANCH  19  20
ATOM     20  N   UNL     1       5.834   1.658  11.532  0.00  0.00    +0.000 NA
ATOM     21  H   UNL     1       5.404   0.729  11.748  0.00  0.00    +0.000 HD
ATOM     22  H   UNL     1       6.506   1.881  12.303  0.00  0.00    +0.000 HD
ENDBRANCH  19  20
ENDBRANCH  18  19
ENDBRANCH  17  18
ENDBRANCH  14  17
ENDBRANCH   1  12
TORSDOF 7
ENDMDL
MODEL 2
REMARK VINA RESULT:      -6.7      1.309      1.555
REMARK  Name = 
REMARK  8 active torsions:
REMARK  status: ('A' for Active; 'I' for Inactive)
REMARK    1  A    between atoms: C_1  and  C_2
REMARK    2  A    between atoms: C_5  and  C_6
REMARK    3  A    between atoms: C_6  and  N_7
REMARK    4  A    between atoms: C_9  and  C_10
REMARK    5  A    between atoms: C_10  and  C_11
REMARK    6  A    between atoms: C_11  and  C_12
REMARK    7  A    between atoms: C_12  and  N_13
REMARK    8  A    between atoms: C_16  and  N_17
REMARK                            x       y       z     vdW  Elec       q    Type
REMARK                         _______ _______ _______ _____ _____    ______ ____
ROOT
ATOM      1  C   UNL     1       6.111   4.868  19.039  0.00  0.00    +0.000 C 
ENDROOT
BRANCH   1   6
ATOM      2  C   UNL     1       0.557   3.574  20.042  0.00  0.00    +0.000 C 
ATOM      3  C   UNL     1       1.992   3.854  19.748  0.00  0.00    +0.000 A 
ATOM      4  N   UNL     1       2.406   5.116  19.491  0.00  0.00    +0.000 NA
ATOM      5  C   UNL     1       3.713   5.386  19.262  0.00  0.00    +0.000 A 
ATOM      6  C   UNL     1       4.689   4.369  19.298  0.00  0.00    +0.000 A 
ATOM      7  C   UNL     1       4.223   3.046  19.581  0.00  0.00    +0.000 A 
ATOM      8  N   UNL     1       2.893   2.845  19.782  0.00  0.00    +0.000 NA
BRANCH   7   9
ATOM      9  N   UNL     1       5.060   1.912  19.732  0.00  0.00    +0.000 N 
ATOM     10  H   UNL     1       5.768   1.633  19.052  0.00  0.00    +0.000 HD
ATOM     11  H   UNL     1       5.073   1.416  20.634  0.00  0.00    +0.000 HD
ENDBRANCH   7   9
ENDBRANCH   1   6
BRANCH   1  12
ATOM     12  N   UNL     1       6.517   5.077  17.652  0.00  0.00    +0.000 N 
ATOM     13  C   UNL     1       6.110   4.360  16.591  0.00  0.00    +0.000 A 
ATOM     14  C   UNL     1       6.788   4.859  15.503  0.00  0.00    +0.000 A 
ATOM     15  N   UNL     1       7.591   5.856  15.929  0.00  0.00    +0.000 NA
ATOM     16  N   UNL     1       7.419   5.957  17.242  0.00  0.00    +0.000 NA
BRANCH  14  17
ATOM     17  C   UNL     1       6.713   4.361  14.090  0.00  0.00    +0.000 C 
BRANCH  17  18
ATOM     18  C   UNL     1       5.303   3.930  13.660  0.00  0.00    +0.000 C 
BRANCH  18  19
ATOM     19  C   UNL     1       5.267   3.262  12.283  0.00  0.00    +0.000 C 
BRANCH  19  20
ATOM     20  N   UNL     1       6.575   2.690  11.976  0.00  0.00    +0.000 NA
ATOM     21  H   UNL     1       7.087   2.496  12.868  0.00  0.00    +0.000 HD
ATOM     22  H   UNL     1       7.131   3.396  11.440  0.00  0.00    +0.000 HD
ENDBRANCH  19  20
ENDBRANCH  18  19
ENDBRANCH  17  18
ENDBRANCH  14  17
ENDBRANCH   1  12
TORSDOF 7
ENDMDL
MODEL 3
REMARK VINA RESULT:      -6.7      1.979      6.234
REMARK  Name = 
REMARK  8 active torsions:
REMARK  status: ('A' for Active; 'I' for Inactive)
REMARK    1  A    between atoms: C_1  and  C_2
REMARK    2  A    between atoms: C_5  and  C_6
REMARK    3  A    between atoms: C_6  and  N_7
REMARK    4  A    between atoms: C_9  and  C_10
REMARK    5  A    between atoms: C_10  and  C_11
REMARK    6  A    between atoms: C_11  and  C_12
REMARK    7  A    between atoms: C_12  and  N_13
REMARK    8  A    between atoms: C_16  and  N_17
REMARK                            x       y       z     vdW  Elec       q    Type
REMARK                         _______ _______ _______ _____ _____    ______ ____
ROOT
ATOM      1  C   UNL     1       5.481   6.006  18.325  0.00  0.00    +0.000 C 
ENDROOT
BRANCH   1   6
ATOM      2  C   UNL     1       7.251   4.571  13.002  0.00  0.00    +0.000 C 
ATOM      3  C   UNL     1       6.856   4.953  14.388  0.00  0.00    +0.000 A 
ATOM      4  N   UNL     1       5.738   5.682  14.606  0.00  0.00    +0.000 NA
ATOM      5  C   UNL     1       5.350   5.999  15.865  0.00  0.00    +0.000 A 
ATOM      6  C   UNL     1       6.085   5.571  16.989  0.00  0.00    +0.000 A 
ATOM      7  C   UNL     1       7.258   4.795  16.728  0.00  0.00    +0.000 A 
ATOM      8  N   UNL     1       7.599   4.530  15.437  0.00  0.00    +0.000 NA
BRANCH   7   9
ATOM      9  N   UNL     1       8.080   4.215  17.726  0.00  0.00    +0.000 N 
ATOM     10  H   UNL     1       9.098   4.284  17.736  0.00  0.00    +0.000 HD
ATOM     11  H   UNL     1       7.640   3.828  18.573  0.00  0.00    +0.000 HD
ENDBRANCH   7   9
ENDBRANCH   1   6
BRANCH   1  12
ATOM     12  N   UNL     1       4.698   5.024  19.070  0.00  0.00    +0.000 N 
ATOM     13  C   UNL     1       3.545   5.259  19.719  0.00  0.00    +0.000 A 
ATOM     14  C   UNL     1       3.197   4.077  20.329  0.00  0.00    +0.000 A 
ATOM     15  N   UNL     1       4.146   3.161  20.044  0.00  0.00    +0.000 NA
ATOM     16  N   UNL     1       5.056   3.768  19.290  0.00  0.00    +0.000 NA
BRANCH  14  17
ATOM     17  C   UNL     1       2.009   3.835  21.213  0.00  0.00    +0.000 C 
BRANCH  17  18
ATOM     18  C   UNL     1       1.120   2.672  20.749  0.00  0.00    +0.000 C 
BRANCH  18  19
ATOM     19  C   UNL     1       0.810   2.707  19.250  0.00  0.00    +0.000 C 
BRANCH  19  20
ATOM     20  N   UNL     1       1.571   1.668  18.562  0.00  0.00    +0.000 NA
ATOM     21  H   UNL     1       2.480   2.067  18.230  0.00  0.00    +0.000 HD
ATOM     22  H   UNL     1       1.034   1.364  17.718  0.00  0.00    +0.000 HD
ENDBRANCH  19  20
ENDBRANCH  18  19
ENDBRANCH  17  18
ENDBRANCH  14  17
ENDBRANCH   1  12
TORSDOF 7
ENDMDL
MODEL 4
REMARK VINA RESULT:      -6.7      2.847      6.268
REMARK  Name = 
REMARK  8 active torsions:
REMARK  status: ('A' for Active; 'I' for Inactive)
REMARK    1  A    between atoms: C_1  and  C_2
REMARK    2  A    between atoms: C_5  and  C_6
REMARK    3  A    between atoms: C_6  and  N_7
REMARK    4  A    between atoms: C_9  and  C_10
REMARK    5  A    between atoms: C_10  and  C_11
REMARK    6  A    between atoms: C_11  and  C_12
REMARK    7  A    between atoms: C_12  and  N_13
REMARK    8  A    between atoms: C_16  and  N_17
REMARK                            x       y       z     vdW  Elec       q    Type
REMARK                         _______ _______ _______ _____ _____    ______ ____
ROOT
ATOM      1  C   UNL     1       4.539   3.741  16.334  0.00  0.00    +0.000 C 
ENDROOT
BRANCH   1   6
ATOM      2  C   UNL     1       7.919   8.217  17.776  0.00  0.00    +0.000 C 
ATOM      3  C   UNL     1       7.023   7.066  17.463  0.00  0.00    +0.000 A 
ATOM      4  N   UNL     1       6.423   6.973  16.255  0.00  0.00    +0.000 NA
ATOM      5  C   UNL     1       5.639   5.912  15.948  0.00  0.00    +0.000 A 
ATOM      6  C   UNL     1       5.433   4.862  16.866  0.00  0.00    +0.000 A 
ATOM      7  C   UNL     1       6.088   4.983  18.133  0.00  0.00    +0.000 A 
ATOM      8  N   UNL     1       6.845   6.087  18.380  0.00  0.00    +0.000 NA
BRANCH   7   9
ATOM      9  N   UNL     1       6.062   3.998  19.151  0.00  0.00    +0.000 N 
ATOM     10  H   UNL     1       6.860   3.415  19.399  0.00  0.00    +0.000 HD
ATOM     11  H   UNL     1       5.251   3.956  19.785  0.00  0.00    +0.000 HD
ENDBRANCH   7   9
ENDBRANCH   1   6
BRANCH   1  12
ATOM     12  N   UNL     1       3.607   3.114  17.265  0.00  0.00    +0.000 N 
ATOM     13  C   UNL     1       2.470   3.657  17.734  0.00  0.00    +0.000 A 
ATOM     14  C   UNL     1       1.946   2.749  18.625  0.00  0.00    +0.000 A 
ATOM     15  N   UNL     1       2.776   1.687  18.679  0.00  0.00    +0.000 NA
ATOM     16  N   UNL     1       3.786   1.942  17.856  0.00  0.00    +0.000 NA
BRANCH  14  17
ATOM     17  C   UNL     1       0.704   2.911  19.450  0.00  0.00    +0.000 C 
BRANCH  17  18
ATOM     18  C   UNL     1       0.875   3.861  20.645  0.00  0.00    +0.000 C 
BRANCH  18  19
ATOM     19  C   UNL     1       2.295   3.864  21.217  0.00  0.00    +0.000 C 
BRANCH  19  20
ATOM     20  N   UNL     1       2.516   2.652  22.000  0.00  0.00    +0.000 NA
ATOM     21  H   UNL     1       3.072   2.889  22.855  0.00  0.00    +0.000 HD
ATOM     22  H   UNL     1       3.085   1.984  21.430  0.00  0.00    +0.000 HD
ENDBRANCH  19  20
ENDBRANCH  18  19
ENDBRANCH  17  18
ENDBRANCH  14  17
ENDBRANCH   1  12
TORSDOF 7
ENDMDL
MODEL 5
REMARK VINA RESULT:      -6.7      1.097      1.731
REMARK  Name = 
REMARK  8 active torsions:
REMARK  status: ('A' for Active; 'I' for Inactive)
REMARK    1  A    between atoms: C_1  and  C_2
REMARK    2  A    between atoms: C_5  and  C_6
REMARK    3  A    between atoms: C_6  and  N_7
REMARK    4  A    between atoms: C_9  and  C_10
REMARK    5  A    between atoms: C_10  and  C_11
REMARK    6  A    between atoms: C_11  and  C_12
REMARK    7  A    between atoms: C_12  and  N_13
REMARK    8  A    between atoms: C_16  and  N_17
REMARK                            x       y       z     vdW  Elec       q    Type
REMARK                         _______ _______ _______ _____ _____    ______ ____
ROOT
ATOM      1  C   UNL     1       6.305   4.793  18.132  0.00  0.00    +0.000 C 
ENDROOT
BRANCH   1   6
ATOM      2  C   UNL     1       0.917   3.425  19.755  0.00  0.00    +0.000 C 
ATOM      3  C   UNL     1       2.294   3.838  19.357  0.00  0.00    +0.000 A 
ATOM      4  N   UNL     1       3.346   3.016  19.576  0.00  0.00    +0.000 NA
ATOM      5  C   UNL     1       4.594   3.365  19.182  0.00  0.00    +0.000 A 
ATOM      6  C   UNL     1       4.841   4.585  18.519  0.00  0.00    +0.000 A 
ATOM      7  C   UNL     1       3.707   5.429  18.294  0.00  0.00    +0.000 A 
ATOM      8  N   UNL     1       2.485   5.023  18.734  0.00  0.00    +0.000 NA
BRANCH   7   9
ATOM      9  N   UNL     1       3.744   6.654  17.582  0.00  0.00    +0.000 N 
ATOM     10  H   UNL     1       4.604   7.146  17.341  0.00  0.00    +0.000 HD
ATOM     11  H   UNL     1       2.879   7.006  17.148  0.00  0.00    +0.000 HD
ENDBRANCH   7   9
ENDBRANCH   1   6
BRANCH   1  12
ATOM     12  N   UNL     1       6.623   4.921  16.713  0.00  0.00    +0.000 N 
ATOM     13  C   UNL     1       6.105   4.184  15.716  0.00  0.00    +0.000 A 
ATOM     14  C   UNL     1       6.729   4.598  14.563  0.00  0.00    +0.000 A 
ATOM     15  N   UNL     1       7.611   5.566  14.887  0.00  0.00    +0.000 NA
ATOM     16  N   UNL     1       7.538   5.732  16.203  0.00  0.00    +0.000 NA
BRANCH  14  17
ATOM     17  C   UNL     1       6.529   4.047  13.182  0.00  0.00    +0.000 C 
BRANCH  17  18
ATOM     18  C   UNL     1       5.096   3.567  12.909  0.00  0.00    +0.000 C 
BRANCH  18  19
ATOM     19  C   UNL     1       4.949   2.820  11.582  0.00  0.00    +0.000 C 
BRANCH  19  20
ATOM     20  N   UNL     1       5.867   1.685  11.548  0.00  0.00    +0.000 NA
ATOM     21  H   UNL     1       5.559   1.012  10.807  0.00  0.00    +0.000 HD
ATOM     22  H   UNL     1       5.815   1.186  12.467  0.00  0.00    +0.000 HD
ENDBRANCH  19  20
ENDBRANCH  18  19
ENDBRANCH  17  18
ENDBRANCH  14  17
ENDBRANCH   1  12
TORSDOF 7
ENDMDL
MODEL 6
REMARK VINA RESULT:      -6.6      1.204      1.376
REMARK  Name = 
REMARK  8 active torsions:
REMARK  status: ('A' for Active; 'I' for Inactive)
REMARK    1  A    between atoms: C_1  and  C_2
REMARK    2  A    between atoms: C_5  and  C_6
REMARK    3  A    between atoms: C_6  and  N_7
REMARK    4  A    between atoms: C_9  and  C_10
REMARK    5  A    between atoms: C_10  and  C_11
REMARK    6  A    between atoms: C_11  and  C_12
REMARK    7  A    between atoms: C_12  and  N_13
REMARK    8  A    between atoms: C_16  and  N_17
REMARK                            x       y       z     vdW  Elec       q    Type
REMARK                         _______ _______ _______ _____ _____    ______ ____
ROOT
ATOM      1  C   UNL     1       5.131   6.157  18.555  0.00  0.00    +0.000 C 
ENDROOT
BRANCH   1   6
ATOM      2  C   UNL     1       1.086   2.938  21.162  0.00  0.00    +0.000 C 
ATOM      3  C   UNL     1       2.136   3.719  20.449  0.00  0.00    +0.000 A 
ATOM      4  N   UNL     1       1.982   5.046  20.242  0.00  0.00    +0.000 NA
ATOM      5  C   UNL     1       2.948   5.772  19.630  0.00  0.00    +0.000 A 
ATOM      6  C   UNL     1       4.152   5.177  19.202  0.00  0.00    +0.000 A 
ATOM      7  C   UNL     1       4.291   3.773  19.442  0.00  0.00    +0.000 A 
ATOM      8  N   UNL     1       3.271   3.103  20.045  0.00  0.00    +0.000 NA
BRANCH   7   9
ATOM      9  N   UNL     1       5.454   3.017  19.151  0.00  0.00    +0.000 N 
ATOM     10  H   UNL     1       5.633   2.083  19.521  0.00  0.00    +0.000 HD
ATOM     11  H   UNL     1       6.093   3.346  18.414  0.00  0.00    +0.000 HD
ENDBRANCH   7   9
ENDBRANCH   1   6
BRANCH   1  12
ATOM     12  N   UNL     1       6.022   5.645  17.518  0.00  0.00    +0.000 N 
ATOM     13  C   UNL     1       5.790   5.667  16.194  0.00  0.00    +0.000 A 
ATOM     14  C   UNL     1       6.856   5.027  15.604  0.00  0.00    +0.000 A 
ATOM     15  N   UNL     1       7.700   4.630  16.579  0.00  0.00    +0.000 NA
ATOM     16  N   UNL     1       7.160   5.003  17.734  0.00  0.00    +0.000 NA
BRANCH  14  17
ATOM     17  C   UNL     1       7.044   4.752  14.142  0.00  0.00    +0.000 C 
BRANCH  17  18
ATOM     18  C   UNL     1       6.025   3.759  13.563  0.00  0.00    +0.000 C 
BRANCH  18  19
ATOM     19  C   UNL     1       6.304   3.386  12.105  0.00  0.00    +0.000 C 
BRANCH  19  20
ATOM     20  N   UNL     1       5.905   2.003  11.863  0.00  0.00    +0.000 NA
ATOM     21  H   UNL     1       5.092   1.987  11.204  0.00  0.00    +0.000 HD
ATOM     22  H   UNL     1       5.586   1.583  12.767  0.00  0.00    +0.000 HD
ENDBRANCH  19  20
ENDBRANCH  18  19
ENDBRANCH  17  18
ENDBRANCH  14  17
ENDBRANCH   1  12
TORSDOF 7
ENDMDL
MODEL 7
REMARK VINA RESULT:      -6.6      1.502      2.311
REMARK  Name = 
REMARK  8 active torsions:
REMARK  status: ('A' for Active; 'I' for Inactive)
REMARK    1  A    between atoms: C_1  and  C_2
REMARK    2  A    between atoms: C_5  and  C_6
REMARK    3  A    between atoms: C_6  and  N_7
REMARK    4  A    between atoms: C_9  and  C_10
REMARK    5  A    between atoms: C_10  and  C_11
REMARK    6  A    between atoms: C_11  and  C_12
REMARK    7  A    between atoms: C_12  and  N_13
REMARK    8  A    between atoms: C_16  and  N_17
REMARK                            x       y       z     vdW  Elec       q    Type
REMARK                         _______ _______ _______ _____ _____    ______ ____
ROOT
ATOM      1  C   UNL     1       5.593   5.465  19.232  0.00  0.00    +0.000 C 
ENDROOT
BRANCH   1   6
ATOM      2  C   UNL     1       0.616   2.513  19.443  0.00  0.00    +0.000 C 
ATOM      3  C   UNL     1       1.881   3.302  19.443  0.00  0.00    +0.000 A 
ATOM      4  N   UNL     1       3.049   2.726  19.080  0.00  0.00    +0.000 NA
ATOM      5  C   UNL     1       4.196   3.445  19.040  0.00  0.00    +0.000 A 
ATOM      6  C   UNL     1       4.213   4.818  19.357  0.00  0.00    +0.000 A 
ATOM      7  C   UNL     1       2.961   5.403  19.729  0.00  0.00    +0.000 A 
ATOM      8  N   UNL     1       1.852   4.616  19.767  0.00  0.00    +0.000 NA
BRANCH   7   9
ATOM      9  N   UNL     1       2.765   6.778  20.009  0.00  0.00    +0.000 N 
ATOM     10  H   UNL     1       3.183   7.534  19.467  0.00  0.00    +0.000 HD
ATOM     11  H   UNL     1       2.051   7.052  20.698  0.00  0.00    +0.000 HD
ENDBRANCH   7   9
ENDBRANCH   1   6
BRANCH   1  12
ATOM     12  N   UNL     1       6.392   5.143  18.053  0.00  0.00    +0.000 N 
ATOM     13  C   UNL     1       6.032   5.344  16.774  0.00  0.00    +0.000 A 
ATOM     14  C   UNL     1       7.051   4.838  16.000  0.00  0.00    +0.000 A 
ATOM     15  N   UNL     1       7.995   4.339  16.824  0.00  0.00    +0.000 NA
ATOM     16  N   UNL     1       7.562   4.522  18.066  0.00  0.00    +0.000 NA
BRANCH  14  17
ATOM     17  C   UNL     1       7.102   4.783  14.502  0.00  0.00    +0.000 C 
BRANCH  17  18
ATOM     18  C   UNL     1       5.987   3.933  13.876  0.00  0.00    +0.000 C 
BRANCH  18  19
ATOM     19  C   UNL     1       6.138   3.756  12.363  0.00  0.00    +0.000 C 
BRANCH  19  20
ATOM     20  N   UNL     1       6.412   2.356  12.052  0.00  0.00    +0.000 NA
ATOM     21  H   UNL     1       6.374   2.217  11.016  0.00  0.00    +0.000 HD
ATOM     22  H   UNL     1       5.660   1.766  12.478  0.00  0.00    +0.000 HD
ENDBRANCH  19  20
ENDBRANCH  18  19
ENDBRANCH  17  18
ENDBRANCH  14  17
ENDBRANCH   1  12
TORSDOF 7
ENDMDL
MODEL 8
REMARK VINA RESULT:      -6.5      1.798      6.257
REMARK  Name = 
REMARK  8 active torsions:
REMARK  status: ('A' for Active; 'I' for Inactive)
REMARK    1  A    between atoms: C_1  and  C_2
REMARK    2  A    between atoms: C_5  and  C_6
REMARK    3  A    between atoms: C_6  and  N_7
REMARK    4  A    between atoms: C_9  and  C_10
REMARK    5  A    between atoms: C_10  and  C_11
REMARK    6  A    between atoms: C_11  and  C_12
REMARK    7  A    between atoms: C_12  and  N_13
REMARK    8  A    between atoms: C_16  and  N_17
REMARK                            x       y       z     vdW  Elec       q    Type
REMARK                         _______ _______ _______ _____ _____    ______ ____
ROOT
ATOM      1  C   UNL     1       5.905   5.004  18.603  0.00  0.00    +0.000 C 
ENDROOT
BRANCH   1   6
ATOM      2  C   UNL     1       6.949   4.275  12.954  0.00  0.00    +0.000 C 
ATOM      3  C   UNL     1       6.670   4.525  14.398  0.00  0.00    +0.000 A 
ATOM      4  N   UNL     1       5.943   3.642  15.118  0.00  0.00    +0.000 NA
ATOM      5  C   UNL     1       5.718   3.841  16.439  0.00  0.00    +0.000 A 
ATOM      6  C   UNL     1       6.244   4.962  17.113  0.00  0.00    +0.000 A 
ATOM      7  C   UNL     1       7.017   5.875  16.326  0.00  0.00    +0.000 A 
ATOM      8  N   UNL     1       7.186   5.622  15.000  0.00  0.00    +0.000 NA
BRANCH   7   9
ATOM      9  N   UNL     1       7.685   7.014  16.839  0.00  0.00    +0.000 N 
ATOM     10  H   UNL     1       8.401   6.975  17.564  0.00  0.00    +0.000 HD
ATOM     11  H   UNL     1       7.564   7.920  16.365  0.00  0.00    +0.000 HD
ENDBRANCH   7   9
ENDBRANCH   1   6
BRANCH   1  12
ATOM     12  N   UNL     1       4.523   5.291  18.979  0.00  0.00    +0.000 N 
ATOM     13  C   UNL     1       3.757   4.553  19.800  0.00  0.00    +0.000 A 
ATOM     14  C   UNL     1       2.520   5.153  19.819  0.00  0.00    +0.000 A 
ATOM     15  N   UNL     1       2.563   6.230  19.008  0.00  0.00    +0.000 NA
ATOM     16  N   UNL     1       3.788   6.282  18.497  0.00  0.00    +0.000 NA
BRANCH  14  17
ATOM     17  C   UNL     1       1.300   4.681  20.555  0.00  0.00    +0.000 C 
BRANCH  17  18
ATOM     18  C   UNL     1       1.028   3.177  20.399  0.00  0.00    +0.000 C 
BRANCH  18  19
ATOM     19  C   UNL     1       0.933   2.727  18.939  0.00  0.00    +0.000 C 
BRANCH  19  20
ATOM     20  N   UNL     1       1.810   1.582  18.715  0.00  0.00    +0.000 NA
ATOM     21  H   UNL     1       2.805   1.906  18.693  0.00  0.00    +0.000 HD
ATOM     22  H   UNL     1       1.592   1.173  17.776  0.00  0.00    +0.000 HD
ENDBRANCH  19  20
ENDBRANCH  18  19
ENDBRANCH  17  18
ENDBRANCH  14  17
ENDBRANCH   1  12
TORSDOF 7
ENDMDL
MODEL 9
REMARK VINA RESULT:      -6.5      1.316      1.490
REMARK  Name = 
REMARK  8 active torsions:
REMARK  status: ('A' for Active; 'I' for Inactive)
REMARK    1  A    between atoms: C_1  and  C_2
REMARK    2  A    between atoms: C_5  and  C_6
REMARK    3  A    between atoms: C_6  and  N_7
REMARK    4  A    between atoms: C_9  and  C_10
REMARK    5  A    between atoms: C_10  and  C_11
REMARK    6  A    between atoms: C_11  and  C_12
REMARK    7  A    between atoms: C_12  and  N_13
REMARK    8  A    between atoms: C_16  and  N_17
REMARK                            x       y       z     vdW  Elec       q    Type
REMARK                         _______ _______ _______ _____ _____    ______ ____
ROOT
ATOM      1  C   UNL     1       6.846   4.786  17.407  0.00  0.00    +0.000 C 
ENDROOT
BRANCH   1   6
ATOM      2  C   UNL     1       1.962   6.101  20.226  0.00  0.00    +0.000 C 
ATOM      3  C   UNL     1       3.195   5.704  19.488  0.00  0.00    +0.000 A 
ATOM      4  N   UNL     1       3.818   6.584  18.671  0.00  0.00    +0.000 NA
ATOM      5  C   UNL     1       4.961   6.246  18.027  0.00  0.00    +0.000 A 
ATOM      6  C   UNL     1       5.549   4.975  18.195  0.00  0.00    +0.000 A 
ATOM      7  C   UNL     1       4.872   4.069  19.072  0.00  0.00    +0.000 A 
ATOM      8  N   UNL     1       3.718   4.470  19.670  0.00  0.00    +0.000 NA
BRANCH   7   9
ATOM      9  N   UNL     1       5.348   2.781  19.422  0.00  0.00    +0.000 N 
ATOM     10  H   UNL     1       5.460   2.016  18.757  0.00  0.00    +0.000 HD
ATOM     11  H   UNL     1       5.746   2.633  20.360  0.00  0.00    +0.000 HD
ENDBRANCH   7   9
ENDBRANCH   1   6
BRANCH   1  12
ATOM     12  N   UNL     1       6.758   4.752  15.950  0.00  0.00    +0.000 N 
ATOM     13  C   UNL     1       5.902   4.013  15.225  0.00  0.00    +0.000 A 
ATOM     14  C   UNL     1       6.213   4.243  13.905  0.00  0.00    +0.000 A 
ATOM     15  N   UNL     1       7.250   5.105  13.862  0.00  0.00    +0.000 NA
ATOM     16  N   UNL     1       7.573   5.386  15.119  0.00  0.00    +0.000 NA
BRANCH  14  17
ATOM     17  C   UNL     1       5.570   3.612  12.705  0.00  0.00    +0.000 C 
BRANCH  17  18
ATOM     18  C   UNL     1       6.510   2.691  11.913  0.00  0.00    +0.000 C 
BRANCH  18  19
ATOM     19  C   UNL     1       5.772   1.593  11.142  0.00  0.00    +0.000 C 
BRANCH  19  20
ATOM     20  N   UNL     1       6.510   0.337  11.240  0.00  0.00    +0.000 NA
ATOM     21  H   UNL     1       6.938   0.113  10.311  0.00  0.00    +0.000 HD
ATOM     22  H   UNL     1       5.836  -0.429  11.469  0.00  0.00    +0.000 HD
ENDBRANCH  19  20
ENDBRANCH  18  19
ENDBRANCH  17  18
ENDBRANCH  14  17
ENDBRANCH   1  12
TORSDOF 7
ENDMDL
