MODEL 1
REMARK VINA RESULT:      -9.3      0.000      0.000
REMARK  Name = 
REMARK  10 active torsions:
REMARK  status: ('A' for Active; 'I' for Inactive)
REMARK    1  A    between atoms: C_1  and  C_2
REMARK    2  A    between atoms: C_5  and  C_6
REMARK    3  A    between atoms: C_6  and  N_7
REMARK    4  A    between atoms: N_7  and  C_8
REMARK    5  A    between atoms: C_10  and  O_11
REMARK    6  A    between atoms: O_11  and  C_12
REMARK    7  A    between atoms: C_12  and  C_13
REMARK    8  A    between atoms: C_15  and  C_16
REMARK    9  A    between atoms: N_18  and  C_19
REMARK   10  A    between atoms: N_27  and  C_28
REMARK                            x       y       z     vdW  Elec       q    Type
REMARK                         _______ _______ _______ _____ _____    ______ ____
ROOT
ATOM      1  C   UNL     1       4.639   4.290  19.127  0.00  0.00    +0.000 A 
ATOM      2  C   UNL     1       4.184   5.537  19.292  0.00  0.00    +0.000 A 
ATOM      3  C   UNL     1       2.757   5.695  19.567  0.00  0.00    +0.000 A 
ATOM      4  N   UNL     1       1.876   4.756  19.654  0.00  0.00    +0.000 NA
ATOM      5  N   UNL     1       2.329   3.466  19.442  0.00  0.00    +0.000 N 
ATOM      6  C   UNL     1       1.347   2.401  19.515  0.00  0.00    +0.000 C 
ATOM      7  C   UNL     1       3.658   3.140  19.184  0.00  0.00    +0.000 A 
ATOM      8  O   UNL     1       4.077   1.995  19.008  0.00  0.00    +0.000 OA
ENDROOT
BRANCH   1   9
ATOM      9  N   UNL     1       5.977   3.989  18.830  0.00  0.00    +0.000 N 
ATOM     10  H   UNL     1       6.438   3.803  19.730  0.00  0.00    +0.000 HD
BRANCH   9  11
ATOM     11  C   UNL     1       6.824   4.996  18.153  0.00  0.00    +0.000 C 
BRANCH  11  16
ATOM     12  C   UNL     1       6.212   3.667  13.067  0.00  0.00    +0.000 C 
ATOM     13  C   UNL     1       6.583   4.275  14.370  0.00  0.00    +0.000 A 
ATOM     14  N   UNL     1       7.391   5.303  14.519  0.00  0.00    +0.000 NA
ATOM     15  N   UNL     1       7.558   5.649  15.845  0.00  0.00    +0.000 NA
ATOM     16  C   UNL     1       6.865   4.874  16.655  0.00  0.00    +0.000 A 
ATOM     17  S   UNL     1       5.967   3.647  15.845  0.00  0.00    +0.000 S 
ENDBRANCH  11  16
ENDBRANCH   9  11
ENDBRANCH   1   9
BRANCH   3  18
ATOM     18  O   UNL     1       2.490   7.016  19.748  0.00  0.00    +0.000 OA
BRANCH  18  19
ATOM     19  C   UNL     1       1.906   7.693  18.623  0.00  0.00    +0.000 C 
BRANCH  19  20
ATOM     20  C   UNL     1       1.367   9.047  18.990  0.00  0.00    +0.000 C 
ATOM     21  C   UNL     1       1.937  10.297  18.396  0.00  0.00    +0.000 C 
ATOM     22  C   UNL     1       0.512   9.898  18.059  0.00  0.00    +0.000 C 
BRANCH  22  23
ATOM     23  C   UNL     1      -0.649  10.687  18.673  0.00  0.00    +0.000 A 
ATOM     24  N   UNL     1      -0.643  11.204  19.906  0.00  0.00    +0.000 NA
ATOM     25  N   UNL     1      -1.857  11.772  20.021  0.00  0.00    +0.000 N 
ATOM     26  C   UNL     1      -2.218  12.494  21.218  0.00  0.00    +0.000 C 
ATOM     27  C   UNL     1      -2.662  11.608  18.912  0.00  0.00    +0.000 A 
ATOM     28  C   UNL     1      -3.984  11.988  18.638  0.00  0.00    +0.000 A 
ATOM     29  C   UNL     1      -4.502  11.656  17.382  0.00  0.00    +0.000 A 
ATOM     30  C   UNL     1      -3.726  10.987  16.439  0.00  0.00    +0.000 A 
ATOM     31  C   UNL     1      -2.409  10.614  16.729  0.00  0.00    +0.000 A 
ATOM     32  C   UNL     1      -1.874  10.920  17.992  0.00  0.00    +0.000 A 
ENDBRANCH  22  23
ENDBRANCH  19  20
ENDBRANCH  18  19
ENDBRANCH   3  18
TORSDOF 7
ENDMDL
MODEL 2
REMARK VINA RESULT:      -9.2      1.215      1.410
REMARK  Name = 
REMARK  10 active torsions:
REMARK  status: ('A' for Active; 'I' for Inactive)
REMARK    1  A    between atoms: C_1  and  C_2
REMARK    2  A    between atoms: C_5  and  C_6
REMARK    3  A    between atoms: C_6  and  N_7
REMARK    4  A    between atoms: N_7  and  C_8
REMARK    5  A    between atoms: C_10  and  O_11
REMARK    6  A    between atoms: O_11  and  C_12
REMARK    7  A    between atoms: C_12  and  C_13
REMARK    8  A    between atoms: C_15  and  C_16
REMARK    9  A    between atoms: N_18  and  C_19
REMARK   10  A    between atoms: N_27  and  C_28
REMARK                            x       y       z     vdW  Elec       q    Type
REMARK                         _______ _______ _______ _____ _____    ______ ____
ROOT
ATOM      1  C   UNL     1       4.114   4.980  19.143  0.00  0.00    +0.000 A 
ATOM      2  C   UNL     1       3.323   5.865  19.759  0.00  0.00    +0.000 A 
ATOM      3  C   UNL     1       1.997   5.404  20.167  0.00  0.00    +0.000 A 
ATOM      4  N   UNL     1       1.494   4.229  19.982  0.00  0.00    +0.000 NA
ATOM      5  N   UNL     1       2.289   3.320  19.307  0.00  0.00    +0.000 N 
ATOM      6  C   UNL     1       1.730   2.001  19.073  0.00  0.00    +0.000 C 
ATOM      7  C   UNL     1       3.580   3.592  18.864  0.00  0.00    +0.000 A 
ATOM      8  O   UNL     1       4.303   2.787  18.275  0.00  0.00    +0.000 OA
ENDROOT
BRANCH   1   9
ATOM      9  N   UNL     1       5.398   5.290  18.671  0.00  0.00    +0.000 N 
ATOM     10  H   UNL     1       5.912   5.687  19.468  0.00  0.00    +0.000 HD
BRANCH   9  11
ATOM     11  C   UNL     1       5.562   6.266  17.571  0.00  0.00    +0.000 C 
BRANCH  11  16
ATOM     12  C   UNL     1       6.430   3.757  12.993  0.00  0.00    +0.000 C 
ATOM     13  C   UNL     1       6.500   4.561  14.239  0.00  0.00    +0.000 A 
ATOM     14  N   UNL     1       7.558   5.232  14.644  0.00  0.00    +0.000 NA
ATOM     15  N   UNL     1       7.337   5.883  15.841  0.00  0.00    +0.000 NA
ATOM     16  C   UNL     1       6.117   5.687  16.299  0.00  0.00    +0.000 A 
ATOM     17  S   UNL     1       5.152   4.670  15.297  0.00  0.00    +0.000 S 
ENDBRANCH  11  16
ENDBRANCH   9  11
ENDBRANCH   1   9
BRANCH   3  18
ATOM     18  O   UNL     1       1.360   6.418  20.812  0.00  0.00    +0.000 OA
BRANCH  18  19
ATOM     19  C   UNL     1       1.717   7.744  20.390  0.00  0.00    +0.000 C 
BRANCH  19  20
ATOM     20  C   UNL     1       0.691   8.765  20.793  0.00  0.00    +0.000 C 
ATOM     21  C   UNL     1       0.981   9.784  21.852  0.00  0.00    +0.000 C 
ATOM     22  C   UNL     1       0.773  10.241  20.419  0.00  0.00    +0.000 C 
BRANCH  22  23
ATOM     23  C   UNL     1      -0.527  10.960  20.048  0.00  0.00    +0.000 A 
ATOM     24  N   UNL     1      -1.135  11.868  20.818  0.00  0.00    +0.000 NA
ATOM     25  N   UNL     1      -2.234  12.200  20.116  0.00  0.00    +0.000 N 
ATOM     26  C   UNL     1      -3.138  13.214  20.605  0.00  0.00    +0.000 C 
ATOM     27  C   UNL     1      -2.373  11.508  18.930  0.00  0.00    +0.000 A 
ATOM     28  C   UNL     1      -3.371  11.511  17.945  0.00  0.00    +0.000 A 
ATOM     29  C   UNL     1      -3.192  10.667  16.844  0.00  0.00    +0.000 A 
ATOM     30  C   UNL     1      -2.056   9.869  16.728  0.00  0.00    +0.000 A 
ATOM     31  C   UNL     1      -1.069   9.878  17.720  0.00  0.00    +0.000 A 
ATOM     32  C   UNL     1      -1.239  10.703  18.846  0.00  0.00    +0.000 A 
ENDBRANCH  22  23
ENDBRANCH  19  20
ENDBRANCH  18  19
ENDBRANCH   3  18
TORSDOF 7
ENDMDL
MODEL 3
REMARK VINA RESULT:      -8.8      1.712      2.336
REMARK  Name = 
REMARK  10 active torsions:
REMARK  status: ('A' for Active; 'I' for Inactive)
REMARK    1  A    between atoms: C_1  and  C_2
REMARK    2  A    between atoms: C_5  and  C_6
REMARK    3  A    between atoms: C_6  and  N_7
REMARK    4  A    between atoms: N_7  and  C_8
REMARK    5  A    between atoms: C_10  and  O_11
REMARK    6  A    between atoms: O_11  and  C_12
REMARK    7  A    between atoms: C_12  and  C_13
REMARK    8  A    between atoms: C_15  and  C_16
REMARK    9  A    between atoms: N_18  and  C_19
REMARK   10  A    between atoms: N_27  and  C_28
REMARK                            x       y       z     vdW  Elec       q    Type
REMARK                         _______ _______ _______ _____ _____    ______ ____
ROOT
ATOM      1  C   UNL     1       4.027   4.001  19.236  0.00  0.00    +0.000 A 
ATOM      2  C   UNL     1       3.583   5.083  19.883  0.00  0.00    +0.000 A 
ATOM      3  C   UNL     1       2.150   5.152  20.165  0.00  0.00    +0.000 A 
ATOM      4  N   UNL     1       1.255   4.281  19.842  0.00  0.00    +0.000 NA
ATOM      5  N   UNL     1       1.698   3.177  19.134  0.00  0.00    +0.000 N 
ATOM      6  C   UNL     1       0.700   2.199  18.745  0.00  0.00    +0.000 C 
ATOM      7  C   UNL     1       3.029   2.952  18.797  0.00  0.00    +0.000 A 
ATOM      8  O   UNL     1       3.438   1.966  18.180  0.00  0.00    +0.000 OA
ENDROOT
BRANCH   1   9
ATOM      9  N   UNL     1       5.369   3.814  18.873  0.00  0.00    +0.000 N 
ATOM     10  H   UNL     1       5.929   4.350  19.549  0.00  0.00    +0.000 HD
BRANCH   9  11
ATOM     11  C   UNL     1       5.838   4.250  17.539  0.00  0.00    +0.000 C 
BRANCH  11  16
ATOM     12  C   UNL     1       8.623   8.659  18.440  0.00  0.00    +0.000 C 
ATOM     13  C   UNL     1       7.733   7.590  17.923  0.00  0.00    +0.000 A 
ATOM     14  N   UNL     1       6.995   7.683  16.836  0.00  0.00    +0.000 NA
ATOM     15  N   UNL     1       6.263   6.537  16.601  0.00  0.00    +0.000 NA
ATOM     16  C   UNL     1       6.475   5.612  17.515  0.00  0.00    +0.000 A 
ATOM     17  S   UNL     1       7.582   6.091  18.746  0.00  0.00    +0.000 S 
ENDBRANCH  11  16
ENDBRANCH   9  11
ENDBRANCH   1   9
BRANCH   3  18
ATOM     18  O   UNL     1       1.896   6.292  20.862  0.00  0.00    +0.000 OA
BRANCH  18  19
ATOM     19  C   UNL     1       1.869   7.501  20.087  0.00  0.00    +0.000 C 
BRANCH  19  20
ATOM     20  C   UNL     1       0.872   8.494  20.616  0.00  0.00    +0.000 C 
ATOM     21  C   UNL     1       1.216   9.414  21.746  0.00  0.00    +0.000 C 
ATOM     22  C   UNL     1       0.961   9.996  20.368  0.00  0.00    +0.000 C 
BRANCH  22  23
ATOM     23  C   UNL     1      -0.343  10.758  20.109  0.00  0.00    +0.000 A 
ATOM     24  N   UNL     1      -0.907  11.606  20.977  0.00  0.00    +0.000 NA
ATOM     25  N   UNL     1      -2.028  12.006  20.349  0.00  0.00    +0.000 N 
ATOM     26  C   UNL     1      -2.897  12.986  20.955  0.00  0.00    +0.000 C 
ATOM     27  C   UNL     1      -2.223  11.417  19.116  0.00  0.00    +0.000 A 
ATOM     28  C   UNL     1      -3.260  11.512  18.176  0.00  0.00    +0.000 A 
ATOM     29  C   UNL     1      -3.135  10.761  17.003  0.00  0.00    +0.000 A 
ATOM     30  C   UNL     1      -2.016   9.963  16.775  0.00  0.00    +0.000 A 
ATOM     31  C   UNL     1      -0.992   9.879  17.725  0.00  0.00    +0.000 A 
ATOM     32  C   UNL     1      -1.105  10.610  18.921  0.00  0.00    +0.000 A 
ENDBRANCH  22  23
ENDBRANCH  19  20
ENDBRANCH  18  19
ENDBRANCH   3  18
TORSDOF 7
ENDMDL
MODEL 4
REMARK VINA RESULT:      -8.8      1.329      2.495
REMARK  Name = 
REMARK  10 active torsions:
REMARK  status: ('A' for Active; 'I' for Inactive)
REMARK    1  A    between atoms: C_1  and  C_2
REMARK    2  A    between atoms: C_5  and  C_6
REMARK    3  A    between atoms: C_6  and  N_7
REMARK    4  A    between atoms: N_7  and  C_8
REMARK    5  A    between atoms: C_10  and  O_11
REMARK    6  A    between atoms: O_11  and  C_12
REMARK    7  A    between atoms: C_12  and  C_13
REMARK    8  A    between atoms: C_15  and  C_16
REMARK    9  A    between atoms: N_18  and  C_19
REMARK   10  A    between atoms: N_27  and  C_28
REMARK                            x       y       z     vdW  Elec       q    Type
REMARK                         _______ _______ _______ _____ _____    ______ ____
ROOT
ATOM      1  C   UNL     1       4.457   4.620  19.332  0.00  0.00    +0.000 A 
ATOM      2  C   UNL     1       3.834   5.802  19.373  0.00  0.00    +0.000 A 
ATOM      3  C   UNL     1       2.415   5.797  19.725  0.00  0.00    +0.000 A 
ATOM      4  N   UNL     1       1.686   4.766  19.989  0.00  0.00    +0.000 NA
ATOM      5  N   UNL     1       2.311   3.534  19.908  0.00  0.00    +0.000 N 
ATOM      6  C   UNL     1       1.500   2.363  20.182  0.00  0.00    +0.000 C 
ATOM      7  C   UNL     1       3.658   3.364  19.600  0.00  0.00    +0.000 A 
ATOM      8  O   UNL     1       4.230   2.273  19.539  0.00  0.00    +0.000 OA
ENDROOT
BRANCH   1   9
ATOM      9  N   UNL     1       5.807   4.469  18.981  0.00  0.00    +0.000 N 
ATOM     10  H   UNL     1       6.329   4.394  19.864  0.00  0.00    +0.000 HD
BRANCH   9  11
ATOM     11  C   UNL     1       6.489   5.532  18.210  0.00  0.00    +0.000 C 
BRANCH  11  16
ATOM     12  C   UNL     1       6.154   3.722  13.247  0.00  0.00    +0.000 C 
ATOM     13  C   UNL     1       6.486   4.423  14.513  0.00  0.00    +0.000 A 
ATOM     14  N   UNL     1       7.405   5.357  14.639  0.00  0.00    +0.000 NA
ATOM     15  N   UNL     1       7.500   5.828  15.933  0.00  0.00    +0.000 NA
ATOM     16  C   UNL     1       6.644   5.238  16.743  0.00  0.00    +0.000 A 
ATOM     17  S   UNL     1       5.668   4.044  15.974  0.00  0.00    +0.000 S 
ENDBRANCH  11  16
ENDBRANCH   9  11
ENDBRANCH   1   9
BRANCH   3  18
ATOM     18  O   UNL     1       1.968   7.082  19.759  0.00  0.00    +0.000 OA
BRANCH  18  19
ATOM     19  C   UNL     1       1.911   7.686  21.061  0.00  0.00    +0.000 C 
BRANCH  19  20
ATOM     20  C   UNL     1       0.683   8.533  21.242  0.00  0.00    +0.000 C 
ATOM     21  C   UNL     1       0.424   9.263  22.523  0.00  0.00    +0.000 C 
ATOM     22  C   UNL     1       0.701  10.057  21.260  0.00  0.00    +0.000 C 
BRANCH  22  23
ATOM     23  C   UNL     1      -0.452  10.796  20.575  0.00  0.00    +0.000 A 
ATOM     24  N   UNL     1      -0.732  10.716  19.269  0.00  0.00    +0.000 NA
ATOM     25  N   UNL     1      -1.786  11.539  19.117  0.00  0.00    +0.000 N 
ATOM     26  C   UNL     1      -2.423  11.682  17.830  0.00  0.00    +0.000 C 
ATOM     27  C   UNL     1      -2.175  12.175  20.279  0.00  0.00    +0.000 A 
ATOM     28  C   UNL     1      -3.169  13.127  20.547  0.00  0.00    +0.000 A 
ATOM     29  C   UNL     1      -3.296  13.569  21.868  0.00  0.00    +0.000 A 
ATOM     30  C   UNL     1      -2.474  13.070  22.875  0.00  0.00    +0.000 A 
ATOM     31  C   UNL     1      -1.485  12.121  22.589  0.00  0.00    +0.000 A 
ATOM     32  C   UNL     1      -1.327  11.677  21.265  0.00  0.00    +0.000 A 
ENDBRANCH  22  23
ENDBRANCH  19  20
ENDBRANCH  18  19
ENDBRANCH   3  18
TORSDOF 7
ENDMDL
MODEL 5
REMARK VINA RESULT:      -8.8      1.836      2.705
REMARK  Name = 
REMARK  10 active torsions:
REMARK  status: ('A' for Active; 'I' for Inactive)
REMARK    1  A    between atoms: C_1  and  C_2
REMARK    2  A    between atoms: C_5  and  C_6
REMARK    3  A    between atoms: C_6  and  N_7
REMARK    4  A    between atoms: N_7  and  C_8
REMARK    5  A    between atoms: C_10  and  O_11
REMARK    6  A    between atoms: O_11  and  C_12
REMARK    7  A    between atoms: C_12  and  C_13
REMARK    8  A    between atoms: C_15  and  C_16
REMARK    9  A    between atoms: N_18  and  C_19
REMARK   10  A    between atoms: N_27  and  C_28
REMARK                            x       y       z     vdW  Elec       q    Type
REMARK                         _______ _______ _______ _____ _____    ______ ____
ROOT
ATOM      1  C   UNL     1       4.515   4.338  19.179  0.00  0.00    +0.000 A 
ATOM      2  C   UNL     1       4.008   5.556  19.393  0.00  0.00    +0.000 A 
ATOM      3  C   UNL     1       2.581   5.639  19.703  0.00  0.00    +0.000 A 
ATOM      4  N   UNL     1       1.746   4.657  19.778  0.00  0.00    +0.000 NA
ATOM      5  N   UNL     1       2.254   3.397  19.516  0.00  0.00    +0.000 N 
ATOM      6  C   UNL     1       1.324   2.285  19.576  0.00  0.00    +0.000 C 
ATOM      7  C   UNL     1       3.589   3.142  19.220  0.00  0.00    +0.000 A 
ATOM      8  O   UNL     1       4.057   2.023  18.999  0.00  0.00    +0.000 OA
ENDROOT
BRANCH   1   9
ATOM      9  N   UNL     1       5.859   4.108  18.844  0.00  0.00    +0.000 N 
ATOM     10  H   UNL     1       6.354   3.944  19.731  0.00  0.00    +0.000 HD
BRANCH   9  11
ATOM     11  C   UNL     1       6.633   5.161  18.150  0.00  0.00    +0.000 C 
BRANCH  11  16
ATOM     12  C   UNL     1       6.151   3.716  13.081  0.00  0.00    +0.000 C 
ATOM     13  C   UNL     1       6.519   4.326  14.383  0.00  0.00    +0.000 A 
ATOM     14  N   UNL     1       7.437   5.254  14.549  0.00  0.00    +0.000 NA
ATOM     15  N   UNL     1       7.570   5.630  15.870  0.00  0.00    +0.000 NA
ATOM     16  C   UNL     1       6.743   4.976  16.661  0.00  0.00    +0.000 A 
ATOM     17  S   UNL     1       5.749   3.834  15.838  0.00  0.00    +0.000 S 
ENDBRANCH  11  16
ENDBRANCH   9  11
ENDBRANCH   1   9
BRANCH   3  18
ATOM     18  O   UNL     1       2.258   6.940  19.931  0.00  0.00    +0.000 OA
BRANCH  18  19
ATOM     19  C   UNL     1       1.533   7.197  21.144  0.00  0.00    +0.000 C 
BRANCH  19  20
ATOM     20  C   UNL     1       0.533   8.308  20.986  0.00  0.00    +0.000 C 
ATOM     21  C   UNL     1       0.069   9.110  22.162  0.00  0.00    +0.000 C 
ATOM     22  C   UNL     1       0.890   9.787  21.079  0.00  0.00    +0.000 C 
BRANCH  22  23
ATOM     23  C   UNL     1       0.198  10.754  20.113  0.00  0.00    +0.000 A 
ATOM     24  N   UNL     1      -0.762  10.403  19.251  0.00  0.00    +0.000 NA
ATOM     25  N   UNL     1      -1.043  11.548  18.602  0.00  0.00    +0.000 N 
ATOM     26  C   UNL     1      -2.089  11.588  17.608  0.00  0.00    +0.000 C 
ATOM     27  C   UNL     1      -0.270  12.621  18.995  0.00  0.00    +0.000 A 
ATOM     28  C   UNL     1      -0.203  13.950  18.553  0.00  0.00    +0.000 A 
ATOM     29  C   UNL     1       0.715  14.794  19.186  0.00  0.00    +0.000 A 
ATOM     30  C   UNL     1       1.519  14.330  20.225  0.00  0.00    +0.000 A 
ATOM     31  C   UNL     1       1.441  13.000  20.653  0.00  0.00    +0.000 A 
ATOM     32  C   UNL     1       0.539  12.129  20.017  0.00  0.00    +0.000 A 
ENDBRANCH  22  23
ENDBRANCH  19  20
ENDBRANCH  18  19
ENDBRANCH   3  18
TORSDOF 7
ENDMDL
MODEL 6
REMARK VINA RESULT:      -8.6      1.958      2.690
REMARK  Name = 
REMARK  10 active torsions:
REMARK  status: ('A' for Active; 'I' for Inactive)
REMARK    1  A    between atoms: C_1  and  C_2
REMARK    2  A    between atoms: C_5  and  C_6
REMARK    3  A    between atoms: C_6  and  N_7
REMARK    4  A    between atoms: N_7  and  C_8
REMARK    5  A    between atoms: C_10  and  O_11
REMARK    6  A    between atoms: O_11  and  C_12
REMARK    7  A    between atoms: C_12  and  C_13
REMARK    8  A    between atoms: C_15  and  C_16
REMARK    9  A    between atoms: N_18  and  C_19
REMARK   10  A    between atoms: N_27  and  C_28
REMARK                            x       y       z     vdW  Elec       q    Type
REMARK                         _______ _______ _______ _____ _____    ______ ____
ROOT
ATOM      1  C   UNL     1       2.955   4.806  18.405  0.00  0.00    +0.000 A 
ATOM      2  C   UNL     1       2.562   6.057  18.661  0.00  0.00    +0.000 A 
ATOM      3  C   UNL     1       2.000   6.323  19.984  0.00  0.00    +0.000 A 
ATOM      4  N   UNL     1       1.825   5.470  20.937  0.00  0.00    +0.000 NA
ATOM      5  N   UNL     1       2.190   4.163  20.666  0.00  0.00    +0.000 N 
ATOM      6  C   UNL     1       1.981   3.187  21.720  0.00  0.00    +0.000 C 
ATOM      7  C   UNL     1       2.753   3.745  19.464  0.00  0.00    +0.000 A 
ATOM      8  O   UNL     1       3.095   2.587  19.216  0.00  0.00    +0.000 OA
ENDROOT
BRANCH   1   9
ATOM      9  N   UNL     1       3.485   4.399  17.170  0.00  0.00    +0.000 N 
ATOM     10  H   UNL     1       2.896   3.622  16.845  0.00  0.00    +0.000 HD
BRANCH   9  11
ATOM     11  C   UNL     1       4.875   3.899  17.096  0.00  0.00    +0.000 C 
BRANCH  11  16
ATOM     12  C   UNL     1       8.041   8.059  17.922  0.00  0.00    +0.000 C 
ATOM     13  C   UNL     1       7.335   6.753  17.931  0.00  0.00    +0.000 A 
ATOM     14  N   UNL     1       7.630   5.742  18.720  0.00  0.00    +0.000 NA
ATOM     15  N   UNL     1       6.810   4.653  18.503  0.00  0.00    +0.000 NA
ATOM     16  C   UNL     1       5.918   4.879  17.560  0.00  0.00    +0.000 A 
ATOM     17  S   UNL     1       6.032   6.447  16.855  0.00  0.00    +0.000 S 
ENDBRANCH  11  16
ENDBRANCH   9  11
ENDBRANCH   1   9
BRANCH   3  18
ATOM     18  O   UNL     1       1.701   7.646  20.075  0.00  0.00    +0.000 OA
BRANCH  18  19
ATOM     19  C   UNL     1       1.538   8.157  21.408  0.00  0.00    +0.000 C 
BRANCH  19  20
ATOM     20  C   UNL     1       0.296   8.991  21.550  0.00  0.00    +0.000 C 
ATOM     21  C   UNL     1       0.038   9.798  22.785  0.00  0.00    +0.000 C 
ATOM     22  C   UNL     1       0.284  10.513  21.469  0.00  0.00    +0.000 C 
BRANCH  22  23
ATOM     23  C   UNL     1      -0.891  11.184  20.753  0.00  0.00    +0.000 A 
ATOM     24  N   UNL     1      -1.707  12.082  21.318  0.00  0.00    +0.000 NA
ATOM     25  N   UNL     1      -2.591  12.368  20.344  0.00  0.00    +0.000 N 
ATOM     26  C   UNL     1      -3.620  13.358  20.557  0.00  0.00    +0.000 C 
ATOM     27  C   UNL     1      -2.392  11.657  19.178  0.00  0.00    +0.000 A 
ATOM     28  C   UNL     1      -3.096  11.614  17.966  0.00  0.00    +0.000 A 
ATOM     29  C   UNL     1      -2.608  10.764  16.969  0.00  0.00    +0.000 A 
ATOM     30  C   UNL     1      -1.460  10.002  17.172  0.00  0.00    +0.000 A 
ATOM     31  C   UNL     1      -0.770  10.055  18.389  0.00  0.00    +0.000 A 
ATOM     32  C   UNL     1      -1.254  10.889  19.413  0.00  0.00    +0.000 A 
ENDBRANCH  22  23
ENDBRANCH  19  20
ENDBRANCH  18  19
ENDBRANCH   3  18
TORSDOF 7
ENDMDL
MODEL 7
REMARK VINA RESULT:      -8.6      1.221      1.293
REMARK  Name = 
REMARK  10 active torsions:
REMARK  status: ('A' for Active; 'I' for Inactive)
REMARK    1  A    between atoms: C_1  and  C_2
REMARK    2  A    between atoms: C_5  and  C_6
REMARK    3  A    between atoms: C_6  and  N_7
REMARK    4  A    between atoms: N_7  and  C_8
REMARK    5  A    between atoms: C_10  and  O_11
REMARK    6  A    between atoms: O_11  and  C_12
REMARK    7  A    between atoms: C_12  and  C_13
REMARK    8  A    between atoms: C_15  and  C_16
REMARK    9  A    between atoms: N_18  and  C_19
REMARK   10  A    between atoms: N_27  and  C_28
REMARK                            x       y       z     vdW  Elec       q    Type
REMARK                         _______ _______ _______ _____ _____    ______ ____
ROOT
ATOM      1  C   UNL     1       3.989   4.274  18.734  0.00  0.00    +0.000 A 
ATOM      2  C   UNL     1       3.640   5.561  18.641  0.00  0.00    +0.000 A 
ATOM      3  C   UNL     1       2.672   6.063  19.615  0.00  0.00    +0.000 A 
ATOM      4  N   UNL     1       2.100   5.389  20.556  0.00  0.00    +0.000 NA
ATOM      5  N   UNL     1       2.423   4.046  20.633  0.00  0.00    +0.000 N 
ATOM      6  C   UNL     1       1.772   3.269  21.672  0.00  0.00    +0.000 C 
ATOM      7  C   UNL     1       3.335   3.415  19.793  0.00  0.00    +0.000 A 
ATOM      8  O   UNL     1       3.642   2.223  19.861  0.00  0.00    +0.000 OA
ENDROOT
BRANCH   1   9
ATOM      9  N   UNL     1       4.883   3.650  17.850  0.00  0.00    +0.000 N 
ATOM     10  H   UNL     1       5.798   4.092  18.006  0.00  0.00    +0.000 HD
BRANCH   9  11
ATOM     11  C   UNL     1       4.650   3.729  16.391  0.00  0.00    +0.000 C 
BRANCH  11  16
ATOM     12  C   UNL     1       8.101   5.370  12.730  0.00  0.00    +0.000 C 
ATOM     13  C   UNL     1       7.318   5.094  13.960  0.00  0.00    +0.000 A 
ATOM     14  N   UNL     1       7.591   5.582  15.152  0.00  0.00    +0.000 NA
ATOM     15  N   UNL     1       6.696   5.152  16.111  0.00  0.00    +0.000 NA
ATOM     16  C   UNL     1       5.772   4.356  15.611  0.00  0.00    +0.000 A 
ATOM     17  S   UNL     1       5.945   4.063  13.922  0.00  0.00    +0.000 S 
ENDBRANCH  11  16
ENDBRANCH   9  11
ENDBRANCH   1   9
BRANCH   3  18
ATOM     18  O   UNL     1       2.476   7.390  19.394  0.00  0.00    +0.000 OA
BRANCH  18  19
ATOM     19  C   UNL     1       1.678   8.073  20.375  0.00  0.00    +0.000 C 
BRANCH  19  20
ATOM     20  C   UNL     1       1.082   9.344  19.840  0.00  0.00    +0.000 C 
ATOM     21  C   UNL     1       1.493   9.896  18.510  0.00  0.00    +0.000 C 
ATOM     22  C   UNL     1       0.074   9.390  18.697  0.00  0.00    +0.000 C 
BRANCH  22  23
ATOM     23  C   UNL     1      -1.072  10.402  18.792  0.00  0.00    +0.000 A 
ATOM     24  N   UNL     1      -1.246  11.253  19.809  0.00  0.00    +0.000 NA
ATOM     25  N   UNL     1      -2.374  11.913  19.484  0.00  0.00    +0.000 N 
ATOM     26  C   UNL     1      -2.870  12.974  20.327  0.00  0.00    +0.000 C 
ATOM     27  C   UNL     1      -2.953  11.489  18.305  0.00  0.00    +0.000 A 
ATOM     28  C   UNL     1      -4.131  11.863  17.643  0.00  0.00    +0.000 A 
ATOM     29  C   UNL     1      -4.425  11.217  16.438  0.00  0.00    +0.000 A 
ATOM     30  C   UNL     1      -3.570  10.250  15.914  0.00  0.00    +0.000 A 
ATOM     31  C   UNL     1      -2.399   9.888  16.588  0.00  0.00    +0.000 A 
ATOM     32  C   UNL     1      -2.093  10.510  17.811  0.00  0.00    +0.000 A 
ENDBRANCH  22  23
ENDBRANCH  19  20
ENDBRANCH  18  19
ENDBRANCH   3  18
TORSDOF 7
ENDMDL
MODEL 8
REMARK VINA RESULT:      -8.6      1.929      2.487
REMARK  Name = 
REMARK  10 active torsions:
REMARK  status: ('A' for Active; 'I' for Inactive)
REMARK    1  A    between atoms: C_1  and  C_2
REMARK    2  A    between atoms: C_5  and  C_6
REMARK    3  A    between atoms: C_6  and  N_7
REMARK    4  A    between atoms: N_7  and  C_8
REMARK    5  A    between atoms: C_10  and  O_11
REMARK    6  A    between atoms: O_11  and  C_12
REMARK    7  A    between atoms: C_12  and  C_13
REMARK    8  A    between atoms: C_15  and  C_16
REMARK    9  A    between atoms: N_18  and  C_19
REMARK   10  A    between atoms: N_27  and  C_28
REMARK                            x       y       z     vdW  Elec       q    Type
REMARK                         _______ _______ _______ _____ _____    ______ ____
ROOT
ATOM      1  C   UNL     1       3.163   4.710  18.177  0.00  0.00    +0.000 A 
ATOM      2  C   UNL     1       2.875   5.694  19.035  0.00  0.00    +0.000 A 
ATOM      3  C   UNL     1       1.801   5.448  19.996  0.00  0.00    +0.000 A 
ATOM      4  N   UNL     1       1.083   4.380  20.099  0.00  0.00    +0.000 NA
ATOM      5  N   UNL     1       1.345   3.373  19.188  0.00  0.00    +0.000 N 
ATOM      6  C   UNL     1       0.533   2.174  19.277  0.00  0.00    +0.000 C 
ATOM      7  C   UNL     1       2.341   3.440  18.218  0.00  0.00    +0.000 A 
ATOM      8  O   UNL     1       2.594   2.545  17.410  0.00  0.00    +0.000 OA
ENDROOT
BRANCH   1   9
ATOM      9  N   UNL     1       4.146   4.816  17.181  0.00  0.00    +0.000 N 
ATOM     10  H   UNL     1       3.817   4.251  16.388  0.00  0.00    +0.000 HD
BRANCH   9  11
ATOM     11  C   UNL     1       5.523   4.346  17.455  0.00  0.00    +0.000 C 
BRANCH  11  16
ATOM     12  C   UNL     1       8.295   8.818  18.024  0.00  0.00    +0.000 C 
ATOM     13  C   UNL     1       7.730   7.447  18.091  0.00  0.00    +0.000 A 
ATOM     14  N   UNL     1       8.184   6.481  18.862  0.00  0.00    +0.000 NA
ATOM     15  N   UNL     1       7.467   5.311  18.712  0.00  0.00    +0.000 NA
ATOM     16  C   UNL     1       6.490   5.433  17.836  0.00  0.00    +0.000 A 
ATOM     17  S   UNL     1       6.390   6.995  17.116  0.00  0.00    +0.000 S 
ENDBRANCH  11  16
ENDBRANCH   9  11
ENDBRANCH   1   9
BRANCH   3  18
ATOM     18  O   UNL     1       1.683   6.533  20.807  0.00  0.00    +0.000 OA
BRANCH  18  19
ATOM     19  C   UNL     1       1.816   7.810  20.162  0.00  0.00    +0.000 C 
BRANCH  19  20
ATOM     20  C   UNL     1       0.779   8.793  20.626  0.00  0.00    +0.000 C 
ATOM     21  C   UNL     1       1.086   9.806  21.685  0.00  0.00    +0.000 C 
ATOM     22  C   UNL     1       0.799  10.275  20.271  0.00  0.00    +0.000 C 
BRANCH  22  23
ATOM     23  C   UNL     1      -0.539  10.959  19.969  0.00  0.00    +0.000 A 
ATOM     24  N   UNL     1      -1.154  11.814  20.794  0.00  0.00    +0.000 NA
ATOM     25  N   UNL     1      -2.287  12.130  20.141  0.00  0.00    +0.000 N 
ATOM     26  C   UNL     1      -3.210  13.089  20.697  0.00  0.00    +0.000 C 
ATOM     27  C   UNL     1      -2.440  11.478  18.933  0.00  0.00    +0.000 A 
ATOM     28  C   UNL     1      -3.470  11.480  17.982  0.00  0.00    +0.000 A 
ATOM     29  C   UNL     1      -3.297  10.686  16.844  0.00  0.00    +0.000 A 
ATOM     30  C   UNL     1      -2.137   9.937  16.660  0.00  0.00    +0.000 A 
ATOM     31  C   UNL     1      -1.119   9.945  17.620  0.00  0.00    +0.000 A 
ATOM     32  C   UNL     1      -1.281  10.721  18.782  0.00  0.00    +0.000 A 
ENDBRANCH  22  23
ENDBRANCH  19  20
ENDBRANCH  18  19
ENDBRANCH   3  18
TORSDOF 7
ENDMDL
MODEL 9
REMARK VINA RESULT:      -8.5      2.124      2.680
REMARK  Name = 
REMARK  10 active torsions:
REMARK  status: ('A' for Active; 'I' for Inactive)
REMARK    1  A    between atoms: C_1  and  C_2
REMARK    2  A    between atoms: C_5  and  C_6
REMARK    3  A    between atoms: C_6  and  N_7
REMARK    4  A    between atoms: N_7  and  C_8
REMARK    5  A    between atoms: C_10  and  O_11
REMARK    6  A    between atoms: O_11  and  C_12
REMARK    7  A    between atoms: C_12  and  C_13
REMARK    8  A    between atoms: C_15  and  C_16
REMARK    9  A    between atoms: N_18  and  C_19
REMARK   10  A    between atoms: N_27  and  C_28
REMARK                            x       y       z     vdW  Elec       q    Type
REMARK                         _______ _______ _______ _____ _____    ______ ____
ROOT
ATOM      1  C   UNL     1       4.722   4.177  19.259  0.00  0.00    +0.000 A 
ATOM      2  C   UNL     1       4.215   5.413  19.287  0.00  0.00    +0.000 A 
ATOM      3  C   UNL     1       2.925   5.591  19.950  0.00  0.00    +0.000 A 
ATOM      4  N   UNL     1       2.206   4.674  20.505  0.00  0.00    +0.000 NA
ATOM      5  N   UNL     1       2.702   3.384  20.445  0.00  0.00    +0.000 N 
ATOM      6  C   UNL     1       1.896   2.338  21.046  0.00  0.00    +0.000 C 
ATOM      7  C   UNL     1       3.920   3.045  19.863  0.00  0.00    +0.000 A 
ATOM      8  O   UNL     1       4.380   1.902  19.816  0.00  0.00    +0.000 OA
ENDROOT
BRANCH   1   9
ATOM      9  N   UNL     1       5.935   3.852  18.633  0.00  0.00    +0.000 N 
ATOM     10  H   UNL     1       6.541   3.456  19.364  0.00  0.00    +0.000 HD
BRANCH   9  11
ATOM     11  C   UNL     1       6.737   4.916  17.989  0.00  0.00    +0.000 C 
BRANCH  11  16
ATOM     12  C   UNL     1       6.134   3.770  12.858  0.00  0.00    +0.000 C 
ATOM     13  C   UNL     1       6.522   4.313  14.183  0.00  0.00    +0.000 A 
ATOM     14  N   UNL     1       7.404   5.271  14.377  0.00  0.00    +0.000 NA
ATOM     15  N   UNL     1       7.568   5.570  15.714  0.00  0.00    +0.000 NA
ATOM     16  C   UNL     1       6.801   4.830  16.489  0.00  0.00    +0.000 A 
ATOM     17  S   UNL     1       5.828   3.697  15.628  0.00  0.00    +0.000 S 
ENDBRANCH  11  16
ENDBRANCH   9  11
ENDBRANCH   1   9
BRANCH   3  18
ATOM     18  O   UNL     1       2.594   6.910  19.918  0.00  0.00    +0.000 OA
BRANCH  18  19
ATOM     19  C   UNL     1       2.294   7.444  18.618  0.00  0.00    +0.000 C 
BRANCH  19  20
ATOM     20  C   UNL     1       2.032   8.923  18.657  0.00  0.00    +0.000 C 
ATOM     21  C   UNL     1       1.343   9.621  17.526  0.00  0.00    +0.000 C 
ATOM     22  C   UNL     1       0.651   9.533  18.873  0.00  0.00    +0.000 C 
BRANCH  22  23
ATOM     23  C   UNL     1       0.550  10.789  19.744  0.00  0.00    +0.000 A 
ATOM     24  N   UNL     1      -0.207  10.888  20.843  0.00  0.00    +0.000 NA
ATOM     25  N   UNL     1      -0.010  12.154  21.254  0.00  0.00    +0.000 N 
ATOM     26  C   UNL     1      -0.628  12.635  22.466  0.00  0.00    +0.000 C 
ATOM     27  C   UNL     1       0.824  12.888  20.434  0.00  0.00    +0.000 A 
ATOM     28  C   UNL     1       1.244  14.225  20.467  0.00  0.00    +0.000 A 
ATOM     29  C   UNL     1       2.114  14.652  19.458  0.00  0.00    +0.000 A 
ATOM     30  C   UNL     1       2.553  13.774  18.470  0.00  0.00    +0.000 A 
ATOM     31  C   UNL     1       2.123  12.442  18.451  0.00  0.00    +0.000 A 
ATOM     32  C   UNL     1       1.233  11.997  19.444  0.00  0.00    +0.000 A 
ENDBRANCH  22  23
ENDBRANCH  19  20
ENDBRANCH  18  19
ENDBRANCH   3  18
TORSDOF 7
ENDMDL
