MODEL 1
REMARK VINA RESULT:      -7.8      0.000      0.000
REMARK  Name = 
REMARK  4 active torsions:
REMARK  status: ('A' for Active; 'I' for Inactive)
REMARK    1  A    between atoms: C_1  and  C_2
REMARK    2  A    between atoms: N_10  and  C_11
REMARK    3  A    between atoms: C_11  and  C_12
REMARK    4  A    between atoms: N_23  and  C_24
REMARK                            x       y       z     vdW  Elec       q    Type
REMARK                         _______ _______ _______ _____ _____    ______ ____
ROOT
ATOM      1  C   UNL     1      -3.177  14.012  20.469  0.00  0.00    +0.000 C 
ATOM      2  C   UNL     1      -2.230  12.856  20.473  0.00  0.00    +0.000 A 
ATOM      3  C   UNL     1      -1.805  12.106  21.553  0.00  0.00    +0.000 A 
ATOM      4  C   UNL     1      -0.897  11.095  21.125  0.00  0.00    +0.000 A 
ATOM      5  C   UNL     1      -0.673  11.112  19.776  0.00  0.00    +0.000 A 
ATOM      6  S   UNL     1      -1.555  12.357  18.971  0.00  0.00    +0.000 S 
ATOM      7  C   UNL     1       0.235  10.074  19.488  0.00  0.00    +0.000 A 
ATOM      8  C   UNL     1       0.795   9.662  18.248  0.00  0.00    +0.000 A 
ATOM      9  N   UNL     1       1.637   8.669  18.212  0.00  0.00    +0.000 NA
ATOM     10  N   UNL     1       1.976   8.010  19.414  0.00  0.00    +0.000 N 
ATOM     11  C   UNL     1       1.467   8.340  20.692  0.00  0.00    +0.000 A 
ATOM     12  O   UNL     1       1.779   7.736  21.717  0.00  0.00    +0.000 OA
ATOM     13  C   UNL     1       0.545   9.451  20.671  0.00  0.00    +0.000 A 
ATOM     14  N   UNL     1      -0.147  10.068  21.683  0.00  0.00    +0.000 N 
ATOM     15  C   UNL     1      -0.152   9.767  23.092  0.00  0.00    +0.000 C 
ENDROOT
BRANCH  10  16
ATOM     16  C   UNL     1       2.937   6.920  19.294  0.00  0.00    +0.000 C 
BRANCH  16  17
ATOM     17  C   UNL     1       2.260   5.576  19.134  0.00  0.00    +0.000 A 
ATOM     18  C   UNL     1       2.092   5.006  17.861  0.00  0.00    +0.000 A 
ATOM     19  C   UNL     1       1.500   3.748  17.719  0.00  0.00    +0.000 A 
ATOM     20  C   UNL     1       1.085   3.052  18.849  0.00  0.00    +0.000 A 
ATOM     21  F   UNL     1       0.532   1.839  18.709  0.00  0.00    +0.000 F 
ATOM     22  C   UNL     1       1.246   3.605  20.113  0.00  0.00    +0.000 A 
ATOM     23  F   UNL     1       0.849   2.930  21.200  0.00  0.00    +0.000 F 
ATOM     24  C   UNL     1       1.827   4.861  20.262  0.00  0.00    +0.000 A 
ENDBRANCH  16  17
ENDBRANCH  10  16
TORSDOF 2
ENDMDL
MODEL 2
REMARK VINA RESULT:      -7.8      1.564      2.172
REMARK  Name = 
REMARK  4 active torsions:
REMARK  status: ('A' for Active; 'I' for Inactive)
REMARK    1  A    between atoms: C_1  and  C_2
REMARK    2  A    between atoms: N_10  and  C_11
REMARK    3  A    between atoms: C_11  and  C_12
REMARK    4  A    between atoms: N_23  and  C_24
REMARK                            x       y       z     vdW  Elec       q    Type
REMARK                         _______ _______ _______ _____ _____    ______ ____
ROOT
ATOM      1  C   UNL     1      -3.173  13.535  22.741  0.00  0.00    +0.000 C 
ATOM      2  C   UNL     1      -2.257  12.587  22.038  0.00  0.00    +0.000 A 
ATOM      3  C   UNL     1      -2.027  12.471  20.680  0.00  0.00    +0.000 A 
ATOM      4  C   UNL     1      -1.081  11.437  20.425  0.00  0.00    +0.000 A 
ATOM      5  C   UNL     1      -0.639  10.822  21.565  0.00  0.00    +0.000 A 
ATOM      6  S   UNL     1      -1.354  11.476  22.992  0.00  0.00    +0.000 S 
ATOM      7  C   UNL     1       0.280   9.829  21.176  0.00  0.00    +0.000 A 
ATOM      8  C   UNL     1       1.026   8.910  21.964  0.00  0.00    +0.000 A 
ATOM      9  N   UNL     1       1.822   8.055  21.388  0.00  0.00    +0.000 NA
ATOM     10  N   UNL     1       1.937   8.062  19.981  0.00  0.00    +0.000 N 
ATOM     11  C   UNL     1       1.246   8.940  19.114  0.00  0.00    +0.000 A 
ATOM     12  O   UNL     1       1.379   8.922  17.891  0.00  0.00    +0.000 OA
ATOM     13  C   UNL     1       0.374   9.859  19.808  0.00  0.00    +0.000 A 
ATOM     14  N   UNL     1      -0.457  10.845  19.335  0.00  0.00    +0.000 N 
ATOM     15  C   UNL     1      -0.694  11.256  17.975  0.00  0.00    +0.000 C 
ENDROOT
BRANCH  10  16
ATOM     16  C   UNL     1       2.835   7.066  19.409  0.00  0.00    +0.000 C 
BRANCH  16  17
ATOM     17  C   UNL     1       2.161   5.722  19.234  0.00  0.00    +0.000 A 
ATOM     18  C   UNL     1       1.971   5.178  17.952  0.00  0.00    +0.000 A 
ATOM     19  C   UNL     1       1.382   3.920  17.795  0.00  0.00    +0.000 A 
ATOM     20  C   UNL     1       0.992   3.199  18.918  0.00  0.00    +0.000 A 
ATOM     21  F   UNL     1       0.442   1.986  18.763  0.00  0.00    +0.000 F 
ATOM     22  C   UNL     1       1.175   3.726  20.190  0.00  0.00    +0.000 A 
ATOM     23  F   UNL     1       0.802   3.026  21.270  0.00  0.00    +0.000 F 
ATOM     24  C   UNL     1       1.753   4.981  20.355  0.00  0.00    +0.000 A 
ENDBRANCH  16  17
ENDBRANCH  10  16
TORSDOF 2
ENDMDL
MODEL 3
REMARK VINA RESULT:      -7.8      1.999      2.579
REMARK  Name = 
REMARK  4 active torsions:
REMARK  status: ('A' for Active; 'I' for Inactive)
REMARK    1  A    between atoms: C_1  and  C_2
REMARK    2  A    between atoms: N_10  and  C_11
REMARK    3  A    between atoms: C_11  and  C_12
REMARK    4  A    between atoms: N_23  and  C_24
REMARK                            x       y       z     vdW  Elec       q    Type
REMARK                         _______ _______ _______ _____ _____    ______ ____
ROOT
ATOM      1  C   UNL     1      -2.074  12.915  23.616  0.00  0.00    +0.000 C 
ATOM      2  C   UNL     1      -1.284  12.140  22.613  0.00  0.00    +0.000 A 
ATOM      3  C   UNL     1      -0.913  12.526  21.337  0.00  0.00    +0.000 A 
ATOM      4  C   UNL     1      -0.167  11.489  20.706  0.00  0.00    +0.000 A 
ATOM      5  C   UNL     1      -0.003  10.387  21.500  0.00  0.00    +0.000 A 
ATOM      6  S   UNL     1      -0.747  10.565  23.046  0.00  0.00    +0.000 S 
ATOM      7  C   UNL     1       0.742   9.446  20.763  0.00  0.00    +0.000 A 
ATOM      8  C   UNL     1       1.185   8.143  21.120  0.00  0.00    +0.000 A 
ATOM      9  N   UNL     1       1.862   7.429  20.266  0.00  0.00    +0.000 NA
ATOM     10  N   UNL     1       2.152   7.969  18.994  0.00  0.00    +0.000 N 
ATOM     11  C   UNL     1       1.764   9.255  18.550  0.00  0.00    +0.000 A 
ATOM     12  O   UNL     1       2.044   9.696  17.436  0.00  0.00    +0.000 OA
ATOM     13  C   UNL     1       1.012   9.997  19.535  0.00  0.00    +0.000 A 
ATOM     14  N   UNL     1       0.460  11.253  19.490  0.00  0.00    +0.000 N 
ATOM     15  C   UNL     1       0.483  12.216  18.418  0.00  0.00    +0.000 C 
ENDROOT
BRANCH  10  16
ATOM     16  C   UNL     1       2.899   7.104  18.089  0.00  0.00    +0.000 C 
BRANCH  16  17
ATOM     17  C   UNL     1       2.701   5.638  18.407  0.00  0.00    +0.000 A 
ATOM     18  C   UNL     1       1.581   4.943  17.919  0.00  0.00    +0.000 A 
ATOM     19  C   UNL     1       1.420   3.580  18.183  0.00  0.00    +0.000 A 
ATOM     20  C   UNL     1       2.383   2.906  18.925  0.00  0.00    +0.000 A 
ATOM     21  F   UNL     1       2.232   1.595  19.162  0.00  0.00    +0.000 F 
ATOM     22  C   UNL     1       3.495   3.581  19.412  0.00  0.00    +0.000 A 
ATOM     23  F   UNL     1       4.423   2.927  20.124  0.00  0.00    +0.000 F 
ATOM     24  C   UNL     1       3.658   4.940  19.161  0.00  0.00    +0.000 A 
ENDBRANCH  16  17
ENDBRANCH  10  16
TORSDOF 2
ENDMDL
MODEL 4
REMARK VINA RESULT:      -7.6      3.964      7.548
REMARK  Name = 
REMARK  4 active torsions:
REMARK  status: ('A' for Active; 'I' for Inactive)
REMARK    1  A    between atoms: C_1  and  C_2
REMARK    2  A    between atoms: N_10  and  C_11
REMARK    3  A    between atoms: C_11  and  C_12
REMARK    4  A    between atoms: N_23  and  C_24
REMARK                            x       y       z     vdW  Elec       q    Type
REMARK                         _______ _______ _______ _____ _____    ______ ____
ROOT
ATOM      1  C   UNL     1       4.269   2.142  20.059  0.00  0.00    +0.000 C 
ATOM      2  C   UNL     1       3.789   3.524  19.760  0.00  0.00    +0.000 A 
ATOM      3  C   UNL     1       4.115   4.325  18.680  0.00  0.00    +0.000 A 
ATOM      4  C   UNL     1       3.442   5.577  18.774  0.00  0.00    +0.000 A 
ATOM      5  C   UNL     1       2.652   5.680  19.886  0.00  0.00    +0.000 A 
ATOM      6  S   UNL     1       2.694   4.259  20.864  0.00  0.00    +0.000 S 
ATOM      7  C   UNL     1       2.051   6.953  19.858  0.00  0.00    +0.000 A 
ATOM      8  C   UNL     1       1.148   7.562  20.772  0.00  0.00    +0.000 A 
ATOM      9  N   UNL     1       0.720   8.773  20.555  0.00  0.00    +0.000 NA
ATOM     10  N   UNL     1       1.158   9.461  19.402  0.00  0.00    +0.000 N 
ATOM     11  C   UNL     1       2.047   8.939  18.433  0.00  0.00    +0.000 A 
ATOM     12  O   UNL     1       2.400   9.567  17.436  0.00  0.00    +0.000 OA
ATOM     13  C   UNL     1       2.493   7.598  18.731  0.00  0.00    +0.000 A 
ATOM     14  N   UNL     1       3.345   6.761  18.055  0.00  0.00    +0.000 N 
ATOM     15  C   UNL     1       4.051   6.990  16.819  0.00  0.00    +0.000 C 
ENDROOT
BRANCH  10  16
ATOM     16  C   UNL     1       0.648  10.817  19.237  0.00  0.00    +0.000 C 
BRANCH  16  17
ATOM     17  C   UNL     1      -0.779  10.834  18.736  0.00  0.00    +0.000 A 
ATOM     18  C   UNL     1      -1.738  11.671  19.332  0.00  0.00    +0.000 A 
ATOM     19  C   UNL     1      -3.046  11.713  18.843  0.00  0.00    +0.000 A 
ATOM     20  C   UNL     1      -3.398  10.926  17.752  0.00  0.00    +0.000 A 
ATOM     21  F   UNL     1      -4.650  10.982  17.277  0.00  0.00    +0.000 F 
ATOM     22  C   UNL     1      -2.459  10.096  17.154  0.00  0.00    +0.000 A 
ATOM     23  F   UNL     1      -2.799   9.343  16.099  0.00  0.00    +0.000 F 
ATOM     24  C   UNL     1      -1.155  10.043  17.639  0.00  0.00    +0.000 A 
ENDBRANCH  16  17
ENDBRANCH  10  16
TORSDOF 2
ENDMDL
MODEL 5
REMARK VINA RESULT:      -7.5      5.117      6.510
REMARK  Name = 
REMARK  4 active torsions:
REMARK  status: ('A' for Active; 'I' for Inactive)
REMARK    1  A    between atoms: C_1  and  C_2
REMARK    2  A    between atoms: N_10  and  C_11
REMARK    3  A    between atoms: C_11  and  C_12
REMARK    4  A    between atoms: N_23  and  C_24
REMARK                            x       y       z     vdW  Elec       q    Type
REMARK                         _______ _______ _______ _____ _____    ______ ____
ROOT
ATOM      1  C   UNL     1       0.077  10.278  20.058  0.00  0.00    +0.000 C 
ATOM      2  C   UNL     1       0.987   9.165  19.653  0.00  0.00    +0.000 A 
ATOM      3  C   UNL     1       1.195   7.957  20.294  0.00  0.00    +0.000 A 
ATOM      4  C   UNL     1       2.149   7.177  19.579  0.00  0.00    +0.000 A 
ATOM      5  C   UNL     1       2.618   7.801  18.456  0.00  0.00    +0.000 A 
ATOM      6  S   UNL     1       1.919   9.361  18.221  0.00  0.00    +0.000 S 
ATOM      7  C   UNL     1       3.546   6.932  17.850  0.00  0.00    +0.000 A 
ATOM      8  C   UNL     1       4.318   7.094  16.667  0.00  0.00    +0.000 A 
ATOM      9  N   UNL     1       5.137   6.154  16.290  0.00  0.00    +0.000 NA
ATOM     10  N   UNL     1       5.238   4.978  17.065  0.00  0.00    +0.000 N 
ATOM     11  C   UNL     1       4.508   4.721  18.250  0.00  0.00    +0.000 A 
ATOM     12  O   UNL     1       4.616   3.679  18.894  0.00  0.00    +0.000 OA
ATOM     13  C   UNL     1       3.623   5.800  18.622  0.00  0.00    +0.000 A 
ATOM     14  N   UNL     1       2.767   5.938  19.686  0.00  0.00    +0.000 N 
ATOM     15  C   UNL     1       2.497   5.015  20.758  0.00  0.00    +0.000 C 
ENDROOT
BRANCH  10  16
ATOM     16  C   UNL     1       6.186   3.979  16.588  0.00  0.00    +0.000 C 
BRANCH  16  17
ATOM     17  C   UNL     1       6.503   4.148  15.118  0.00  0.00    +0.000 A 
ATOM     18  C   UNL     1       5.725   3.507  14.139  0.00  0.00    +0.000 A 
ATOM     19  C   UNL     1       5.997   3.695  12.781  0.00  0.00    +0.000 A 
ATOM     20  C   UNL     1       7.039   4.532  12.398  0.00  0.00    +0.000 A 
ATOM     21  F   UNL     1       7.286   4.721  11.094  0.00  0.00    +0.000 F 
ATOM     22  C   UNL     1       7.815   5.171  13.357  0.00  0.00    +0.000 A 
ATOM     23  F   UNL     1       8.815   5.981  12.984  0.00  0.00    +0.000 F 
ATOM     24  C   UNL     1       7.556   4.983  14.711  0.00  0.00    +0.000 A 
ENDBRANCH  16  17
ENDBRANCH  10  16
TORSDOF 2
ENDMDL
MODEL 6
REMARK VINA RESULT:      -7.5      3.587      4.474
REMARK  Name = 
REMARK  4 active torsions:
REMARK  status: ('A' for Active; 'I' for Inactive)
REMARK    1  A    between atoms: C_1  and  C_2
REMARK    2  A    between atoms: N_10  and  C_11
REMARK    3  A    between atoms: C_11  and  C_12
REMARK    4  A    between atoms: N_23  and  C_24
REMARK                            x       y       z     vdW  Elec       q    Type
REMARK                         _______ _______ _______ _____ _____    ______ ____
ROOT
ATOM      1  C   UNL     1      -1.738  11.989  23.525  0.00  0.00    +0.000 C 
ATOM      2  C   UNL     1      -0.955  11.264  22.479  0.00  0.00    +0.000 A 
ATOM      3  C   UNL     1      -0.566  11.723  21.234  0.00  0.00    +0.000 A 
ATOM      4  C   UNL     1       0.164  10.715  20.542  0.00  0.00    +0.000 A 
ATOM      5  C   UNL     1       0.300   9.561  21.264  0.00  0.00    +0.000 A 
ATOM      6  S   UNL     1      -0.453   9.654  22.814  0.00  0.00    +0.000 S 
ATOM      7  C   UNL     1       1.033   8.655  20.473  0.00  0.00    +0.000 A 
ATOM      8  C   UNL     1       1.446   7.322  20.748  0.00  0.00    +0.000 A 
ATOM      9  N   UNL     1       2.116   6.651  19.855  0.00  0.00    +0.000 NA
ATOM     10  N   UNL     1       2.427   7.266  18.622  0.00  0.00    +0.000 N 
ATOM     11  C   UNL     1       2.068   8.586  18.260  0.00  0.00    +0.000 A 
ATOM     12  O   UNL     1       2.365   9.091  17.179  0.00  0.00    +0.000 OA
ATOM     13  C   UNL     1       1.322   9.277  19.285  0.00  0.00    +0.000 A 
ATOM     14  N   UNL     1       0.796  10.545  19.318  0.00  0.00    +0.000 N 
ATOM     15  C   UNL     1       0.847  11.574  18.310  0.00  0.00    +0.000 C 
ENDROOT
BRANCH  10  16
ATOM     16  C   UNL     1       3.164   6.446  17.669  0.00  0.00    +0.000 C 
BRANCH  16  17
ATOM     17  C   UNL     1       4.608   6.254  18.076  0.00  0.00    +0.000 A 
ATOM     18  C   UNL     1       4.946   5.389  19.131  0.00  0.00    +0.000 A 
ATOM     19  C   UNL     1       6.284   5.184  19.480  0.00  0.00    +0.000 A 
ATOM     20  C   UNL     1       7.287   5.834  18.770  0.00  0.00    +0.000 A 
ATOM     21  F   UNL     1       8.569   5.622  19.099  0.00  0.00    +0.000 F 
ATOM     22  C   UNL     1       6.965   6.690  17.725  0.00  0.00    +0.000 A 
ATOM     23  F   UNL     1       7.935   7.311  17.040  0.00  0.00    +0.000 F 
ATOM     24  C   UNL     1       5.635   6.906  17.376  0.00  0.00    +0.000 A 
ENDBRANCH  16  17
ENDBRANCH  10  16
TORSDOF 2
ENDMDL
MODEL 7
REMARK VINA RESULT:      -7.4      4.153      7.575
REMARK  Name = 
REMARK  4 active torsions:
REMARK  status: ('A' for Active; 'I' for Inactive)
REMARK    1  A    between atoms: C_1  and  C_2
REMARK    2  A    between atoms: N_10  and  C_11
REMARK    3  A    between atoms: C_11  and  C_12
REMARK    4  A    between atoms: N_23  and  C_24
REMARK                            x       y       z     vdW  Elec       q    Type
REMARK                         _______ _______ _______ _____ _____    ______ ____
ROOT
ATOM      1  C   UNL     1       3.963   2.221  20.413  0.00  0.00    +0.000 C 
ATOM      2  C   UNL     1       3.533   3.602  20.039  0.00  0.00    +0.000 A 
ATOM      3  C   UNL     1       3.921   4.349  18.942  0.00  0.00    +0.000 A 
ATOM      4  C   UNL     1       3.279   5.621  18.958  0.00  0.00    +0.000 A 
ATOM      5  C   UNL     1       2.450   5.789  20.033  0.00  0.00    +0.000 A 
ATOM      6  S   UNL     1       2.416   4.409  21.069  0.00  0.00    +0.000 S 
ATOM      7  C   UNL     1       1.885   7.075  19.930  0.00  0.00    +0.000 A 
ATOM      8  C   UNL     1       0.964   7.743  20.782  0.00  0.00    +0.000 A 
ATOM      9  N   UNL     1       0.577   8.955  20.499  0.00  0.00    +0.000 NA
ATOM     10  N   UNL     1       1.078   9.584  19.339  0.00  0.00    +0.000 N 
ATOM     11  C   UNL     1       1.989   9.000  18.427  0.00  0.00    +0.000 A 
ATOM     12  O   UNL     1       2.397   9.577  17.421  0.00  0.00    +0.000 OA
ATOM     13  C   UNL     1       2.387   7.661  18.796  0.00  0.00    +0.000 A 
ATOM     14  N   UNL     1       3.242   6.776  18.188  0.00  0.00    +0.000 N 
ATOM     15  C   UNL     1       4.001   6.936  16.974  0.00  0.00    +0.000 C 
ENDROOT
BRANCH  10  16
ATOM     16  C   UNL     1       0.611  10.944  19.099  0.00  0.00    +0.000 C 
BRANCH  16  17
ATOM     17  C   UNL     1      -0.842  10.985  18.681  0.00  0.00    +0.000 A 
ATOM     18  C   UNL     1      -1.322  10.129  17.675  0.00  0.00    +0.000 A 
ATOM     19  C   UNL     1      -2.673  10.142  17.317  0.00  0.00    +0.000 A 
ATOM     20  C   UNL     1      -3.549  11.002  17.970  0.00  0.00    +0.000 A 
ATOM     21  F   UNL     1      -4.847  10.999  17.634  0.00  0.00    +0.000 F 
ATOM     22  C   UNL     1      -3.087  11.851  18.967  0.00  0.00    +0.000 A 
ATOM     23  F   UNL     1      -3.935  12.675  19.598  0.00  0.00    +0.000 F 
ATOM     24  C   UNL     1      -1.741  11.850  19.324  0.00  0.00    +0.000 A 
ENDBRANCH  16  17
ENDBRANCH  10  16
TORSDOF 2
ENDMDL
MODEL 8
REMARK VINA RESULT:      -7.3      3.947      7.425
REMARK  Name = 
REMARK  4 active torsions:
REMARK  status: ('A' for Active; 'I' for Inactive)
REMARK    1  A    between atoms: C_1  and  C_2
REMARK    2  A    between atoms: N_10  and  C_11
REMARK    3  A    between atoms: C_11  and  C_12
REMARK    4  A    between atoms: N_23  and  C_24
REMARK                            x       y       z     vdW  Elec       q    Type
REMARK                         _______ _______ _______ _____ _____    ______ ____
ROOT
ATOM      1  C   UNL     1       6.286   4.187  16.192  0.00  0.00    +0.000 C 
ATOM      2  C   UNL     1       5.300   5.009  16.957  0.00  0.00    +0.000 A 
ATOM      3  C   UNL     1       4.655   4.687  18.137  0.00  0.00    +0.000 A 
ATOM      4  C   UNL     1       3.791   5.749  18.533  0.00  0.00    +0.000 A 
ATOM      5  C   UNL     1       3.811   6.807  17.666  0.00  0.00    +0.000 A 
ATOM      6  S   UNL     1       4.880   6.557  16.336  0.00  0.00    +0.000 S 
ATOM      7  C   UNL     1       2.921   7.777  18.168  0.00  0.00    +0.000 A 
ATOM      8  C   UNL     1       2.572   9.056  17.653  0.00  0.00    +0.000 A 
ATOM      9  N   UNL     1       1.704   9.795  18.283  0.00  0.00    +0.000 NA
ATOM     10  N   UNL     1       1.126   9.313  19.478  0.00  0.00    +0.000 N 
ATOM     11  C   UNL     1       1.415   8.062  20.072  0.00  0.00    +0.000 A 
ATOM     12  O   UNL     1       0.898   7.679  21.120  0.00  0.00    +0.000 OA
ATOM     13  C   UNL     1       2.377   7.284  19.327  0.00  0.00    +0.000 A 
ATOM     14  N   UNL     1       2.907   6.039  19.563  0.00  0.00    +0.000 N 
ATOM     15  C   UNL     1       2.647   5.136  20.655  0.00  0.00    +0.000 C 
ENDROOT
BRANCH  10  16
ATOM     16  C   UNL     1       0.152  10.191  20.115  0.00  0.00    +0.000 C 
BRANCH  16  17
ATOM     17  C   UNL     1      -0.979  10.563  19.180  0.00  0.00    +0.000 A 
ATOM     18  C   UNL     1      -1.835  11.635  19.484  0.00  0.00    +0.000 A 
ATOM     19  C   UNL     1      -2.855  12.001  18.601  0.00  0.00    +0.000 A 
ATOM     20  C   UNL     1      -3.015  11.303  17.409  0.00  0.00    +0.000 A 
ATOM     21  F   UNL     1      -3.985  11.667  16.559  0.00  0.00    +0.000 F 
ATOM     22  C   UNL     1      -2.175  10.242  17.099  0.00  0.00    +0.000 A 
ATOM     23  F   UNL     1      -2.330   9.575  15.947  0.00  0.00    +0.000 F 
ATOM     24  C   UNL     1      -1.162   9.866  17.975  0.00  0.00    +0.000 A 
ENDBRANCH  16  17
ENDBRANCH  10  16
TORSDOF 2
ENDMDL
MODEL 9
REMARK VINA RESULT:      -7.2      3.063      3.439
REMARK  Name = 
REMARK  4 active torsions:
REMARK  status: ('A' for Active; 'I' for Inactive)
REMARK    1  A    between atoms: C_1  and  C_2
REMARK    2  A    between atoms: N_10  and  C_11
REMARK    3  A    between atoms: C_11  and  C_12
REMARK    4  A    between atoms: N_23  and  C_24
REMARK                            x       y       z     vdW  Elec       q    Type
REMARK                         _______ _______ _______ _____ _____    ______ ____
ROOT
ATOM      1  C   UNL     1       0.375  14.483  19.748  0.00  0.00    +0.000 C 
ATOM      2  C   UNL     1       0.641  13.013  19.786  0.00  0.00    +0.000 A 
ATOM      3  C   UNL     1       0.427  12.134  20.831  0.00  0.00    +0.000 A 
ATOM      4  C   UNL     1       0.818  10.816  20.456  0.00  0.00    +0.000 A 
ATOM      5  C   UNL     1       1.300  10.744  19.178  0.00  0.00    +0.000 A 
ATOM      6  S   UNL     1       1.298  12.272  18.379  0.00  0.00    +0.000 S 
ATOM      7  C   UNL     1       1.649   9.401  18.937  0.00  0.00    +0.000 A 
ATOM      8  C   UNL     1       2.194   8.788  17.775  0.00  0.00    +0.000 A 
ATOM      9  N   UNL     1       2.456   7.512  17.774  0.00  0.00    +0.000 NA
ATOM     10  N   UNL     1       2.185   6.753  18.934  0.00  0.00    +0.000 N 
ATOM     11  C   UNL     1       1.637   7.268  20.132  0.00  0.00    +0.000 A 
ATOM     12  O   UNL     1       1.406   6.573  21.120  0.00  0.00    +0.000 OA
ATOM     13  C   UNL     1       1.375   8.687  20.077  0.00  0.00    +0.000 A 
ATOM     14  N   UNL     1       0.860   9.546  21.016  0.00  0.00    +0.000 N 
ATOM     15  C   UNL     1       0.420   9.264  22.359  0.00  0.00    +0.000 C 
ENDROOT
BRANCH  10  16
ATOM     16  C   UNL     1       2.520   5.336  18.861  0.00  0.00    +0.000 C 
BRANCH  16  17
ATOM     17  C   UNL     1       3.967   5.109  18.483  0.00  0.00    +0.000 A 
ATOM     18  C   UNL     1       4.303   4.536  17.245  0.00  0.00    +0.000 A 
ATOM     19  C   UNL     1       5.642   4.363  16.882  0.00  0.00    +0.000 A 
ATOM     20  C   UNL     1       6.648   4.771  17.751  0.00  0.00    +0.000 A 
ATOM     21  F   UNL     1       7.930   4.617  17.392  0.00  0.00    +0.000 F 
ATOM     22  C   UNL     1       6.328   5.339  18.978  0.00  0.00    +0.000 A 
ATOM     23  F   UNL     1       7.300   5.736  19.811  0.00  0.00    +0.000 F 
ATOM     24  C   UNL     1       4.997   5.508  19.350  0.00  0.00    +0.000 A 
ENDBRANCH  16  17
ENDBRANCH  10  16
TORSDOF 2
ENDMDL
