MODEL 1
REMARK VINA RESULT:      -7.3      0.000      0.000
REMARK  Name = 
REMARK  6 active torsions:
REMARK  status: ('A' for Active; 'I' for Inactive)
REMARK    1  A    between atoms: C_1  and  C_2
REMARK    2  A    between atoms: C_7  and  C_9
REMARK    3  A    between atoms: C_9  and  C_10
REMARK    4  A    between atoms: C_10  and  C_11
REMARK    5  A    between atoms: C_11  and  O_12
REMARK    6  A    between atoms: O_12  and  C_13
REMARK                            x       y       z     vdW  Elec       q    Type
REMARK                         _______ _______ _______ _____ _____    ______ ____
ROOT
ATOM      1  C   UNL     1       6.942   7.329  17.379  0.00  0.00    +0.000 C 
ENDROOT
BRANCH   1   8
ATOM      2  C   UNL     1       1.836   2.195  19.522  0.00  0.00    +0.000 C 
ATOM      3  C   UNL     1       3.031   3.051  19.328  0.00  0.00    +0.000 A 
ATOM      4  C   UNL     1       4.345   2.783  19.649  0.00  0.00    +0.000 A 
ATOM      5  N   UNL     1       5.250   3.757  19.300  0.00  0.00    +0.000 NA
ATOM      6  C   UNL     1       4.627   4.751  18.726  0.00  0.00    +0.000 A 
ATOM      7  N   UNL     1       5.162   5.892  18.183  0.00  0.00    +0.000 N 
ATOM      8  C   UNL     1       6.524   6.006  17.998  0.00  0.00    +0.000 C 
ATOM      9  O   UNL     1       7.370   5.168  18.298  0.00  0.00    +0.000 OA
ATOM     10  S   UNL     1       2.927   4.612  18.615  0.00  0.00    +0.000 S 
ATOM     11  H   UNL     1       4.515   6.575  17.822  0.00  0.00    +0.000 HD
ENDBRANCH   1   8
BRANCH   1  12
ATOM     12  C   UNL     1       8.208   7.844  18.065  0.00  0.00    +0.000 C 
BRANCH  12  13
ATOM     13  C   UNL     1       8.303   9.364  18.074  0.00  0.00    +0.000 C 
BRANCH  13  14
ATOM     14  O   UNL     1       8.846   9.755  19.338  0.00  0.00    +0.000 OA
BRANCH  14  15
ATOM     15  C   UNL     1       9.656  10.854  19.361  0.00  0.00    +0.000 A 
ATOM     16  C   UNL     1      10.145  11.480  20.506  0.00  0.00    +0.000 A 
ATOM     17  C   UNL     1      10.969  12.604  20.394  0.00  0.00    +0.000 A 
ATOM     18  C   UNL     1      11.309  13.111  19.138  0.00  0.00    +0.000 A 
ATOM     19 CL   UNL     1      12.331  14.501  19.083  0.00  0.00    +0.000 Cl
ATOM     20  C   UNL     1      10.821  12.487  17.986  0.00  0.00    +0.000 A 
ATOM     21 CL   UNL     1      11.197  13.054  16.398  0.00  0.00    +0.000 Cl
ATOM     22  C   UNL     1       9.996  11.363  18.102  0.00  0.00    +0.000 A 
ENDBRANCH  14  15
ENDBRANCH  13  14
ENDBRANCH  12  13
ENDBRANCH   1  12
TORSDOF 5
ENDMDL
MODEL 2
REMARK VINA RESULT:      -7.1      5.576     10.088
REMARK  Name = 
REMARK  6 active torsions:
REMARK  status: ('A' for Active; 'I' for Inactive)
REMARK    1  A    between atoms: C_1  and  C_2
REMARK    2  A    between atoms: C_7  and  C_9
REMARK    3  A    between atoms: C_9  and  C_10
REMARK    4  A    between atoms: C_10  and  C_11
REMARK    5  A    between atoms: C_11  and  O_12
REMARK    6  A    between atoms: O_12  and  C_13
REMARK                            x       y       z     vdW  Elec       q    Type
REMARK                         _______ _______ _______ _____ _____    ______ ____
ROOT
ATOM      1  C   UNL     1       8.168   6.939  18.618  0.00  0.00    +0.000 C 
ENDROOT
BRANCH   1   8
ATOM      2  C   UNL     1      10.815  13.977  19.315  0.00  0.00    +0.000 C 
ATOM      3  C   UNL     1      10.050  12.744  19.008  0.00  0.00    +0.000 A 
ATOM      4  C   UNL     1       9.119  12.533  18.012  0.00  0.00    +0.000 A 
ATOM      5  N   UNL     1       8.609  11.258  17.940  0.00  0.00    +0.000 NA
ATOM      6  C   UNL     1       9.144  10.516  18.872  0.00  0.00    +0.000 A 
ATOM      7  N   UNL     1       8.952   9.179  19.113  0.00  0.00    +0.000 N 
ATOM      8  C   UNL     1       8.283   8.394  18.197  0.00  0.00    +0.000 C 
ATOM      9  O   UNL     1       7.790   8.773  17.139  0.00  0.00    +0.000 OA
ATOM     10  S   UNL     1      10.242  11.301  19.921  0.00  0.00    +0.000 S 
ATOM     11  H   UNL     1       9.419   8.786  19.914  0.00  0.00    +0.000 HD
ENDBRANCH   1   8
BRANCH   1  12
ATOM     12  C   UNL     1       6.790   6.397  18.235  0.00  0.00    +0.000 C 
BRANCH  12  13
ATOM     13  C   UNL     1       6.279   5.335  19.200  0.00  0.00    +0.000 C 
BRANCH  13  14
ATOM     14  O   UNL     1       5.984   4.164  18.435  0.00  0.00    +0.000 OA
BRANCH  14  15
ATOM     15  C   UNL     1       4.696   3.709  18.453  0.00  0.00    +0.000 A 
ATOM     16  C   UNL     1       3.904   3.464  17.332  0.00  0.00    +0.000 A 
ATOM     17  C   UNL     1       2.594   2.999  17.486  0.00  0.00    +0.000 A 
ATOM     18  C   UNL     1       2.067   2.778  18.761  0.00  0.00    +0.000 A 
ATOM     19 CL   UNL     1       0.442   2.203  18.868  0.00  0.00    +0.000 Cl
ATOM     20  C   UNL     1       2.857   3.023  19.888  0.00  0.00    +0.000 A 
ATOM     21 CL   UNL     1       2.276   2.773  21.496  0.00  0.00    +0.000 Cl
ATOM     22  C   UNL     1       4.166   3.489  19.729  0.00  0.00    +0.000 A 
ENDBRANCH  14  15
ENDBRANCH  13  14
ENDBRANCH  12  13
ENDBRANCH   1  12
TORSDOF 5
ENDMDL
MODEL 3
REMARK VINA RESULT:      -7.1      5.816      7.607
REMARK  Name = 
REMARK  6 active torsions:
REMARK  status: ('A' for Active; 'I' for Inactive)
REMARK    1  A    between atoms: C_1  and  C_2
REMARK    2  A    between atoms: C_7  and  C_9
REMARK    3  A    between atoms: C_9  and  C_10
REMARK    4  A    between atoms: C_10  and  C_11
REMARK    5  A    between atoms: C_11  and  O_12
REMARK    6  A    between atoms: O_12  and  C_13
REMARK                            x       y       z     vdW  Elec       q    Type
REMARK                         _______ _______ _______ _____ _____    ______ ____
ROOT
ATOM      1  C   UNL     1       6.581   6.150  18.782  0.00  0.00    +0.000 C 
ENDROOT
BRANCH   1   8
ATOM      2  C   UNL     1       6.091   3.250  11.827  0.00  0.00    +0.000 C 
ATOM      3  C   UNL     1       6.488   3.920  13.089  0.00  0.00    +0.000 A 
ATOM      4  C   UNL     1       7.447   4.891  13.284  0.00  0.00    +0.000 A 
ATOM      5  N   UNL     1       7.557   5.364  14.570  0.00  0.00    +0.000 NA
ATOM      6  C   UNL     1       6.695   4.755  15.339  0.00  0.00    +0.000 A 
ATOM      7  N   UNL     1       6.441   4.967  16.670  0.00  0.00    +0.000 N 
ATOM      8  C   UNL     1       6.969   6.065  17.316  0.00  0.00    +0.000 C 
ATOM      9  O   UNL     1       7.702   6.916  16.819  0.00  0.00    +0.000 OA
ATOM     10  S   UNL     1       5.741   3.549  14.592  0.00  0.00    +0.000 S 
ATOM     11  H   UNL     1       5.766   4.362  17.110  0.00  0.00    +0.000 HD
ENDBRANCH   1   8
BRANCH   1  12
ATOM     12  C   UNL     1       5.696   4.960  19.153  0.00  0.00    +0.000 C 
BRANCH  12  13
ATOM     13  C   UNL     1       4.259   5.360  19.460  0.00  0.00    +0.000 C 
BRANCH  13  14
ATOM     14  O   UNL     1       3.729   5.992  18.292  0.00  0.00    +0.000 OA
BRANCH  14  15
ATOM     15  C   UNL     1       2.946   7.096  18.475  0.00  0.00    +0.000 A 
ATOM     16  C   UNL     1       2.691   8.079  17.520  0.00  0.00    +0.000 A 
ATOM     17  C   UNL     1       1.869   9.166  17.834  0.00  0.00    +0.000 A 
ATOM     18  C   UNL     1       1.300   9.279  19.105  0.00  0.00    +0.000 A 
ATOM     19 CL   UNL     1       0.296  10.650  19.415  0.00  0.00    +0.000 Cl
ATOM     20  C   UNL     1       1.553   8.296  20.066  0.00  0.00    +0.000 A 
ATOM     21 CL   UNL     1       0.885   8.366  21.658  0.00  0.00    +0.000 Cl
ATOM     22  C   UNL     1       2.376   7.210  19.748  0.00  0.00    +0.000 A 
ENDBRANCH  14  15
ENDBRANCH  13  14
ENDBRANCH  12  13
ENDBRANCH   1  12
TORSDOF 5
ENDMDL
MODEL 4
REMARK VINA RESULT:      -7.0      6.385      8.456
REMARK  Name = 
REMARK  6 active torsions:
REMARK  status: ('A' for Active; 'I' for Inactive)
REMARK    1  A    between atoms: C_1  and  C_2
REMARK    2  A    between atoms: C_7  and  C_9
REMARK    3  A    between atoms: C_9  and  C_10
REMARK    4  A    between atoms: C_10  and  C_11
REMARK    5  A    between atoms: C_11  and  O_12
REMARK    6  A    between atoms: O_12  and  C_13
REMARK                            x       y       z     vdW  Elec       q    Type
REMARK                         _______ _______ _______ _____ _____    ______ ____
ROOT
ATOM      1  C   UNL     1       2.156   5.060  20.946  0.00  0.00    +0.000 C 
ENDROOT
BRANCH   1   8
ATOM      2  C   UNL     1       0.517  12.432  20.913  0.00  0.00    +0.000 C 
ATOM      3  C   UNL     1       0.776  11.007  20.593  0.00  0.00    +0.000 A 
ATOM      4  C   UNL     1       1.083  10.440  19.374  0.00  0.00    +0.000 A 
ATOM      5  N   UNL     1       1.322   9.086  19.395  0.00  0.00    +0.000 NA
ATOM      6  C   UNL     1       1.194   8.635  20.614  0.00  0.00    +0.000 A 
ATOM      7  N   UNL     1       1.398   7.359  21.077  0.00  0.00    +0.000 N 
ATOM      8  C   UNL     1       2.000   6.413  20.274  0.00  0.00    +0.000 C 
ATOM      9  O   UNL     1       2.380   6.577  19.118  0.00  0.00    +0.000 OA
ATOM     10  S   UNL     1       0.729   9.779  21.795  0.00  0.00    +0.000 S 
ATOM     11  H   UNL     1       1.202   7.188  22.050  0.00  0.00    +0.000 HD
ENDBRANCH   1   8
BRANCH   1  12
ATOM     12  C   UNL     1       1.202   4.051  20.306  0.00  0.00    +0.000 C 
BRANCH  12  13
ATOM     13  C   UNL     1       1.868   3.200  19.234  0.00  0.00    +0.000 C 
BRANCH  13  14
ATOM     14  O   UNL     1       3.271   3.181  19.508  0.00  0.00    +0.000 OA
BRANCH  14  15
ATOM     15  C   UNL     1       4.111   3.607  18.519  0.00  0.00    +0.000 A 
ATOM     16  C   UNL     1       3.877   3.497  17.149  0.00  0.00    +0.000 A 
ATOM     17  C   UNL     1       4.820   3.974  16.235  0.00  0.00    +0.000 A 
ATOM     18  C   UNL     1       6.005   4.563  16.683  0.00  0.00    +0.000 A 
ATOM     19 CL   UNL     1       7.120   5.128  15.491  0.00  0.00    +0.000 Cl
ATOM     20  C   UNL     1       6.245   4.676  18.055  0.00  0.00    +0.000 A 
ATOM     21 CL   UNL     1       7.686   5.392  18.686  0.00  0.00    +0.000 Cl
ATOM     22  C   UNL     1       5.299   4.196  18.967  0.00  0.00    +0.000 A 
ENDBRANCH  14  15
ENDBRANCH  13  14
ENDBRANCH  12  13
ENDBRANCH   1  12
TORSDOF 5
ENDMDL
MODEL 5
REMARK VINA RESULT:      -6.9      1.361      1.477
REMARK  Name = 
REMARK  6 active torsions:
REMARK  status: ('A' for Active; 'I' for Inactive)
REMARK    1  A    between atoms: C_1  and  C_2
REMARK    2  A    between atoms: C_7  and  C_9
REMARK    3  A    between atoms: C_9  and  C_10
REMARK    4  A    between atoms: C_10  and  C_11
REMARK    5  A    between atoms: C_11  and  O_12
REMARK    6  A    between atoms: O_12  and  C_13
REMARK                            x       y       z     vdW  Elec       q    Type
REMARK                         _______ _______ _______ _____ _____    ______ ____
ROOT
ATOM      1  C   UNL     1       7.325   6.118  17.331  0.00  0.00    +0.000 C 
ENDROOT
BRANCH   1   8
ATOM      2  C   UNL     1       0.914   2.447  18.902  0.00  0.00    +0.000 C 
ATOM      3  C   UNL     1       2.170   3.236  18.920  0.00  0.00    +0.000 A 
ATOM      4  C   UNL     1       2.993   3.521  19.989  0.00  0.00    +0.000 A 
ATOM      5  N   UNL     1       4.126   4.239  19.688  0.00  0.00    +0.000 NA
ATOM      6  C   UNL     1       4.157   4.497  18.408  0.00  0.00    +0.000 A 
ATOM      7  N   UNL     1       5.135   5.140  17.692  0.00  0.00    +0.000 N 
ATOM      8  C   UNL     1       6.359   5.411  18.267  0.00  0.00    +0.000 C 
ATOM      9  O   UNL     1       6.693   5.149  19.419  0.00  0.00    +0.000 OA
ATOM     10  S   UNL     1       2.818   3.951  17.497  0.00  0.00    +0.000 S 
ATOM     11  H   UNL     1       4.960   5.290  16.711  0.00  0.00    +0.000 HD
ENDBRANCH   1   8
BRANCH   1  12
ATOM     12  C   UNL     1       7.172   7.632  17.478  0.00  0.00    +0.000 C 
BRANCH  12  13
ATOM     13  C   UNL     1       8.302   8.269  18.276  0.00  0.00    +0.000 C 
BRANCH  13  14
ATOM     14  O   UNL     1       8.600   9.530  17.671  0.00  0.00    +0.000 OA
BRANCH  14  15
ATOM     15  C   UNL     1       9.048  10.528  18.489  0.00  0.00    +0.000 A 
ATOM     16  C   UNL     1       9.527  10.363  19.787  0.00  0.00    +0.000 A 
ATOM     17  C   UNL     1       9.957  11.471  20.524  0.00  0.00    +0.000 A 
ATOM     18  C   UNL     1       9.910  12.752  19.968  0.00  0.00    +0.000 A 
ATOM     19 CL   UNL     1      10.460  14.069  20.940  0.00  0.00    +0.000 Cl
ATOM     20  C   UNL     1       9.431  12.923  18.666  0.00  0.00    +0.000 A 
ATOM     21 CL   UNL     1       9.342  14.474  17.910  0.00  0.00    +0.000 Cl
ATOM     22  C   UNL     1       9.000  11.811  17.933  0.00  0.00    +0.000 A 
ENDBRANCH  14  15
ENDBRANCH  13  14
ENDBRANCH  12  13
ENDBRANCH   1  12
TORSDOF 5
ENDMDL
MODEL 6
REMARK VINA RESULT:      -6.8      1.197      1.579
REMARK  Name = 
REMARK  6 active torsions:
REMARK  status: ('A' for Active; 'I' for Inactive)
REMARK    1  A    between atoms: C_1  and  C_2
REMARK    2  A    between atoms: C_7  and  C_9
REMARK    3  A    between atoms: C_9  and  C_10
REMARK    4  A    between atoms: C_10  and  C_11
REMARK    5  A    between atoms: C_11  and  O_12
REMARK    6  A    between atoms: O_12  and  C_13
REMARK                            x       y       z     vdW  Elec       q    Type
REMARK                         _______ _______ _______ _____ _____    ______ ____
ROOT
ATOM      1  C   UNL     1       7.751   6.782  17.282  0.00  0.00    +0.000 C 
ENDROOT
BRANCH   1   8
ATOM      2  C   UNL     1       1.899   2.270  18.840  0.00  0.00    +0.000 C 
ATOM      3  C   UNL     1       3.160   3.051  18.830  0.00  0.00    +0.000 A 
ATOM      4  C   UNL     1       4.314   2.831  19.552  0.00  0.00    +0.000 A 
ATOM      5  N   UNL     1       5.348   3.700  19.292  0.00  0.00    +0.000 NA
ATOM      6  C   UNL     1       4.978   4.568  18.389  0.00  0.00    +0.000 A 
ATOM      7  N   UNL     1       5.720   5.567  17.812  0.00  0.00    +0.000 N 
ATOM      8  C   UNL     1       7.086   5.619  17.998  0.00  0.00    +0.000 C 
ATOM      9  O   UNL     1       7.756   4.845  18.677  0.00  0.00    +0.000 OA
ATOM     10  S   UNL     1       3.366   4.437  17.835  0.00  0.00    +0.000 S 
ATOM     11  H   UNL     1       5.246   6.173  17.162  0.00  0.00    +0.000 HD
ENDBRANCH   1   8
BRANCH   1  12
ATOM     12  C   UNL     1       7.263   8.103  17.877  0.00  0.00    +0.000 C 
BRANCH  12  13
ATOM     13  C   UNL     1       8.397   9.068  18.194  0.00  0.00    +0.000 C 
BRANCH  13  14
ATOM     14  O   UNL     1       8.079  10.323  17.587  0.00  0.00    +0.000 OA
BRANCH  14  15
ATOM     15  C   UNL     1       8.847  11.400  17.930  0.00  0.00    +0.000 A 
ATOM     16  C   UNL     1       8.555  12.732  17.639  0.00  0.00    +0.000 A 
ATOM     17  C   UNL     1       9.427  13.746  18.046  0.00  0.00    +0.000 A 
ATOM     18  C   UNL     1      10.596  13.436  18.746  0.00  0.00    +0.000 A 
ATOM     19 CL   UNL     1      11.621  14.744  19.215  0.00  0.00    +0.000 Cl
ATOM     20  C   UNL     1      10.892  12.102  19.040  0.00  0.00    +0.000 A 
ATOM     21 CL   UNL     1      12.317  11.640  19.901  0.00  0.00    +0.000 Cl
ATOM     22  C   UNL     1      10.018  11.090  18.629  0.00  0.00    +0.000 A 
ENDBRANCH  14  15
ENDBRANCH  13  14
ENDBRANCH  12  13
ENDBRANCH   1  12
TORSDOF 5
ENDMDL
MODEL 7
REMARK VINA RESULT:      -6.8      1.431      1.630
REMARK  Name = 
REMARK  6 active torsions:
REMARK  status: ('A' for Active; 'I' for Inactive)
REMARK    1  A    between atoms: C_1  and  C_2
REMARK    2  A    between atoms: C_7  and  C_9
REMARK    3  A    between atoms: C_9  and  C_10
REMARK    4  A    between atoms: C_10  and  C_11
REMARK    5  A    between atoms: C_11  and  O_12
REMARK    6  A    between atoms: O_12  and  C_13
REMARK                            x       y       z     vdW  Elec       q    Type
REMARK                         _______ _______ _______ _____ _____    ______ ____
ROOT
ATOM      1  C   UNL     1       7.496   5.836  18.530  0.00  0.00    +0.000 C 
ENDROOT
BRANCH   1   8
ATOM      2  C   UNL     1       0.731   2.503  18.926  0.00  0.00    +0.000 C 
ATOM      3  C   UNL     1       2.095   2.968  18.576  0.00  0.00    +0.000 A 
ATOM      4  C   UNL     1       2.741   2.907  17.359  0.00  0.00    +0.000 A 
ATOM      5  N   UNL     1       3.994   3.470  17.325  0.00  0.00    +0.000 NA
ATOM      6  C   UNL     1       4.295   3.947  18.503  0.00  0.00    +0.000 A 
ATOM      7  N   UNL     1       5.421   4.633  18.883  0.00  0.00    +0.000 N 
ATOM      8  C   UNL     1       6.312   5.092  17.937  0.00  0.00    +0.000 C 
ATOM      9  O   UNL     1       6.226   4.934  16.722  0.00  0.00    +0.000 OA
ATOM     10  S   UNL     1       3.131   3.708  19.731  0.00  0.00    +0.000 S 
ATOM     11  H   UNL     1       5.498   4.883  19.856  0.00  0.00    +0.000 HD
ENDBRANCH   1   8
BRANCH   1  12
ATOM     12  C   UNL     1       7.652   7.193  17.843  0.00  0.00    +0.000 C 
BRANCH  12  13
ATOM     13  C   UNL     1       8.551   8.150  18.614  0.00  0.00    +0.000 C 
BRANCH  13  14
ATOM     14  O   UNL     1       8.371   9.455  18.056  0.00  0.00    +0.000 OA
BRANCH  14  15
ATOM     15  C   UNL     1       8.963  10.502  18.704  0.00  0.00    +0.000 A 
ATOM     16  C   UNL     1       9.577  10.443  19.953  0.00  0.00    +0.000 A 
ATOM     17  C   UNL     1      10.148  11.591  20.510  0.00  0.00    +0.000 A 
ATOM     18  C   UNL     1      10.107  12.807  19.823  0.00  0.00    +0.000 A 
ATOM     19 CL   UNL     1      10.834  14.180  20.577  0.00  0.00    +0.000 Cl
ATOM     20  C   UNL     1       9.492  12.871  18.569  0.00  0.00    +0.000 A 
ATOM     21 CL   UNL     1       9.401  14.337  17.659  0.00  0.00    +0.000 Cl
ATOM     22  C   UNL     1       8.921  11.720  18.016  0.00  0.00    +0.000 A 
ENDBRANCH  14  15
ENDBRANCH  13  14
ENDBRANCH  12  13
ENDBRANCH   1  12
TORSDOF 5
ENDMDL
MODEL 8
REMARK VINA RESULT:      -6.8      1.508      1.921
REMARK  Name = 
REMARK  6 active torsions:
REMARK  status: ('A' for Active; 'I' for Inactive)
REMARK    1  A    between atoms: C_1  and  C_2
REMARK    2  A    between atoms: C_7  and  C_9
REMARK    3  A    between atoms: C_9  and  C_10
REMARK    4  A    between atoms: C_10  and  C_11
REMARK    5  A    between atoms: C_11  and  O_12
REMARK    6  A    between atoms: O_12  and  C_13
REMARK                            x       y       z     vdW  Elec       q    Type
REMARK                         _______ _______ _______ _____ _____    ______ ____
ROOT
ATOM      1  C   UNL     1       7.372   6.425  18.542  0.00  0.00    +0.000 C 
ENDROOT
BRANCH   1   8
ATOM      2  C   UNL     1       0.940   2.481  18.874  0.00  0.00    +0.000 C 
ATOM      3  C   UNL     1       2.203   3.157  18.490  0.00  0.00    +0.000 A 
ATOM      4  C   UNL     1       2.641   3.514  17.232  0.00  0.00    +0.000 A 
ATOM      5  N   UNL     1       3.842   4.182  17.192  0.00  0.00    +0.000 NA
ATOM      6  C   UNL     1       4.308   4.324  18.403  0.00  0.00    +0.000 A 
ATOM      7  N   UNL     1       5.446   4.975  18.808  0.00  0.00    +0.000 N 
ATOM      8  C   UNL     1       6.145   5.774  17.927  0.00  0.00    +0.000 C 
ATOM      9  O   UNL     1       5.868   5.967  16.746  0.00  0.00    +0.000 OA
ATOM     10  S   UNL     1       3.376   3.627  19.655  0.00  0.00    +0.000 S 
ATOM     11  H   UNL     1       5.670   4.939  19.789  0.00  0.00    +0.000 HD
ENDBRANCH   1   8
BRANCH   1  12
ATOM     12  C   UNL     1       7.861   7.560  17.642  0.00  0.00    +0.000 C 
BRANCH  12  13
ATOM     13  C   UNL     1       8.552   8.676  18.415  0.00  0.00    +0.000 C 
BRANCH  13  14
ATOM     14  O   UNL     1       8.000   9.917  17.967  0.00  0.00    +0.000 OA
BRANCH  14  15
ATOM     15  C   UNL     1       8.779  11.032  18.090  0.00  0.00    +0.000 A 
ATOM     16  C   UNL     1       8.471  12.297  17.593  0.00  0.00    +0.000 A 
ATOM     17  C   UNL     1       9.358  13.361  17.785  0.00  0.00    +0.000 A 
ATOM     18  C   UNL     1      10.557  13.168  18.474  0.00  0.00    +0.000 A 
ATOM     19 CL   UNL     1      11.598  14.531  18.671  0.00  0.00    +0.000 Cl
ATOM     20  C   UNL     1      10.870  11.901  18.975  0.00  0.00    +0.000 A 
ATOM     21 CL   UNL     1      12.333  11.583  19.837  0.00  0.00    +0.000 Cl
ATOM     22  C   UNL     1       9.981  10.838  18.779  0.00  0.00    +0.000 A 
ENDBRANCH  14  15
ENDBRANCH  13  14
ENDBRANCH  12  13
ENDBRANCH   1  12
TORSDOF 5
ENDMDL
MODEL 9
REMARK VINA RESULT:      -6.8      5.609      9.659
REMARK  Name = 
REMARK  6 active torsions:
REMARK  status: ('A' for Active; 'I' for Inactive)
REMARK    1  A    between atoms: C_1  and  C_2
REMARK    2  A    between atoms: C_7  and  C_9
REMARK    3  A    between atoms: C_9  and  C_10
REMARK    4  A    between atoms: C_10  and  C_11
REMARK    5  A    between atoms: C_11  and  O_12
REMARK    6  A    between atoms: O_12  and  C_13
REMARK                            x       y       z     vdW  Elec       q    Type
REMARK                         _______ _______ _______ _____ _____    ______ ____
ROOT
ATOM      1  C   UNL     1       8.002   6.968  18.508  0.00  0.00    +0.000 C 
ENDROOT
BRANCH   1   8
ATOM      2  C   UNL     1      11.089  13.823  19.227  0.00  0.00    +0.000 C 
ATOM      3  C   UNL     1      10.232  12.646  18.945  0.00  0.00    +0.000 A 
ATOM      4  C   UNL     1       9.205  12.526  18.032  0.00  0.00    +0.000 A 
ATOM      5  N   UNL     1       8.621  11.284  17.959  0.00  0.00    +0.000 NA
ATOM      6  C   UNL     1       9.195  10.476  18.808  0.00  0.00    +0.000 A 
ATOM      7  N   UNL     1       8.951   9.142  19.014  0.00  0.00    +0.000 N 
ATOM      8  C   UNL     1       8.160   8.432  18.135  0.00  0.00    +0.000 C 
ATOM      9  O   UNL     1       7.596   8.882  17.141  0.00  0.00    +0.000 OA
ATOM     10  S   UNL     1      10.425  11.156  19.781  0.00  0.00    +0.000 S 
ATOM     11  H   UNL     1       9.466   8.690  19.753  0.00  0.00    +0.000 HD
ENDBRANCH   1   8
BRANCH   1  12
ATOM     12  C   UNL     1       7.477   6.181  17.306  0.00  0.00    +0.000 C 
BRANCH  12  13
ATOM     13  C   UNL     1       6.355   5.219  17.670  0.00  0.00    +0.000 C 
BRANCH  13  14
ATOM     14  O   UNL     1       5.205   6.002  18.002  0.00  0.00    +0.000 OA
BRANCH  14  15
ATOM     15  C   UNL     1       4.189   5.376  18.666  0.00  0.00    +0.000 A 
ATOM     16  C   UNL     1       3.287   5.988  19.535  0.00  0.00    +0.000 A 
ATOM     17  C   UNL     1       2.288   5.232  20.156  0.00  0.00    +0.000 A 
ATOM     18  C   UNL     1       2.184   3.860  19.913  0.00  0.00    +0.000 A 
ATOM     19 CL   UNL     1       0.923   2.997  20.717  0.00  0.00    +0.000 Cl
ATOM     20  C   UNL     1       3.086   3.242  19.042  0.00  0.00    +0.000 A 
ATOM     21 CL   UNL     1       3.021   1.551  18.692  0.00  0.00    +0.000 Cl
ATOM     22  C   UNL     1       4.085   4.001  18.424  0.00  0.00    +0.000 A 
ENDBRANCH  14  15
ENDBRANCH  13  14
ENDBRANCH  12  13
ENDBRANCH   1  12
TORSDOF 5
ENDMDL
