MODEL 1
REMARK VINA RESULT:      -7.0      0.000      0.000
REMARK  Name = 
REMARK  4 active torsions:
REMARK  status: ('A' for Active; 'I' for Inactive)
REMARK    1  A    between atoms: N_1  and  C_2
REMARK    2  A    between atoms: C_3  and  C_4
REMARK    3  A    between atoms: C_6  and  C_7
REMARK    4  A    between atoms: N_15  and  C_16
REMARK                            x       y       z     vdW  Elec       q    Type
REMARK                         _______ _______ _______ _____ _____    ______ ____
ROOT
ATOM      1  C   UNL     1       2.825   5.497  20.040  0.00  0.00    +0.000 A 
ATOM      2  C   UNL     1       3.678   4.769  19.227  0.00  0.00    +0.000 A 
ATOM      3  C   UNL     1       3.970   5.622  18.122  0.00  0.00    +0.000 A 
ATOM      4  N   UNL     1       3.227   6.741  18.182  0.00  0.00    +0.000 NA
ATOM      5  N   UNL     1       2.619   6.715  19.394  0.00  0.00    +0.000 N 
ENDROOT
BRANCH   3   6
ATOM      6  C   UNL     1       4.894   5.411  16.997  0.00  0.00    +0.000 A 
ATOM      7  C   UNL     1       6.103   6.122  16.930  0.00  0.00    +0.000 A 
ATOM      8  C   UNL     1       6.989   5.938  15.862  0.00  0.00    +0.000 A 
ATOM      9  C   UNL     1       6.674   5.039  14.847  0.00  0.00    +0.000 A 
ATOM     10 CL   UNL     1       7.748   4.828  13.522  0.00  0.00    +0.000 Cl
ATOM     11  C   UNL     1       5.495   4.304  14.906  0.00  0.00    +0.000 A 
ATOM     12  C   UNL     1       4.619   4.474  15.986  0.00  0.00    +0.000 A 
ENDBRANCH   3   6
BRANCH   5  13
ATOM     13  C   UNL     1       1.860   7.833  19.837  0.00  0.00    +0.000 A 
ATOM     14  C   UNL     1       1.513   8.839  18.920  0.00  0.00    +0.000 A 
ATOM     15  C   UNL     1       0.716   9.915  19.327  0.00  0.00    +0.000 A 
ATOM     16  C   UNL     1       0.299  10.006  20.653  0.00  0.00    +0.000 A 
ATOM     17 BR   UNL     1      -0.781  11.457  21.202  0.00  0.00    +0.000 Br
ATOM     18  C   UNL     1       0.676   9.039  21.583  0.00  0.00    +0.000 A 
ATOM     19  C   UNL     1       1.455   7.951  21.175  0.00  0.00    +0.000 A 
ENDBRANCH   5  13
BRANCH   1  20
ATOM     20  N   UNL     1       2.216   5.108  21.192  0.00  0.00    +0.000 N 
ATOM     21  H   UNL     1       2.602   4.304  21.694  0.00  0.00    +0.000 HD
ATOM     22  H   UNL     1       1.206   5.179  21.297  0.00  0.00    +0.000 HD
ENDBRANCH   1  20
BRANCH   2  23
ATOM     23  C   UNL     1       4.088   3.404  19.465  0.00  0.00    +0.000 C 
ATOM     24  O   UNL     1       3.518   2.633  20.234  0.00  0.00    +0.000 OA
ENDBRANCH   2  23
TORSDOF 4
ENDMDL
MODEL 2
REMARK VINA RESULT:      -6.9      0.405      1.109
REMARK  Name = 
REMARK  4 active torsions:
REMARK  status: ('A' for Active; 'I' for Inactive)
REMARK    1  A    between atoms: N_1  and  C_2
REMARK    2  A    between atoms: C_3  and  C_4
REMARK    3  A    between atoms: C_6  and  C_7
REMARK    4  A    between atoms: N_15  and  C_16
REMARK                            x       y       z     vdW  Elec       q    Type
REMARK                         _______ _______ _______ _____ _____    ______ ____
ROOT
ATOM      1  C   UNL     1       2.785   5.507  20.064  0.00  0.00    +0.000 A 
ATOM      2  C   UNL     1       3.634   4.777  19.248  0.00  0.00    +0.000 A 
ATOM      3  C   UNL     1       3.944   5.639  18.155  0.00  0.00    +0.000 A 
ATOM      4  N   UNL     1       3.216   6.766  18.223  0.00  0.00    +0.000 NA
ATOM      5  N   UNL     1       2.599   6.735  19.431  0.00  0.00    +0.000 N 
ENDROOT
BRANCH   3   6
ATOM      6  C   UNL     1       4.873   5.428  17.033  0.00  0.00    +0.000 A 
ATOM      7  C   UNL     1       6.081   6.141  16.971  0.00  0.00    +0.000 A 
ATOM      8  C   UNL     1       6.972   5.957  15.906  0.00  0.00    +0.000 A 
ATOM      9  C   UNL     1       6.661   5.057  14.891  0.00  0.00    +0.000 A 
ATOM     10 CL   UNL     1       7.742   4.847  13.570  0.00  0.00    +0.000 Cl
ATOM     11  C   UNL     1       5.484   4.320  14.946  0.00  0.00    +0.000 A 
ATOM     12  C   UNL     1       4.603   4.490  16.022  0.00  0.00    +0.000 A 
ENDBRANCH   3   6
BRANCH   5  13
ATOM     13  C   UNL     1       1.853   7.858  19.882  0.00  0.00    +0.000 A 
ATOM     14  C   UNL     1       1.433   7.916  21.221  0.00  0.00    +0.000 A 
ATOM     15  C   UNL     1       0.752   9.041  21.696  0.00  0.00    +0.000 A 
ATOM     16  C   UNL     1       0.455  10.089  20.826  0.00  0.00    +0.000 A 
ATOM     17 BR   UNL     1      -0.463  11.613  21.467  0.00  0.00    +0.000 Br
ATOM     18  C   UNL     1       0.825  10.023  19.484  0.00  0.00    +0.000 A 
ATOM     19  C   UNL     1       1.526   8.908  19.012  0.00  0.00    +0.000 A 
ENDBRANCH   5  13
BRANCH   1  20
ATOM     20  N   UNL     1       2.163   5.113  21.207  0.00  0.00    +0.000 N 
ATOM     21  H   UNL     1       2.577   4.344  21.741  0.00  0.00    +0.000 HD
ATOM     22  H   UNL     1       1.148   5.130  21.281  0.00  0.00    +0.000 HD
ENDBRANCH   1  20
BRANCH   2  23
ATOM     23  C   UNL     1       4.024   3.404  19.473  0.00  0.00    +0.000 C 
ATOM     24  O   UNL     1       5.178   3.035  19.681  0.00  0.00    +0.000 OA
ENDBRANCH   2  23
TORSDOF 4
ENDMDL
MODEL 3
REMARK VINA RESULT:      -6.9      1.774      2.561
REMARK  Name = 
REMARK  4 active torsions:
REMARK  status: ('A' for Active; 'I' for Inactive)
REMARK    1  A    between atoms: N_1  and  C_2
REMARK    2  A    between atoms: C_3  and  C_4
REMARK    3  A    between atoms: C_6  and  C_7
REMARK    4  A    between atoms: N_15  and  C_16
REMARK                            x       y       z     vdW  Elec       q    Type
REMARK                         _______ _______ _______ _____ _____    ______ ____
ROOT
ATOM      1  C   UNL     1       1.896   7.630  20.106  0.00  0.00    +0.000 A 
ATOM      2  C   UNL     1       2.597   6.530  19.640  0.00  0.00    +0.000 A 
ATOM      3  C   UNL     1       2.973   6.857  18.304  0.00  0.00    +0.000 A 
ATOM      4  N   UNL     1       2.411   8.019  17.928  0.00  0.00    +0.000 NA
ATOM      5  N   UNL     1       1.852   8.538  19.050  0.00  0.00    +0.000 N 
ENDROOT
BRANCH   3   6
ATOM      6  C   UNL     1       3.810   6.104  17.357  0.00  0.00    +0.000 A 
ATOM      7  C   UNL     1       3.725   4.703  17.297  0.00  0.00    +0.000 A 
ATOM      8  C   UNL     1       4.520   3.970  16.407  0.00  0.00    +0.000 A 
ATOM      9  C   UNL     1       5.411   4.633  15.568  0.00  0.00    +0.000 A 
ATOM     10 CL   UNL     1       6.407   3.735  14.492  0.00  0.00    +0.000 Cl
ATOM     11  C   UNL     1       5.493   6.021  15.592  0.00  0.00    +0.000 A 
ATOM     12  C   UNL     1       4.682   6.754  16.468  0.00  0.00    +0.000 A 
ENDBRANCH   3   6
BRANCH   5  13
ATOM     13  C   UNL     1       1.290   9.844  19.029  0.00  0.00    +0.000 A 
ATOM     14  C   UNL     1      -0.021  10.039  19.495  0.00  0.00    +0.000 A 
ATOM     15  C   UNL     1      -0.566  11.327  19.539  0.00  0.00    +0.000 A 
ATOM     16  C   UNL     1       0.180  12.411  19.082  0.00  0.00    +0.000 A 
ATOM     17 BR   UNL     1      -0.555  14.152  19.144  0.00  0.00    +0.000 Br
ATOM     18  C   UNL     1       1.464  12.224  18.575  0.00  0.00    +0.000 A 
ATOM     19  C   UNL     1       2.020  10.941  18.550  0.00  0.00    +0.000 A 
ENDBRANCH   5  13
BRANCH   1  20
ATOM     20  N   UNL     1       1.279   7.794  21.306  0.00  0.00    +0.000 N 
ATOM     21  H   UNL     1       0.528   8.487  21.372  0.00  0.00    +0.000 HD
ATOM     22  H   UNL     1       1.801   7.710  22.177  0.00  0.00    +0.000 HD
ENDBRANCH   1  20
BRANCH   2  23
ATOM     23  C   UNL     1       2.804   5.304  20.377  0.00  0.00    +0.000 C 
ATOM     24  O   UNL     1       1.963   4.784  21.108  0.00  0.00    +0.000 OA
ENDBRANCH   2  23
TORSDOF 4
ENDMDL
MODEL 4
REMARK VINA RESULT:      -6.9      1.804      2.344
REMARK  Name = 
REMARK  4 active torsions:
REMARK  status: ('A' for Active; 'I' for Inactive)
REMARK    1  A    between atoms: N_1  and  C_2
REMARK    2  A    between atoms: C_3  and  C_4
REMARK    3  A    between atoms: C_6  and  C_7
REMARK    4  A    between atoms: N_15  and  C_16
REMARK                            x       y       z     vdW  Elec       q    Type
REMARK                         _______ _______ _______ _____ _____    ______ ____
ROOT
ATOM      1  C   UNL     1       1.872   7.632  20.140  0.00  0.00    +0.000 A 
ATOM      2  C   UNL     1       2.555   6.517  19.682  0.00  0.00    +0.000 A 
ATOM      3  C   UNL     1       2.945   6.833  18.347  0.00  0.00    +0.000 A 
ATOM      4  N   UNL     1       2.408   8.004  17.963  0.00  0.00    +0.000 NA
ATOM      5  N   UNL     1       1.852   8.538  19.080  0.00  0.00    +0.000 N 
ENDROOT
BRANCH   3   6
ATOM      6  C   UNL     1       3.774   6.060  17.409  0.00  0.00    +0.000 A 
ATOM      7  C   UNL     1       4.677   6.717  16.557  0.00  0.00    +0.000 A 
ATOM      8  C   UNL     1       5.468   5.997  15.653  0.00  0.00    +0.000 A 
ATOM      9  C   UNL     1       5.362   4.611  15.591  0.00  0.00    +0.000 A 
ATOM     10 CL   UNL     1       6.314   3.726  14.466  0.00  0.00    +0.000 Cl
ATOM     11  C   UNL     1       4.494   3.938  16.444  0.00  0.00    +0.000 A 
ATOM     12  C   UNL     1       3.719   4.657  17.363  0.00  0.00    +0.000 A 
ENDBRANCH   3   6
BRANCH   5  13
ATOM     13  C   UNL     1       1.315   9.854  19.052  0.00  0.00    +0.000 A 
ATOM     14  C   UNL     1       2.111  10.915  18.590  0.00  0.00    +0.000 A 
ATOM     15  C   UNL     1       1.577  12.205  18.498  0.00  0.00    +0.000 A 
ATOM     16  C   UNL     1       0.265  12.442  18.904  0.00  0.00    +0.000 A 
ATOM     17 BR   UNL     1      -0.458  14.185  18.777  0.00  0.00    +0.000 Br
ATOM     18  C   UNL     1      -0.519  11.407  19.407  0.00  0.00    +0.000 A 
ATOM     19  C   UNL     1       0.004  10.112  19.479  0.00  0.00    +0.000 A 
ENDBRANCH   5  13
BRANCH   1  20
ATOM     20  N   UNL     1       1.250   7.812  21.335  0.00  0.00    +0.000 N 
ATOM     21  H   UNL     1       1.819   8.101  22.137  0.00  0.00    +0.000 HD
ATOM     22  H   UNL     1       0.470   7.220  21.612  0.00  0.00    +0.000 HD
ENDBRANCH   1  20
BRANCH   2  23
ATOM     23  C   UNL     1       2.733   5.290  20.425  0.00  0.00    +0.000 C 
ATOM     24  O   UNL     1       1.823   4.672  20.972  0.00  0.00    +0.000 OA
ENDBRANCH   2  23
TORSDOF 4
ENDMDL
MODEL 5
REMARK VINA RESULT:      -6.9      0.650      1.486
REMARK  Name = 
REMARK  4 active torsions:
REMARK  status: ('A' for Active; 'I' for Inactive)
REMARK    1  A    between atoms: N_1  and  C_2
REMARK    2  A    between atoms: C_3  and  C_4
REMARK    3  A    between atoms: C_6  and  C_7
REMARK    4  A    between atoms: N_15  and  C_16
REMARK                            x       y       z     vdW  Elec       q    Type
REMARK                         _______ _______ _______ _____ _____    ______ ____
ROOT
ATOM      1  C   UNL     1       2.737   5.532  20.039  0.00  0.00    +0.000 A 
ATOM      2  C   UNL     1       3.514   4.761  19.190  0.00  0.00    +0.000 A 
ATOM      3  C   UNL     1       3.735   5.571  18.037  0.00  0.00    +0.000 A 
ATOM      4  N   UNL     1       3.016   6.705  18.113  0.00  0.00    +0.000 NA
ATOM      5  N   UNL     1       2.501   6.731  19.369  0.00  0.00    +0.000 N 
ENDROOT
BRANCH   3   6
ATOM      6  C   UNL     1       4.567   5.305  16.853  0.00  0.00    +0.000 A 
ATOM      7  C   UNL     1       4.815   3.984  16.446  0.00  0.00    +0.000 A 
ATOM      8  C   UNL     1       5.611   3.713  15.326  0.00  0.00    +0.000 A 
ATOM      9  C   UNL     1       6.168   4.763  14.602  0.00  0.00    +0.000 A 
ATOM     10 CL   UNL     1       7.165   4.434  13.241  0.00  0.00    +0.000 Cl
ATOM     11  C   UNL     1       5.914   6.079  14.972  0.00  0.00    +0.000 A 
ATOM     12  C   UNL     1       5.100   6.349  16.080  0.00  0.00    +0.000 A 
ENDBRANCH   3   6
BRANCH   5  13
ATOM     13  C   UNL     1       1.796   7.877  19.828  0.00  0.00    +0.000 A 
ATOM     14  C   UNL     1       1.353   7.927  21.160  0.00  0.00    +0.000 A 
ATOM     15  C   UNL     1       0.713   9.073  21.644  0.00  0.00    +0.000 A 
ATOM     16  C   UNL     1       0.481  10.149  20.791  0.00  0.00    +0.000 A 
ATOM     17 BR   UNL     1      -0.382  11.700  21.445  0.00  0.00    +0.000 Br
ATOM     18  C   UNL     1       0.874  10.093  19.455  0.00  0.00    +0.000 A 
ATOM     19  C   UNL     1       1.534   8.958  18.974  0.00  0.00    +0.000 A 
ENDBRANCH   5  13
BRANCH   1  20
ATOM     20  N   UNL     1       2.211   5.193  21.246  0.00  0.00    +0.000 N 
ATOM     21  H   UNL     1       1.965   4.213  21.408  0.00  0.00    +0.000 HD
ATOM     22  H   UNL     1       1.592   5.832  21.743  0.00  0.00    +0.000 HD
ENDBRANCH   1  20
BRANCH   2  23
ATOM     23  C   UNL     1       3.919   3.397  19.445  0.00  0.00    +0.000 C 
ATOM     24  O   UNL     1       5.053   3.062  19.781  0.00  0.00    +0.000 OA
ENDBRANCH   2  23
TORSDOF 4
ENDMDL
MODEL 6
REMARK VINA RESULT:      -6.9      0.391      1.100
REMARK  Name = 
REMARK  4 active torsions:
REMARK  status: ('A' for Active; 'I' for Inactive)
REMARK    1  A    between atoms: N_1  and  C_2
REMARK    2  A    between atoms: C_3  and  C_4
REMARK    3  A    between atoms: C_6  and  C_7
REMARK    4  A    between atoms: N_15  and  C_16
REMARK                            x       y       z     vdW  Elec       q    Type
REMARK                         _______ _______ _______ _____ _____    ______ ____
ROOT
ATOM      1  C   UNL     1       2.795   5.530  20.047  0.00  0.00    +0.000 A 
ATOM      2  C   UNL     1       3.650   4.804  19.235  0.00  0.00    +0.000 A 
ATOM      3  C   UNL     1       3.963   5.669  18.145  0.00  0.00    +0.000 A 
ATOM      4  N   UNL     1       3.230   6.794  18.210  0.00  0.00    +0.000 NA
ATOM      5  N   UNL     1       2.607   6.758  19.415  0.00  0.00    +0.000 N 
ENDROOT
BRANCH   3   6
ATOM      6  C   UNL     1       4.898   5.464  17.028  0.00  0.00    +0.000 A 
ATOM      7  C   UNL     1       4.577   4.572  15.991  0.00  0.00    +0.000 A 
ATOM      8  C   UNL     1       5.459   4.360  14.924  0.00  0.00    +0.000 A 
ATOM      9  C   UNL     1       6.674   5.038  14.885  0.00  0.00    +0.000 A 
ATOM     10 CL   UNL     1       7.770   4.761  13.590  0.00  0.00    +0.000 Cl
ATOM     11  C   UNL     1       7.001   5.945  15.886  0.00  0.00    +0.000 A 
ATOM     12  C   UNL     1       6.108   6.173  16.942  0.00  0.00    +0.000 A 
ENDBRANCH   3   6
BRANCH   5  13
ATOM     13  C   UNL     1       1.854   7.877  19.864  0.00  0.00    +0.000 A 
ATOM     14  C   UNL     1       1.505   8.886  18.951  0.00  0.00    +0.000 A 
ATOM     15  C   UNL     1       0.713   9.963  19.363  0.00  0.00    +0.000 A 
ATOM     16  C   UNL     1       0.303  10.052  20.692  0.00  0.00    +0.000 A 
ATOM     17 BR   UNL     1      -0.771  11.506  21.249  0.00  0.00    +0.000 Br
ATOM     18  C   UNL     1       0.681   9.082  21.618  0.00  0.00    +0.000 A 
ATOM     19  C   UNL     1       1.455   7.994  21.204  0.00  0.00    +0.000 A 
ENDBRANCH   5  13
BRANCH   1  20
ATOM     20  N   UNL     1       2.168   5.131  21.186  0.00  0.00    +0.000 N 
ATOM     21  H   UNL     1       1.550   4.316  21.138  0.00  0.00    +0.000 HD
ATOM     22  H   UNL     1       1.851   5.813  21.873  0.00  0.00    +0.000 HD
ENDBRANCH   1  20
BRANCH   2  23
ATOM     23  C   UNL     1       4.045   3.432  19.460  0.00  0.00    +0.000 C 
ATOM     24  O   UNL     1       5.195   3.071  19.700  0.00  0.00    +0.000 OA
ENDBRANCH   2  23
TORSDOF 4
ENDMDL
MODEL 7
REMARK VINA RESULT:      -6.9      4.161      7.091
REMARK  Name = 
REMARK  4 active torsions:
REMARK  status: ('A' for Active; 'I' for Inactive)
REMARK    1  A    between atoms: N_1  and  C_2
REMARK    2  A    between atoms: C_3  and  C_4
REMARK    3  A    between atoms: C_6  and  C_7
REMARK    4  A    between atoms: N_15  and  C_16
REMARK                            x       y       z     vdW  Elec       q    Type
REMARK                         _______ _______ _______ _____ _____    ______ ____
ROOT
ATOM      1  C   UNL     1       4.011   4.299  18.706  0.00  0.00    +0.000 A 
ATOM      2  C   UNL     1       3.157   4.944  19.586  0.00  0.00    +0.000 A 
ATOM      3  C   UNL     1       3.035   6.275  19.089  0.00  0.00    +0.000 A 
ATOM      4  N   UNL     1       3.875   6.472  18.059  0.00  0.00    +0.000 NA
ATOM      5  N   UNL     1       4.382   5.250  17.758  0.00  0.00    +0.000 N 
ENDROOT
BRANCH   3   6
ATOM      6  C   UNL     1       2.184   7.376  19.568  0.00  0.00    +0.000 A 
ATOM      7  C   UNL     1       1.879   8.453  18.720  0.00  0.00    +0.000 A 
ATOM      8  C   UNL     1       1.077   9.513  19.163  0.00  0.00    +0.000 A 
ATOM      9  C   UNL     1       0.573   9.505  20.460  0.00  0.00    +0.000 A 
ATOM     10 CL   UNL     1      -0.392  10.815  21.015  0.00  0.00    +0.000 Cl
ATOM     11  C   UNL     1       0.841   8.436  21.308  0.00  0.00    +0.000 A 
ATOM     12  C   UNL     1       1.626   7.366  20.857  0.00  0.00    +0.000 A 
ENDBRANCH   3   6
BRANCH   5  13
ATOM     13  C   UNL     1       5.208   5.082  16.612  0.00  0.00    +0.000 A 
ATOM     14  C   UNL     1       4.688   4.445  15.474  0.00  0.00    +0.000 A 
ATOM     15  C   UNL     1       5.467   4.326  14.318  0.00  0.00    +0.000 A 
ATOM     16  C   UNL     1       6.775   4.807  14.312  0.00  0.00    +0.000 A 
ATOM     17 BR   UNL     1       7.828   4.650  12.749  0.00  0.00    +0.000 Br
ATOM     18  C   UNL     1       7.317   5.399  15.450  0.00  0.00    +0.000 A 
ATOM     19  C   UNL     1       6.534   5.538  16.600  0.00  0.00    +0.000 A 
ENDBRANCH   5  13
BRANCH   1  20
ATOM     20  N   UNL     1       4.490   3.028  18.769  0.00  0.00    +0.000 N 
ATOM     21  H   UNL     1       4.222   2.374  18.028  0.00  0.00    +0.000 HD
ATOM     22  H   UNL     1       4.616   2.561  19.665  0.00  0.00    +0.000 HD
ENDBRANCH   1  20
BRANCH   2  23
ATOM     23  C   UNL     1       2.601   4.356  20.784  0.00  0.00    +0.000 C 
ATOM     24  O   UNL     1       2.548   3.148  21.003  0.00  0.00    +0.000 OA
ENDBRANCH   2  23
TORSDOF 4
ENDMDL
MODEL 8
REMARK VINA RESULT:      -6.8      2.010      2.769
REMARK  Name = 
REMARK  4 active torsions:
REMARK  status: ('A' for Active; 'I' for Inactive)
REMARK    1  A    between atoms: N_1  and  C_2
REMARK    2  A    between atoms: C_3  and  C_4
REMARK    3  A    between atoms: C_6  and  C_7
REMARK    4  A    between atoms: N_15  and  C_16
REMARK                            x       y       z     vdW  Elec       q    Type
REMARK                         _______ _______ _______ _____ _____    ______ ____
ROOT
ATOM      1  C   UNL     1       1.581   7.989  20.148  0.00  0.00    +0.000 A 
ATOM      2  C   UNL     1       2.234   6.826  19.775  0.00  0.00    +0.000 A 
ATOM      3  C   UNL     1       2.728   7.073  18.460  0.00  0.00    +0.000 A 
ATOM      4  N   UNL     1       2.279   8.255  18.003  0.00  0.00    +0.000 NA
ATOM      5  N   UNL     1       1.678   8.856  19.061  0.00  0.00    +0.000 N 
ENDROOT
BRANCH   3   6
ATOM      6  C   UNL     1       3.576   6.227  17.607  0.00  0.00    +0.000 A 
ATOM      7  C   UNL     1       4.601   6.801  16.837  0.00  0.00    +0.000 A 
ATOM      8  C   UNL     1       5.412   6.011  16.013  0.00  0.00    +0.000 A 
ATOM      9  C   UNL     1       5.205   4.636  15.951  0.00  0.00    +0.000 A 
ATOM     10 CL   UNL     1       6.183   3.666  14.923  0.00  0.00    +0.000 Cl
ATOM     11  C   UNL     1       4.214   4.043  16.725  0.00  0.00    +0.000 A 
ATOM     12  C   UNL     1       3.416   4.832  17.564  0.00  0.00    +0.000 A 
ENDBRANCH   3   6
BRANCH   5  13
ATOM     13  C   UNL     1       1.213  10.195  18.953  0.00  0.00    +0.000 A 
ATOM     14  C   UNL     1      -0.140  10.479  19.203  0.00  0.00    +0.000 A 
ATOM     15  C   UNL     1      -0.600  11.799  19.161  0.00  0.00    +0.000 A 
ATOM     16  C   UNL     1       0.280  12.829  18.832  0.00  0.00    +0.000 A 
ATOM     17 BR   UNL     1      -0.340  14.614  18.778  0.00  0.00    +0.000 Br
ATOM     18  C   UNL     1       1.613  12.555  18.536  0.00  0.00    +0.000 A 
ATOM     19  C   UNL     1       2.081  11.238  18.598  0.00  0.00    +0.000 A 
ENDBRANCH   5  13
BRANCH   1  20
ATOM     20  N   UNL     1       0.891   8.244  21.293  0.00  0.00    +0.000 N 
ATOM     21  H   UNL     1      -0.063   7.882  21.372  0.00  0.00    +0.000 HD
ATOM     22  H   UNL     1       1.011   9.125  21.788  0.00  0.00    +0.000 HD
ENDBRANCH   1  20
BRANCH   2  23
ATOM     23  C   UNL     1       2.298   5.620  20.568  0.00  0.00    +0.000 C 
ATOM     24  O   UNL     1       1.409   4.773  20.616  0.00  0.00    +0.000 OA
ENDBRANCH   2  23
TORSDOF 4
ENDMDL
MODEL 9
REMARK VINA RESULT:      -6.8      4.163      7.101
REMARK  Name = 
REMARK  4 active torsions:
REMARK  status: ('A' for Active; 'I' for Inactive)
REMARK    1  A    between atoms: N_1  and  C_2
REMARK    2  A    between atoms: C_3  and  C_4
REMARK    3  A    between atoms: C_6  and  C_7
REMARK    4  A    between atoms: N_15  and  C_16
REMARK                            x       y       z     vdW  Elec       q    Type
REMARK                         _______ _______ _______ _____ _____    ______ ____
ROOT
ATOM      1  C   UNL     1       3.942   4.353  18.702  0.00  0.00    +0.000 A 
ATOM      2  C   UNL     1       3.076   4.996  19.571  0.00  0.00    +0.000 A 
ATOM      3  C   UNL     1       2.973   6.332  19.084  0.00  0.00    +0.000 A 
ATOM      4  N   UNL     1       3.834   6.532  18.072  0.00  0.00    +0.000 NA
ATOM      5  N   UNL     1       4.339   5.310  17.770  0.00  0.00    +0.000 N 
ENDROOT
BRANCH   3   6
ATOM      6  C   UNL     1       2.122   7.435  19.556  0.00  0.00    +0.000 A 
ATOM      7  C   UNL     1       1.609   7.424  20.864  0.00  0.00    +0.000 A 
ATOM      8  C   UNL     1       0.792   8.463  21.326  0.00  0.00    +0.000 A 
ATOM      9  C   UNL     1       0.477   9.524  20.482  0.00  0.00    +0.000 A 
ATOM     10 CL   UNL     1      -0.546  10.789  21.039  0.00  0.00    +0.000 Cl
ATOM     11  C   UNL     1       0.995   9.569  19.193  0.00  0.00    +0.000 A 
ATOM     12  C   UNL     1       1.830   8.540  18.739  0.00  0.00    +0.000 A 
ENDBRANCH   3   6
BRANCH   5  13
ATOM     13  C   UNL     1       5.185   5.145  16.639  0.00  0.00    +0.000 A 
ATOM     14  C   UNL     1       4.714   4.437  15.521  0.00  0.00    +0.000 A 
ATOM     15  C   UNL     1       5.511   4.319  14.377  0.00  0.00    +0.000 A 
ATOM     16  C   UNL     1       6.790   4.872  14.365  0.00  0.00    +0.000 A 
ATOM     17 BR   UNL     1       7.867   4.716  12.818  0.00  0.00    +0.000 Br
ATOM     18  C   UNL     1       7.286   5.537  15.484  0.00  0.00    +0.000 A 
ATOM     19  C   UNL     1       6.483   5.675  16.621  0.00  0.00    +0.000 A 
ENDBRANCH   5  13
BRANCH   1  20
ATOM     20  N   UNL     1       4.410   3.077  18.763  0.00  0.00    +0.000 N 
ATOM     21  H   UNL     1       4.233   2.538  19.615  0.00  0.00    +0.000 HD
ATOM     22  H   UNL     1       5.294   2.825  18.325  0.00  0.00    +0.000 HD
ENDBRANCH   1  20
BRANCH   2  23
ATOM     23  C   UNL     1       2.493   4.402  20.753  0.00  0.00    +0.000 C 
ATOM     24  O   UNL     1       2.004   3.275  20.793  0.00  0.00    +0.000 OA
ENDBRANCH   2  23
TORSDOF 4
ENDMDL
