MODEL 1
REMARK VINA RESULT:      -6.4      0.000      0.000
REMARK  Name = 
REMARK  14 active torsions:
REMARK  status: ('A' for Active; 'I' for Inactive)
REMARK    1  A    between atoms: C_1  and  N_2
REMARK    2  A    between atoms: N_2  and  C_3
REMARK    3  A    between atoms: C_3  and  C_4
REMARK    4  A    between atoms: N_6  and  C_7
REMARK    5  A    between atoms: C_7  and  C_8
REMARK    6  A    between atoms: C_8  and  C_9
REMARK    7  A    between atoms: C_8  and  C_12
REMARK    8  A    between atoms: C_9  and  C_10
REMARK    9  A    between atoms: C_10  and  O_11
REMARK   10  A    between atoms: C_18  and  O_20
REMARK   11  A    between atoms: O_20  and  C_21
REMARK   12  A    between atoms: C_21  and  C_22
REMARK   13  A    between atoms: C_21  and  C_23
REMARK   14  A    between atoms: C_21  and  C_24
REMARK                            x       y       z     vdW  Elec       q    Type
REMARK                         _______ _______ _______ _____ _____    ______ ____
ROOT
ATOM      1  C   UNL     1       2.177   4.840  20.249  0.00  0.00    +0.000 C 
ATOM      2  O   UNL     1       1.040   4.396  20.403  0.00  0.00    +0.000 OA
ATOM      3  N   UNL     1       2.482   6.198  20.378  0.00  0.00    +0.000 N 
ATOM      4  H   UNL     1       3.438   6.443  20.609  0.00  0.00    +0.000 HD
ENDROOT
BRANCH   1   5
ATOM      5  C   UNL     1       3.348   3.943  19.819  0.00  0.00    +0.000 C 
BRANCH   5   7
ATOM      6  C   UNL     1       3.394   3.916  17.304  0.00  0.00    +0.000 C 
ATOM      7  N   UNL     1       3.972   4.349  18.562  0.00  0.00    +0.000 N 
ATOM      8  C   UNL     1       5.067   5.189  18.620  0.00  0.00    +0.000 C 
ATOM      9  O   UNL     1       5.600   5.493  19.684  0.00  0.00    +0.000 OA
BRANCH   8  10
ATOM     10  O   UNL     1       5.439   5.669  17.399  0.00  0.00    +0.000 OA
BRANCH  10  11
ATOM     11  C   UNL     1       6.846   5.672  17.024  0.00  0.00    +0.000 C 
ATOM     12  C   UNL     1       7.601   4.536  17.725  0.00  0.00    +0.000 C 
ATOM     13  C   UNL     1       6.900   5.408  15.506  0.00  0.00    +0.000 C 
ATOM     14  C   UNL     1       7.479   7.048  17.273  0.00  0.00    +0.000 C 
ENDBRANCH  10  11
ENDBRANCH   8  10
ENDBRANCH   5   7
ENDBRANCH   1   5
BRANCH   3  15
ATOM     15  C   UNL     1       1.399   7.101  20.732  0.00  0.00    +0.000 C 
BRANCH  15  16
ATOM     16  C   UNL     1       1.481   8.579  20.261  0.00  0.00    +0.000 C 
BRANCH  16  17
ATOM     17  C   UNL     1       0.598   9.519  21.108  0.00  0.00    +0.000 A 
ATOM     18  C   UNL     1       0.165  10.773  20.638  0.00  0.00    +0.000 A 
ATOM     19  C   UNL     1      -0.599  11.630  21.434  0.00  0.00    +0.000 A 
ATOM     20  C   UNL     1      -0.954  11.253  22.724  0.00  0.00    +0.000 A 
ATOM     21  C   UNL     1      -0.561  10.010  23.207  0.00  0.00    +0.000 A 
ATOM     22  C   UNL     1       0.196   9.146  22.404  0.00  0.00    +0.000 A 
ENDBRANCH  16  17
BRANCH  16  23
ATOM     23  C   UNL     1       1.197   8.747  18.749  0.00  0.00    +0.000 C 
BRANCH  23  24
ATOM     24  C   UNL     1       2.435   8.983  17.891  0.00  0.00    +0.000 C 
BRANCH  24  25
ATOM     25  O   UNL     1       3.161   7.763  17.771  0.00  0.00    +0.000 OA
ATOM     26  H   UNL     1       4.077   7.993  17.533  0.00  0.00    +0.000 HD
ENDBRANCH  24  25
ENDBRANCH  23  24
ENDBRANCH  16  23
ENDBRANCH  15  16
ENDBRANCH   3  15
TORSDOF 10
ENDMDL
MODEL 2
REMARK VINA RESULT:      -6.4      2.434      7.663
REMARK  Name = 
REMARK  14 active torsions:
REMARK  status: ('A' for Active; 'I' for Inactive)
REMARK    1  A    between atoms: C_1  and  N_2
REMARK    2  A    between atoms: N_2  and  C_3
REMARK    3  A    between atoms: C_3  and  C_4
REMARK    4  A    between atoms: N_6  and  C_7
REMARK    5  A    between atoms: C_7  and  C_8
REMARK    6  A    between atoms: C_8  and  C_9
REMARK    7  A    between atoms: C_8  and  C_12
REMARK    8  A    between atoms: C_9  and  C_10
REMARK    9  A    between atoms: C_10  and  O_11
REMARK   10  A    between atoms: C_18  and  O_20
REMARK   11  A    between atoms: O_20  and  C_21
REMARK   12  A    between atoms: C_21  and  C_22
REMARK   13  A    between atoms: C_21  and  C_23
REMARK   14  A    between atoms: C_21  and  C_24
REMARK                            x       y       z     vdW  Elec       q    Type
REMARK                         _______ _______ _______ _____ _____    ______ ____
ROOT
ATOM      1  C   UNL     1       1.877   8.933  18.030  0.00  0.00    +0.000 C 
ATOM      2  O   UNL     1       2.592   9.116  17.046  0.00  0.00    +0.000 OA
ATOM      3  N   UNL     1       2.068   7.869  18.916  0.00  0.00    +0.000 N 
ATOM      4  H   UNL     1       1.718   7.978  19.861  0.00  0.00    +0.000 HD
ENDROOT
BRANCH   1   5
ATOM      5  C   UNL     1       0.658   9.820  18.323  0.00  0.00    +0.000 C 
BRANCH   5   7
ATOM      6  C   UNL     1       1.514  12.052  19.105  0.00  0.00    +0.000 C 
ATOM      7  N   UNL     1       0.874  10.784  19.398  0.00  0.00    +0.000 N 
ATOM      8  C   UNL     1       0.401  10.472  20.658  0.00  0.00    +0.000 C 
ATOM      9  O   UNL     1      -0.072   9.371  20.922  0.00  0.00    +0.000 OA
BRANCH   8  10
ATOM     10  O   UNL     1       0.468  11.519  21.531  0.00  0.00    +0.000 OA
BRANCH  10  11
ATOM     11  C   UNL     1      -0.752  12.206  21.927  0.00  0.00    +0.000 C 
ATOM     12  C   UNL     1      -1.784  12.187  20.793  0.00  0.00    +0.000 C 
ATOM     13  C   UNL     1      -1.339  11.416  23.113  0.00  0.00    +0.000 C 
ATOM     14  C   UNL     1      -0.447  13.625  22.427  0.00  0.00    +0.000 C 
ENDBRANCH  10  11
ENDBRANCH   8  10
ENDBRANCH   5   7
ENDBRANCH   1   5
BRANCH   3  15
ATOM     15  C   UNL     1       3.177   6.966  18.656  0.00  0.00    +0.000 C 
BRANCH  15  16
ATOM     16  C   UNL     1       2.871   5.572  18.043  0.00  0.00    +0.000 C 
BRANCH  16  17
ATOM     17  C   UNL     1       2.286   4.587  19.076  0.00  0.00    +0.000 A 
ATOM     18  C   UNL     1       1.366   3.582  18.723  0.00  0.00    +0.000 A 
ATOM     19  C   UNL     1       0.813   2.725  19.678  0.00  0.00    +0.000 A 
ATOM     20  C   UNL     1       1.170   2.850  21.017  0.00  0.00    +0.000 A 
ATOM     21  C   UNL     1       2.095   3.819  21.392  0.00  0.00    +0.000 A 
ATOM     22  C   UNL     1       2.656   4.670  20.432  0.00  0.00    +0.000 A 
ENDBRANCH  16  17
BRANCH  16  23
ATOM     23  C   UNL     1       4.084   4.960  17.303  0.00  0.00    +0.000 C 
BRANCH  23  24
ATOM     24  C   UNL     1       5.412   5.088  18.042  0.00  0.00    +0.000 C 
BRANCH  24  25
ATOM     25  O   UNL     1       5.722   3.846  18.665  0.00  0.00    +0.000 OA
ATOM     26  H   UNL     1       4.950   3.262  18.550  0.00  0.00    +0.000 HD
ENDBRANCH  24  25
ENDBRANCH  23  24
ENDBRANCH  16  23
ENDBRANCH  15  16
ENDBRANCH   3  15
TORSDOF 10
ENDMDL
MODEL 3
REMARK VINA RESULT:      -6.3      2.650      7.831
REMARK  Name = 
REMARK  14 active torsions:
REMARK  status: ('A' for Active; 'I' for Inactive)
REMARK    1  A    between atoms: C_1  and  N_2
REMARK    2  A    between atoms: N_2  and  C_3
REMARK    3  A    between atoms: C_3  and  C_4
REMARK    4  A    between atoms: N_6  and  C_7
REMARK    5  A    between atoms: C_7  and  C_8
REMARK    6  A    between atoms: C_8  and  C_9
REMARK    7  A    between atoms: C_8  and  C_12
REMARK    8  A    between atoms: C_9  and  C_10
REMARK    9  A    between atoms: C_10  and  O_11
REMARK   10  A    between atoms: C_18  and  O_20
REMARK   11  A    between atoms: O_20  and  C_21
REMARK   12  A    between atoms: C_21  and  C_22
REMARK   13  A    between atoms: C_21  and  C_23
REMARK   14  A    between atoms: C_21  and  C_24
REMARK                            x       y       z     vdW  Elec       q    Type
REMARK                         _______ _______ _______ _____ _____    ______ ____
ROOT
ATOM      1  C   UNL     1       1.671   9.160  18.306  0.00  0.00    +0.000 C 
ATOM      2  O   UNL     1       2.376   9.220  17.299  0.00  0.00    +0.000 OA
ATOM      3  N   UNL     1       1.829   8.173  19.283  0.00  0.00    +0.000 N 
ATOM      4  H   UNL     1       1.502   8.384  20.219  0.00  0.00    +0.000 HD
ENDROOT
BRANCH   1   5
ATOM      5  C   UNL     1       0.499  10.126  18.533  0.00  0.00    +0.000 C 
BRANCH   5   7
ATOM      6  C   UNL     1       1.402  12.262  19.509  0.00  0.00    +0.000 C 
ATOM      7  N   UNL     1       0.680  11.015  19.678  0.00  0.00    +0.000 N 
ATOM      8  C   UNL     1       0.098  10.658  20.879  0.00  0.00    +0.000 C 
ATOM      9  O   UNL     1      -0.447   9.570  21.040  0.00  0.00    +0.000 OA
BRANCH   8  10
ATOM     10  O   UNL     1       0.151  11.649  21.815  0.00  0.00    +0.000 OA
BRANCH  10  11
ATOM     11  C   UNL     1      -1.068  12.352  22.190  0.00  0.00    +0.000 C 
ATOM     12  C   UNL     1      -2.026  12.457  20.997  0.00  0.00    +0.000 C 
ATOM     13  C   UNL     1      -1.755  11.499  23.275  0.00  0.00    +0.000 C 
ATOM     14  C   UNL     1      -0.746  13.716  22.815  0.00  0.00    +0.000 C 
ENDBRANCH  10  11
ENDBRANCH   8  10
ENDBRANCH   5   7
ENDBRANCH   1   5
BRANCH   3  15
ATOM     15  C   UNL     1       2.892   7.200  19.091  0.00  0.00    +0.000 C 
BRANCH  15  16
ATOM     16  C   UNL     1       2.648   6.018  18.112  0.00  0.00    +0.000 C 
BRANCH  16  17
ATOM     17  C   UNL     1       2.014   4.796  18.808  0.00  0.00    +0.000 A 
ATOM     18  C   UNL     1       1.804   4.745  20.198  0.00  0.00    +0.000 A 
ATOM     19  C   UNL     1       1.268   3.614  20.819  0.00  0.00    +0.000 A 
ATOM     20  C   UNL     1       0.923   2.500  20.061  0.00  0.00    +0.000 A 
ATOM     21  C   UNL     1       1.097   2.530  18.681  0.00  0.00    +0.000 A 
ATOM     22  C   UNL     1       1.625   3.669  18.059  0.00  0.00    +0.000 A 
ENDBRANCH  16  17
BRANCH  16  23
ATOM     23  C   UNL     1       3.915   5.622  17.318  0.00  0.00    +0.000 C 
BRANCH  23  24
ATOM     24  C   UNL     1       4.924   6.749  17.125  0.00  0.00    +0.000 C 
BRANCH  24  25
ATOM     25  O   UNL     1       5.418   6.712  15.790  0.00  0.00    +0.000 OA
ATOM     26  H   UNL     1       4.737   6.281  15.241  0.00  0.00    +0.000 HD
ENDBRANCH  24  25
ENDBRANCH  23  24
ENDBRANCH  16  23
ENDBRANCH  15  16
ENDBRANCH   3  15
TORSDOF 10
ENDMDL
MODEL 4
REMARK VINA RESULT:      -6.1      2.595      7.867
REMARK  Name = 
REMARK  14 active torsions:
REMARK  status: ('A' for Active; 'I' for Inactive)
REMARK    1  A    between atoms: C_1  and  N_2
REMARK    2  A    between atoms: N_2  and  C_3
REMARK    3  A    between atoms: C_3  and  C_4
REMARK    4  A    between atoms: N_6  and  C_7
REMARK    5  A    between atoms: C_7  and  C_8
REMARK    6  A    between atoms: C_8  and  C_9
REMARK    7  A    between atoms: C_8  and  C_12
REMARK    8  A    between atoms: C_9  and  C_10
REMARK    9  A    between atoms: C_10  and  O_11
REMARK   10  A    between atoms: C_18  and  O_20
REMARK   11  A    between atoms: O_20  and  C_21
REMARK   12  A    between atoms: C_21  and  C_22
REMARK   13  A    between atoms: C_21  and  C_23
REMARK   14  A    between atoms: C_21  and  C_24
REMARK                            x       y       z     vdW  Elec       q    Type
REMARK                         _______ _______ _______ _____ _____    ______ ____
ROOT
ATOM      1  C   UNL     1       1.660   9.153  18.264  0.00  0.00    +0.000 C 
ATOM      2  O   UNL     1       2.384   9.237  17.273  0.00  0.00    +0.000 OA
ATOM      3  N   UNL     1       1.820   8.161  19.236  0.00  0.00    +0.000 N 
ATOM      4  H   UNL     1       1.469   8.357  20.167  0.00  0.00    +0.000 HD
ENDROOT
BRANCH   1   5
ATOM      5  C   UNL     1       0.461  10.091  18.475  0.00  0.00    +0.000 C 
BRANCH   5   7
ATOM      6  C   UNL     1       1.298  12.300  19.340  0.00  0.00    +0.000 C 
ATOM      7  N   UNL     1       0.636  11.032  19.579  0.00  0.00    +0.000 N 
ATOM      8  C   UNL     1       0.103  10.699  20.809  0.00  0.00    +0.000 C 
ATOM      9  O   UNL     1      -0.391   9.596  21.029  0.00  0.00    +0.000 OA
BRANCH   8  10
ATOM     10  O   UNL     1       0.138  11.728  21.704  0.00  0.00    +0.000 OA
BRANCH  10  11
ATOM     11  C   UNL     1      -1.107  12.332  22.157  0.00  0.00    +0.000 C 
ATOM     12  C   UNL     1      -1.746  11.496  23.272  0.00  0.00    +0.000 C 
ATOM     13  C   UNL     1      -0.741  13.708  22.749  0.00  0.00    +0.000 C 
ATOM     14  C   UNL     1      -2.060  12.577  20.979  0.00  0.00    +0.000 C 
ENDBRANCH  10  11
ENDBRANCH   8  10
ENDBRANCH   5   7
ENDBRANCH   1   5
BRANCH   3  15
ATOM     15  C   UNL     1       2.908   7.214  19.058  0.00  0.00    +0.000 C 
BRANCH  15  16
ATOM     16  C   UNL     1       2.685   5.995  18.120  0.00  0.00    +0.000 C 
BRANCH  16  17
ATOM     17  C   UNL     1       2.023   4.805  18.845  0.00  0.00    +0.000 A 
ATOM     18  C   UNL     1       1.945   4.726  20.248  0.00  0.00    +0.000 A 
ATOM     19  C   UNL     1       1.380   3.621  20.890  0.00  0.00    +0.000 A 
ATOM     20  C   UNL     1       0.874   2.564  20.142  0.00  0.00    +0.000 A 
ATOM     21  C   UNL     1       0.917   2.624  18.753  0.00  0.00    +0.000 A 
ATOM     22  C   UNL     1       1.473   3.738  18.111  0.00  0.00    +0.000 A 
ENDBRANCH  16  17
BRANCH  16  23
ATOM     23  C   UNL     1       3.973   5.561  17.380  0.00  0.00    +0.000 C 
BRANCH  23  24
ATOM     24  C   UNL     1       4.890   4.645  18.182  0.00  0.00    +0.000 C 
BRANCH  24  25
ATOM     25  O   UNL     1       5.779   5.438  18.961  0.00  0.00    +0.000 OA
ATOM     26  H   UNL     1       5.239   5.934  19.602  0.00  0.00    +0.000 HD
ENDBRANCH  24  25
ENDBRANCH  23  24
ENDBRANCH  16  23
ENDBRANCH  15  16
ENDBRANCH   3  15
TORSDOF 10
ENDMDL
MODEL 5
REMARK VINA RESULT:      -6.1      2.580      4.460
REMARK  Name = 
REMARK  14 active torsions:
REMARK  status: ('A' for Active; 'I' for Inactive)
REMARK    1  A    between atoms: C_1  and  N_2
REMARK    2  A    between atoms: N_2  and  C_3
REMARK    3  A    between atoms: C_3  and  C_4
REMARK    4  A    between atoms: N_6  and  C_7
REMARK    5  A    between atoms: C_7  and  C_8
REMARK    6  A    between atoms: C_8  and  C_9
REMARK    7  A    between atoms: C_8  and  C_12
REMARK    8  A    between atoms: C_9  and  C_10
REMARK    9  A    between atoms: C_10  and  O_11
REMARK   10  A    between atoms: C_18  and  O_20
REMARK   11  A    between atoms: O_20  and  C_21
REMARK   12  A    between atoms: C_21  and  C_22
REMARK   13  A    between atoms: C_21  and  C_23
REMARK   14  A    between atoms: C_21  and  C_24
REMARK                            x       y       z     vdW  Elec       q    Type
REMARK                         _______ _______ _______ _____ _____    ______ ____
ROOT
ATOM      1  C   UNL     1       4.569   3.340  17.171  0.00  0.00    +0.000 C 
ATOM      2  O   UNL     1       3.553   2.650  17.107  0.00  0.00    +0.000 OA
ATOM      3  N   UNL     1       4.908   4.083  18.306  0.00  0.00    +0.000 N 
ATOM      4  H   UNL     1       5.887   4.311  18.441  0.00  0.00    +0.000 HD
ENDROOT
BRANCH   1   5
ATOM      5  C   UNL     1       5.515   3.506  15.972  0.00  0.00    +0.000 C 
BRANCH   5   7
ATOM      6  C   UNL     1       5.321   5.875  15.147  0.00  0.00    +0.000 C 
ATOM      7  N   UNL     1       6.074   4.849  15.843  0.00  0.00    +0.000 N 
ATOM      8  C   UNL     1       7.288   5.110  16.450  0.00  0.00    +0.000 C 
ATOM      9  O   UNL     1       7.958   4.225  16.973  0.00  0.00    +0.000 OA
BRANCH   8  10
ATOM     10  O   UNL     1       7.615   6.435  16.446  0.00  0.00    +0.000 OA
BRANCH  10  11
ATOM     11  C   UNL     1       7.374   7.240  17.635  0.00  0.00    +0.000 C 
ATOM     12  C   UNL     1       5.870   7.438  17.865  0.00  0.00    +0.000 C 
ATOM     13  C   UNL     1       7.933   6.443  18.830  0.00  0.00    +0.000 C 
ATOM     14  C   UNL     1       8.144   8.566  17.567  0.00  0.00    +0.000 C 
ENDBRANCH  10  11
ENDBRANCH   8  10
ENDBRANCH   5   7
ENDBRANCH   1   5
BRANCH   3  15
ATOM     15  C   UNL     1       4.019   4.005  19.453  0.00  0.00    +0.000 C 
BRANCH  15  16
ATOM     16  C   UNL     1       2.522   4.371  19.258  0.00  0.00    +0.000 C 
BRANCH  16  17
ATOM     17  C   UNL     1       2.279   5.894  19.277  0.00  0.00    +0.000 A 
ATOM     18  C   UNL     1       1.901   6.583  20.445  0.00  0.00    +0.000 A 
ATOM     19  C   UNL     1       1.643   7.956  20.436  0.00  0.00    +0.000 A 
ATOM     20  C   UNL     1       1.761   8.680  19.255  0.00  0.00    +0.000 A 
ATOM     21  C   UNL     1       2.155   8.031  18.090  0.00  0.00    +0.000 A 
ATOM     22  C   UNL     1       2.424   6.656  18.103  0.00  0.00    +0.000 A 
ENDBRANCH  16  17
BRANCH  16  23
ATOM     23  C   UNL     1       1.588   3.638  20.250  0.00  0.00    +0.000 C 
BRANCH  23  24
ATOM     24  C   UNL     1       2.307   2.886  21.364  0.00  0.00    +0.000 C 
BRANCH  24  25
ATOM     25  O   UNL     1       1.361   2.503  22.357  0.00  0.00    +0.000 OA
ATOM     26  H   UNL     1       1.356   1.529  22.393  0.00  0.00    +0.000 HD
ENDBRANCH  24  25
ENDBRANCH  23  24
ENDBRANCH  16  23
ENDBRANCH  15  16
ENDBRANCH   3  15
TORSDOF 10
ENDMDL
MODEL 6
REMARK VINA RESULT:      -6.1      2.028      2.681
REMARK  Name = 
REMARK  14 active torsions:
REMARK  status: ('A' for Active; 'I' for Inactive)
REMARK    1  A    between atoms: C_1  and  N_2
REMARK    2  A    between atoms: N_2  and  C_3
REMARK    3  A    between atoms: C_3  and  C_4
REMARK    4  A    between atoms: N_6  and  C_7
REMARK    5  A    between atoms: C_7  and  C_8
REMARK    6  A    between atoms: C_8  and  C_9
REMARK    7  A    between atoms: C_8  and  C_12
REMARK    8  A    between atoms: C_9  and  C_10
REMARK    9  A    between atoms: C_10  and  O_11
REMARK   10  A    between atoms: C_18  and  O_20
REMARK   11  A    between atoms: O_20  and  C_21
REMARK   12  A    between atoms: C_21  and  C_22
REMARK   13  A    between atoms: C_21  and  C_23
REMARK   14  A    between atoms: C_21  and  C_24
REMARK                            x       y       z     vdW  Elec       q    Type
REMARK                         _______ _______ _______ _____ _____    ______ ____
ROOT
ATOM      1  C   UNL     1       2.499   7.666  18.629  0.00  0.00    +0.000 C 
ATOM      2  O   UNL     1       3.128   7.952  17.611  0.00  0.00    +0.000 OA
ATOM      3  N   UNL     1       1.580   8.538  19.220  0.00  0.00    +0.000 N 
ATOM      4  H   UNL     1       0.851   8.131  19.795  0.00  0.00    +0.000 HD
ENDROOT
BRANCH   1   5
ATOM      5  C   UNL     1       2.732   6.349  19.384  0.00  0.00    +0.000 C 
BRANCH   5   7
ATOM      6  C   UNL     1       2.409   4.558  17.647  0.00  0.00    +0.000 C 
ATOM      7  N   UNL     1       3.281   5.281  18.552  0.00  0.00    +0.000 N 
ATOM      8  C   UNL     1       4.640   5.039  18.617  0.00  0.00    +0.000 C 
ATOM      9  O   UNL     1       5.363   5.599  19.436  0.00  0.00    +0.000 OA
BRANCH   8  10
ATOM     10  O   UNL     1       5.076   4.173  17.657  0.00  0.00    +0.000 OA
BRANCH  10  11
ATOM     11  C   UNL     1       6.029   4.629  16.655  0.00  0.00    +0.000 C 
ATOM     12  C   UNL     1       7.462   4.572  17.198  0.00  0.00    +0.000 C 
ATOM     13  C   UNL     1       5.932   3.645  15.472  0.00  0.00    +0.000 C 
ATOM     14  C   UNL     1       5.649   6.020  16.127  0.00  0.00    +0.000 C 
ENDBRANCH  10  11
ENDBRANCH   8  10
ENDBRANCH   5   7
ENDBRANCH   1   5
BRANCH   3  15
ATOM     15  C   UNL     1       1.359   9.822  18.575  0.00  0.00    +0.000 C 
BRANCH  15  16
ATOM     16  C   UNL     1       0.065  10.611  18.917  0.00  0.00    +0.000 C 
BRANCH  16  17
ATOM     17  C   UNL     1      -0.284  10.553  20.418  0.00  0.00    +0.000 A 
ATOM     18  C   UNL     1      -0.610  11.703  21.161  0.00  0.00    +0.000 A 
ATOM     19  C   UNL     1      -0.882  11.639  22.530  0.00  0.00    +0.000 A 
ATOM     20  C   UNL     1      -0.838  10.418  23.194  0.00  0.00    +0.000 A 
ATOM     21  C   UNL     1      -0.542   9.261  22.480  0.00  0.00    +0.000 A 
ATOM     22  C   UNL     1      -0.280   9.325  21.106  0.00  0.00    +0.000 A 
ENDBRANCH  16  17
BRANCH  16  23
ATOM     23  C   UNL     1      -1.141  10.199  18.040  0.00  0.00    +0.000 C 
BRANCH  23  24
ATOM     24  C   UNL     1      -2.040  11.354  17.610  0.00  0.00    +0.000 C 
BRANCH  24  25
ATOM     25  O   UNL     1      -1.257  12.538  17.493  0.00  0.00    +0.000 OA
ATOM     26  H   UNL     1      -0.320  12.271  17.526  0.00  0.00    +0.000 HD
ENDBRANCH  24  25
ENDBRANCH  23  24
ENDBRANCH  16  23
ENDBRANCH  15  16
ENDBRANCH   3  15
TORSDOF 10
ENDMDL
MODEL 7
REMARK VINA RESULT:      -6.0      1.998      3.140
REMARK  Name = 
REMARK  14 active torsions:
REMARK  status: ('A' for Active; 'I' for Inactive)
REMARK    1  A    between atoms: C_1  and  N_2
REMARK    2  A    between atoms: N_2  and  C_3
REMARK    3  A    between atoms: C_3  and  C_4
REMARK    4  A    between atoms: N_6  and  C_7
REMARK    5  A    between atoms: C_7  and  C_8
REMARK    6  A    between atoms: C_8  and  C_9
REMARK    7  A    between atoms: C_8  and  C_12
REMARK    8  A    between atoms: C_9  and  C_10
REMARK    9  A    between atoms: C_10  and  O_11
REMARK   10  A    between atoms: C_18  and  O_20
REMARK   11  A    between atoms: O_20  and  C_21
REMARK   12  A    between atoms: C_21  and  C_22
REMARK   13  A    between atoms: C_21  and  C_23
REMARK   14  A    between atoms: C_21  and  C_24
REMARK                            x       y       z     vdW  Elec       q    Type
REMARK                         _______ _______ _______ _____ _____    ______ ____
ROOT
ATOM      1  C   UNL     1       2.648   6.528  19.584  0.00  0.00    +0.000 C 
ATOM      2  O   UNL     1       2.985   7.136  18.570  0.00  0.00    +0.000 OA
ATOM      3  N   UNL     1       1.975   7.141  20.645  0.00  0.00    +0.000 N 
ATOM      4  H   UNL     1       1.413   6.550  21.247  0.00  0.00    +0.000 HD
ENDROOT
BRANCH   1   5
ATOM      5  C   UNL     1       3.012   5.052  19.804  0.00  0.00    +0.000 C 
BRANCH   5   7
ATOM      6  C   UNL     1       2.487   3.958  17.601  0.00  0.00    +0.000 C 
ATOM      7  N   UNL     1       3.461   4.368  18.594  0.00  0.00    +0.000 N 
ATOM      8  C   UNL     1       4.819   4.189  18.413  0.00  0.00    +0.000 C 
ATOM      9  O   UNL     1       5.635   4.468  19.286  0.00  0.00    +0.000 OA
BRANCH   8  10
ATOM     10  O   UNL     1       5.138   3.733  17.167  0.00  0.00    +0.000 OA
BRANCH  10  11
ATOM     11  C   UNL     1       5.913   4.576  16.268  0.00  0.00    +0.000 C 
ATOM     12  C   UNL     1       5.363   6.007  16.251  0.00  0.00    +0.000 C 
ATOM     13  C   UNL     1       7.345   4.627  16.834  0.00  0.00    +0.000 C 
ATOM     14  C   UNL     1       5.995   3.955  14.867  0.00  0.00    +0.000 C 
ENDBRANCH  10  11
ENDBRANCH   8  10
ENDBRANCH   5   7
ENDBRANCH   1   5
BRANCH   3  15
ATOM     15  C   UNL     1       1.652   8.552  20.512  0.00  0.00    +0.000 C 
BRANCH  15  16
ATOM     16  C   UNL     1       0.156   8.968  20.440  0.00  0.00    +0.000 C 
BRANCH  16  17
ATOM     17  C   UNL     1      -0.043  10.344  19.774  0.00  0.00    +0.000 A 
ATOM     18  C   UNL     1      -1.297  10.782  19.308  0.00  0.00    +0.000 A 
ATOM     19  C   UNL     1      -1.452  12.014  18.668  0.00  0.00    +0.000 A 
ATOM     20  C   UNL     1      -0.354  12.845  18.478  0.00  0.00    +0.000 A 
ATOM     21  C   UNL     1       0.893  12.450  18.949  0.00  0.00    +0.000 A 
ATOM     22  C   UNL     1       1.046  11.219  19.600  0.00  0.00    +0.000 A 
ENDBRANCH  16  17
BRANCH  16  23
ATOM     23  C   UNL     1      -0.555   8.896  21.812  0.00  0.00    +0.000 C 
BRANCH  23  24
ATOM     24  C   UNL     1      -0.153   9.990  22.796  0.00  0.00    +0.000 C 
BRANCH  24  25
ATOM     25  O   UNL     1       0.006   9.419  24.091  0.00  0.00    +0.000 OA
ATOM     26  H   UNL     1      -0.283   8.490  24.036  0.00  0.00    +0.000 HD
ENDBRANCH  24  25
ENDBRANCH  23  24
ENDBRANCH  16  23
ENDBRANCH  15  16
ENDBRANCH   3  15
TORSDOF 10
ENDMDL
MODEL 8
REMARK VINA RESULT:      -6.0      2.511      7.747
REMARK  Name = 
REMARK  14 active torsions:
REMARK  status: ('A' for Active; 'I' for Inactive)
REMARK    1  A    between atoms: C_1  and  N_2
REMARK    2  A    between atoms: N_2  and  C_3
REMARK    3  A    between atoms: C_3  and  C_4
REMARK    4  A    between atoms: N_6  and  C_7
REMARK    5  A    between atoms: C_7  and  C_8
REMARK    6  A    between atoms: C_8  and  C_9
REMARK    7  A    between atoms: C_8  and  C_12
REMARK    8  A    between atoms: C_9  and  C_10
REMARK    9  A    between atoms: C_10  and  O_11
REMARK   10  A    between atoms: C_18  and  O_20
REMARK   11  A    between atoms: O_20  and  C_21
REMARK   12  A    between atoms: C_21  and  C_22
REMARK   13  A    between atoms: C_21  and  C_23
REMARK   14  A    between atoms: C_21  and  C_24
REMARK                            x       y       z     vdW  Elec       q    Type
REMARK                         _______ _______ _______ _____ _____    ______ ____
ROOT
ATOM      1  C   UNL     1       1.819   9.228  18.055  0.00  0.00    +0.000 C 
ATOM      2  O   UNL     1       2.528   9.835  17.254  0.00  0.00    +0.000 OA
ATOM      3  N   UNL     1       2.116   7.936  18.500  0.00  0.00    +0.000 N 
ATOM      4  H   UNL     1       1.735   7.651  19.395  0.00  0.00    +0.000 HD
ENDROOT
BRANCH   1   5
ATOM      5  C   UNL     1       0.496   9.812  18.573  0.00  0.00    +0.000 C 
BRANCH   5   7
ATOM      6  C   UNL     1       1.292  12.063  19.366  0.00  0.00    +0.000 C 
ATOM      7  N   UNL     1       0.662  10.787  19.648  0.00  0.00    +0.000 N 
ATOM      8  C   UNL     1       0.152  10.475  20.893  0.00  0.00    +0.000 C 
ATOM      9  O   UNL     1      -0.312   9.368  21.149  0.00  0.00    +0.000 OA
BRANCH   8  10
ATOM     10  O   UNL     1       0.175  11.528  21.760  0.00  0.00    +0.000 OA
BRANCH  10  11
ATOM     11  C   UNL     1      -1.072  12.178  22.138  0.00  0.00    +0.000 C 
ATOM     12  C   UNL     1      -1.758  11.421  23.282  0.00  0.00    +0.000 C 
ATOM     13  C   UNL     1      -0.701  13.581  22.656  0.00  0.00    +0.000 C 
ATOM     14  C   UNL     1      -1.986  12.365  20.919  0.00  0.00    +0.000 C 
ENDBRANCH  10  11
ENDBRANCH   8  10
ENDBRANCH   5   7
ENDBRANCH   1   5
BRANCH   3  15
ATOM     15  C   UNL     1       3.330   7.314  18.000  0.00  0.00    +0.000 C 
BRANCH  15  16
ATOM     16  C   UNL     1       3.313   5.791  17.695  0.00  0.00    +0.000 C 
BRANCH  16  17
ATOM     17  C   UNL     1       2.551   4.983  18.765  0.00  0.00    +0.000 A 
ATOM     18  C   UNL     1       2.837   5.093  20.138  0.00  0.00    +0.000 A 
ATOM     19  C   UNL     1       2.167   4.322  21.091  0.00  0.00    +0.000 A 
ATOM     20  C   UNL     1       1.186   3.420  20.694  0.00  0.00    +0.000 A 
ATOM     21  C   UNL     1       0.865   3.306  19.346  0.00  0.00    +0.000 A 
ATOM     22  C   UNL     1       1.531   4.087  18.393  0.00  0.00    +0.000 A 
ENDBRANCH  16  17
BRANCH  16  23
ATOM     23  C   UNL     1       4.725   5.209  17.447  0.00  0.00    +0.000 C 
BRANCH  23  24
ATOM     24  C   UNL     1       5.104   5.062  15.977  0.00  0.00    +0.000 C 
BRANCH  24  25
ATOM     25  O   UNL     1       5.520   6.327  15.472  0.00  0.00    +0.000 OA
ATOM     26  H   UNL     1       5.622   6.235  14.507  0.00  0.00    +0.000 HD
ENDBRANCH  24  25
ENDBRANCH  23  24
ENDBRANCH  16  23
ENDBRANCH  15  16
ENDBRANCH   3  15
TORSDOF 10
ENDMDL
MODEL 9
REMARK VINA RESULT:      -6.0      2.064      8.021
REMARK  Name = 
REMARK  14 active torsions:
REMARK  status: ('A' for Active; 'I' for Inactive)
REMARK    1  A    between atoms: C_1  and  N_2
REMARK    2  A    between atoms: N_2  and  C_3
REMARK    3  A    between atoms: C_3  and  C_4
REMARK    4  A    between atoms: N_6  and  C_7
REMARK    5  A    between atoms: C_7  and  C_8
REMARK    6  A    between atoms: C_8  and  C_9
REMARK    7  A    between atoms: C_8  and  C_12
REMARK    8  A    between atoms: C_9  and  C_10
REMARK    9  A    between atoms: C_10  and  O_11
REMARK   10  A    between atoms: C_18  and  O_20
REMARK   11  A    between atoms: O_20  and  C_21
REMARK   12  A    between atoms: C_21  and  C_22
REMARK   13  A    between atoms: C_21  and  C_23
REMARK   14  A    between atoms: C_21  and  C_24
REMARK                            x       y       z     vdW  Elec       q    Type
REMARK                         _______ _______ _______ _____ _____    ______ ____
ROOT
ATOM      1  C   UNL     1       1.893   6.759  20.187  0.00  0.00    +0.000 C 
ATOM      2  O   UNL     1       1.415   5.744  20.691  0.00  0.00    +0.000 OA
ATOM      3  N   UNL     1       2.568   6.751  18.963  0.00  0.00    +0.000 N 
ATOM      4  H   UNL     1       2.600   7.618  18.440  0.00  0.00    +0.000 HD
ENDROOT
BRANCH   1   5
ATOM      5  C   UNL     1       1.855   8.117  20.905  0.00  0.00    +0.000 C 
BRANCH   5   7
ATOM      6  C   UNL     1      -0.452   8.694  21.728  0.00  0.00    +0.000 C 
ATOM      7  N   UNL     1       0.597   8.839  20.736  0.00  0.00    +0.000 N 
ATOM      8  C   UNL     1       0.475   9.691  19.655  0.00  0.00    +0.000 C 
ATOM      9  O   UNL     1       1.331   9.756  18.777  0.00  0.00    +0.000 OA
BRANCH   8  10
ATOM     10  O   UNL     1      -0.646  10.466  19.706  0.00  0.00    +0.000 OA
BRANCH  10  11
ATOM     11  C   UNL     1      -0.521  11.903  19.902  0.00  0.00    +0.000 C 
ATOM     12  C   UNL     1      -0.513  12.639  18.557  0.00  0.00    +0.000 C 
ATOM     13  C   UNL     1      -1.773  12.354  20.680  0.00  0.00    +0.000 C 
ATOM     14  C   UNL     1       0.702  12.235  20.768  0.00  0.00    +0.000 C 
ENDBRANCH  10  11
ENDBRANCH   8  10
ENDBRANCH   5   7
ENDBRANCH   1   5
BRANCH   3  15
ATOM     15  C   UNL     1       2.679   5.481  18.265  0.00  0.00    +0.000 C 
BRANCH  15  16
ATOM     16  C   UNL     1       3.832   4.516  18.658  0.00  0.00    +0.000 C 
BRANCH  16  17
ATOM     17  C   UNL     1       4.974   4.507  17.622  0.00  0.00    +0.000 A 
ATOM     18  C   UNL     1       6.328   4.618  17.991  0.00  0.00    +0.000 A 
ATOM     19  C   UNL     1       7.348   4.651  17.037  0.00  0.00    +0.000 A 
ATOM     20  C   UNL     1       7.041   4.569  15.684  0.00  0.00    +0.000 A 
ATOM     21  C   UNL     1       5.714   4.435  15.290  0.00  0.00    +0.000 A 
ATOM     22  C   UNL     1       4.693   4.391  16.248  0.00  0.00    +0.000 A 
ENDBRANCH  16  17
BRANCH  16  23
ATOM     23  C   UNL     1       3.338   3.083  18.968  0.00  0.00    +0.000 C 
BRANCH  23  24
ATOM     24  C   UNL     1       3.886   2.486  20.259  0.00  0.00    +0.000 C 
BRANCH  24  25
ATOM     25  O   UNL     1       5.143   1.871  19.994  0.00  0.00    +0.000 OA
ATOM     26  H   UNL     1       5.837   2.497  20.272  0.00  0.00    +0.000 HD
ENDBRANCH  24  25
ENDBRANCH  23  24
ENDBRANCH  16  23
ENDBRANCH  15  16
ENDBRANCH   3  15
TORSDOF 10
ENDMDL
