MODEL 1
REMARK VINA RESULT:      -7.2      0.000      0.000
REMARK  Name = 
REMARK  11 active torsions:
REMARK  status: ('A' for Active; 'I' for Inactive)
REMARK    1  A    between atoms: C_1  and  C_2
REMARK    2  A    between atoms: C_5  and  C_6
REMARK    3  A    between atoms: C_6  and  C_7
REMARK    4  A    between atoms: C_6  and  C_8
REMARK    5  A    between atoms: C_9  and  O_10
REMARK    6  A    between atoms: O_10  and  C_11
REMARK    7  A    between atoms: C_11  and  C_12
REMARK    8  A    between atoms: C_12  and  O_14
REMARK    9  A    between atoms: O_14  and  C_15
REMARK   10  A    between atoms: C_15  and  C_16
REMARK   11  A    between atoms: N_18  and  C_19
REMARK                            x       y       z     vdW  Elec       q    Type
REMARK                         _______ _______ _______ _____ _____    ______ ____
ROOT
ATOM      1  C   UNL     1       0.468   8.265  21.515  0.00  0.00    +0.000 C 
ATOM      2  O   UNL     1      -0.688   7.879  21.437  0.00  0.00    +0.000 OA
ENDROOT
BRANCH   1   3
ATOM      3  C   UNL     1       1.590   7.814  20.556  0.00  0.00    +0.000 C 
BRANCH   3   4
ATOM      4  O   UNL     1       1.829   6.409  20.496  0.00  0.00    +0.000 OA
BRANCH   4  10
ATOM      5  C   UNL     1       4.906   6.605  16.433  0.00  0.00    +0.000 C 
ATOM      6  C   UNL     1       3.989   5.932  17.441  0.00  0.00    +0.000 A 
ATOM      7  C   UNL     1       3.801   4.557  17.287  0.00  0.00    +0.000 A 
ATOM      8  C   UNL     1       2.947   3.863  18.124  0.00  0.00    +0.000 A 
ATOM      9  C   UNL     1       2.251   4.500  19.175  0.00  0.00    +0.000 A 
ATOM     10  C   UNL     1       2.504   5.863  19.429  0.00  0.00    +0.000 A 
ATOM     11  C   UNL     1       3.326   6.582  18.529  0.00  0.00    +0.000 A 
BRANCH   9  12
ATOM     12  C   UNL     1       1.150   3.737  19.904  0.00  0.00    +0.000 C 
ATOM     13  C   UNL     1       0.666   2.595  19.002  0.00  0.00    +0.000 C 
ATOM     14  C   UNL     1       1.575   3.207  21.275  0.00  0.00    +0.000 C 
ENDBRANCH   9  12
ENDBRANCH   4  10
ENDBRANCH   3   4
ENDBRANCH   1   3
BRANCH   1  15
ATOM     15  O   UNL     1       0.883   9.294  22.315  0.00  0.00    +0.000 OA
BRANCH  15  16
ATOM     16  C   UNL     1      -0.135   9.779  23.205  0.00  0.00    +0.000 C 
BRANCH  16  17
ATOM     17  C   UNL     1      -0.610  11.152  22.700  0.00  0.00    +0.000 C 
ATOM     18  O   UNL     1       0.091  11.875  22.005  0.00  0.00    +0.000 OA
ATOM     19  N   UNL     1      -1.901  11.495  23.096  0.00  0.00    +0.000 N 
ATOM     20  H   UNL     1      -2.503  10.693  23.291  0.00  0.00    +0.000 HD
BRANCH  19  21
ATOM     21  C   UNL     1      -2.504  12.747  22.647  0.00  0.00    +0.000 C 
ATOM     22  C   UNL     1      -2.491  13.836  23.733  0.00  0.00    +0.000 C 
ATOM     23  C   UNL     1      -3.770  13.759  24.520  0.00  0.00    +0.000 C 
ATOM     24  S   UNL     1      -5.016  13.352  23.385  0.00  0.00    +0.000 S 
ATOM     25  O   UNL     1      -5.524  14.560  22.785  0.00  0.00    +0.000 OA
ATOM     26  O   UNL     1      -5.830  12.448  24.169  0.00  0.00    +0.000 OA
ATOM     27  C   UNL     1      -3.942  12.554  22.173  0.00  0.00    +0.000 C 
ENDBRANCH  19  21
ENDBRANCH  16  17
ENDBRANCH  15  16
ENDBRANCH   1  15
TORSDOF 8
ENDMDL
MODEL 2
REMARK VINA RESULT:      -7.1      5.727      9.642
REMARK  Name = 
REMARK  11 active torsions:
REMARK  status: ('A' for Active; 'I' for Inactive)
REMARK    1  A    between atoms: C_1  and  C_2
REMARK    2  A    between atoms: C_5  and  C_6
REMARK    3  A    between atoms: C_6  and  C_7
REMARK    4  A    between atoms: C_6  and  C_8
REMARK    5  A    between atoms: C_9  and  O_10
REMARK    6  A    between atoms: O_10  and  C_11
REMARK    7  A    between atoms: C_11  and  C_12
REMARK    8  A    between atoms: C_12  and  O_14
REMARK    9  A    between atoms: O_14  and  C_15
REMARK   10  A    between atoms: C_15  and  C_16
REMARK   11  A    between atoms: N_18  and  C_19
REMARK                            x       y       z     vdW  Elec       q    Type
REMARK                         _______ _______ _______ _____ _____    ______ ____
ROOT
ATOM      1  C   UNL     1       1.938   3.272  21.163  0.00  0.00    +0.000 C 
ATOM      2  O   UNL     1       1.734   2.888  22.305  0.00  0.00    +0.000 OA
ENDROOT
BRANCH   1   3
ATOM      3  C   UNL     1       1.235   4.491  20.530  0.00  0.00    +0.000 C 
BRANCH   3   4
ATOM      4  O   UNL     1       1.668   5.768  20.993  0.00  0.00    +0.000 OA
BRANCH   4  10
ATOM      5  C   UNL     1       3.439   7.917  16.719  0.00  0.00    +0.000 C 
ATOM      6  C   UNL     1       2.692   7.883  18.043  0.00  0.00    +0.000 A 
ATOM      7  C   UNL     1       2.065   9.069  18.430  0.00  0.00    +0.000 A 
ATOM      8  C   UNL     1       1.402   9.153  19.641  0.00  0.00    +0.000 A 
ATOM      9  C   UNL     1       1.310   8.052  20.520  0.00  0.00    +0.000 A 
ATOM     10  C   UNL     1       1.833   6.810  20.110  0.00  0.00    +0.000 A 
ATOM     11  C   UNL     1       2.569   6.747  18.902  0.00  0.00    +0.000 A 
BRANCH   9  12
ATOM     12  C   UNL     1       0.780   8.274  21.933  0.00  0.00    +0.000 C 
ATOM     13  C   UNL     1       1.549   9.439  22.567  0.00  0.00    +0.000 C 
ATOM     14  C   UNL     1      -0.730   8.521  21.990  0.00  0.00    +0.000 C 
ENDBRANCH   9  12
ENDBRANCH   4  10
ENDBRANCH   3   4
ENDBRANCH   1   3
BRANCH   1  15
ATOM     15  O   UNL     1       2.953   2.816  20.368  0.00  0.00    +0.000 OA
BRANCH  15  16
ATOM     16  C   UNL     1       2.502   2.220  19.141  0.00  0.00    +0.000 C 
BRANCH  16  17
ATOM     17  C   UNL     1       2.856   3.166  17.982  0.00  0.00    +0.000 C 
ATOM     18  O   UNL     1       2.069   3.421  17.079  0.00  0.00    +0.000 OA
ATOM     19  N   UNL     1       4.138   3.706  18.050  0.00  0.00    +0.000 N 
ATOM     20  H   UNL     1       4.515   3.762  18.998  0.00  0.00    +0.000 HD
BRANCH  19  21
ATOM     21  C   UNL     1       4.592   4.662  17.044  0.00  0.00    +0.000 C 
ATOM     22  C   UNL     1       4.942   3.994  15.704  0.00  0.00    +0.000 C 
ATOM     23  C   UNL     1       6.402   3.634  15.702  0.00  0.00    +0.000 C 
ATOM     24  S   UNL     1       7.219   4.914  16.540  0.00  0.00    +0.000 S 
ATOM     25  O   UNL     1       7.535   5.965  15.607  0.00  0.00    +0.000 OA
ATOM     26  O   UNL     1       8.222   4.175  17.277  0.00  0.00    +0.000 OA
ATOM     27  C   UNL     1       5.804   5.461  17.517  0.00  0.00    +0.000 C 
ENDBRANCH  19  21
ENDBRANCH  16  17
ENDBRANCH  15  16
ENDBRANCH   1  15
TORSDOF 8
ENDMDL
MODEL 3
REMARK VINA RESULT:      -7.1      1.815      2.195
REMARK  Name = 
REMARK  11 active torsions:
REMARK  status: ('A' for Active; 'I' for Inactive)
REMARK    1  A    between atoms: C_1  and  C_2
REMARK    2  A    between atoms: C_5  and  C_6
REMARK    3  A    between atoms: C_6  and  C_7
REMARK    4  A    between atoms: C_6  and  C_8
REMARK    5  A    between atoms: C_9  and  O_10
REMARK    6  A    between atoms: O_10  and  C_11
REMARK    7  A    between atoms: C_11  and  C_12
REMARK    8  A    between atoms: C_12  and  O_14
REMARK    9  A    between atoms: O_14  and  C_15
REMARK   10  A    between atoms: C_15  and  C_16
REMARK   11  A    between atoms: N_18  and  C_19
REMARK                            x       y       z     vdW  Elec       q    Type
REMARK                         _______ _______ _______ _____ _____    ______ ____
ROOT
ATOM      1  C   UNL     1       1.283   9.093  19.597  0.00  0.00    +0.000 C 
ATOM      2  O   UNL     1       0.685   9.994  19.030  0.00  0.00    +0.000 OA
ENDROOT
BRANCH   1   3
ATOM      3  C   UNL     1       2.204   8.087  18.874  0.00  0.00    +0.000 C 
BRANCH   3   4
ATOM      4  O   UNL     1       2.273   6.783  19.447  0.00  0.00    +0.000 OA
BRANCH   4  10
ATOM      5  C   UNL     1       5.268   4.888  15.780  0.00  0.00    +0.000 C 
ATOM      6  C   UNL     1       4.399   4.825  17.026  0.00  0.00    +0.000 A 
ATOM      7  C   UNL     1       4.271   3.572  17.628  0.00  0.00    +0.000 A 
ATOM      8  C   UNL     1       3.464   3.402  18.738  0.00  0.00    +0.000 A 
ATOM      9  C   UNL     1       2.757   4.477  19.319  0.00  0.00    +0.000 A 
ATOM     10  C   UNL     1       2.953   5.775  18.806  0.00  0.00    +0.000 A 
ATOM     11  C   UNL     1       3.726   5.932  17.631  0.00  0.00    +0.000 A 
BRANCH   9  12
ATOM     12  C   UNL     1       1.704   4.184  20.383  0.00  0.00    +0.000 C 
ATOM     13  C   UNL     1       0.619   3.294  19.765  0.00  0.00    +0.000 C 
ATOM     14  C   UNL     1       2.275   3.548  21.652  0.00  0.00    +0.000 C 
ENDBRANCH   9  12
ENDBRANCH   4  10
ENDBRANCH   3   4
ENDBRANCH   1   3
BRANCH   1  15
ATOM     15  O   UNL     1       1.391   8.976  20.956  0.00  0.00    +0.000 OA
BRANCH  15  16
ATOM     16  C   UNL     1       0.149   8.665  21.608  0.00  0.00    +0.000 C 
BRANCH  16  17
ATOM     17  C   UNL     1      -0.142   9.759  22.648  0.00  0.00    +0.000 C 
ATOM     18  O   UNL     1       0.335   9.739  23.775  0.00  0.00    +0.000 OA
ATOM     19  N   UNL     1      -0.987  10.771  22.197  0.00  0.00    +0.000 N 
ATOM     20  H   UNL     1      -0.973  10.903  21.184  0.00  0.00    +0.000 HD
BRANCH  19  21
ATOM     21  C   UNL     1      -1.309  11.904  23.059  0.00  0.00    +0.000 C 
ATOM     22  C   UNL     1      -2.821  12.064  23.292  0.00  0.00    +0.000 C 
ATOM     23  C   UNL     1      -3.385  12.983  22.245  0.00  0.00    +0.000 C 
ATOM     24  S   UNL     1      -2.181  14.200  21.967  0.00  0.00    +0.000 S 
ATOM     25  O   UNL     1      -2.358  15.267  22.920  0.00  0.00    +0.000 OA
ATOM     26  O   UNL     1      -2.288  14.384  20.536  0.00  0.00    +0.000 OA
ATOM     27  C   UNL     1      -0.765  13.220  22.507  0.00  0.00    +0.000 C 
ENDBRANCH  19  21
ENDBRANCH  16  17
ENDBRANCH  15  16
ENDBRANCH   1  15
TORSDOF 8
ENDMDL
MODEL 4
REMARK VINA RESULT:      -7.1      4.846      9.933
REMARK  Name = 
REMARK  11 active torsions:
REMARK  status: ('A' for Active; 'I' for Inactive)
REMARK    1  A    between atoms: C_1  and  C_2
REMARK    2  A    between atoms: C_5  and  C_6
REMARK    3  A    between atoms: C_6  and  C_7
REMARK    4  A    between atoms: C_6  and  C_8
REMARK    5  A    between atoms: C_9  and  O_10
REMARK    6  A    between atoms: O_10  and  C_11
REMARK    7  A    between atoms: C_11  and  C_12
REMARK    8  A    between atoms: C_12  and  O_14
REMARK    9  A    between atoms: O_14  and  C_15
REMARK   10  A    between atoms: C_15  and  C_16
REMARK   11  A    between atoms: N_18  and  C_19
REMARK                            x       y       z     vdW  Elec       q    Type
REMARK                         _______ _______ _______ _____ _____    ______ ____
ROOT
ATOM      1  C   UNL     1       1.852   7.519  20.149  0.00  0.00    +0.000 C 
ATOM      2  O   UNL     1       2.340   7.690  19.042  0.00  0.00    +0.000 OA
ENDROOT
BRANCH   1   3
ATOM      3  C   UNL     1       0.999   8.575  20.882  0.00  0.00    +0.000 C 
BRANCH   3   4
ATOM      4  O   UNL     1       1.002   9.882  20.313  0.00  0.00    +0.000 OA
BRANCH   4  10
ATOM      5  C   UNL     1      -2.336  10.323  16.483  0.00  0.00    +0.000 C 
ATOM      6  C   UNL     1      -1.762  10.625  17.857  0.00  0.00    +0.000 A 
ATOM      7  C   UNL     1      -2.478  11.530  18.643  0.00  0.00    +0.000 A 
ATOM      8  C   UNL     1      -2.011  11.906  19.889  0.00  0.00    +0.000 A 
ATOM      9  C   UNL     1      -0.815  11.383  20.427  0.00  0.00    +0.000 A 
ATOM     10  C   UNL     1      -0.128  10.383  19.710  0.00  0.00    +0.000 A 
ATOM     11  C   UNL     1      -0.573  10.052  18.408  0.00  0.00    +0.000 A 
BRANCH   9  12
ATOM     12  C   UNL     1      -0.233  12.011  21.689  0.00  0.00    +0.000 C 
ATOM     13  C   UNL     1       0.321  13.397  21.335  0.00  0.00    +0.000 C 
ATOM     14  C   UNL     1      -1.231  12.102  22.846  0.00  0.00    +0.000 C 
ENDBRANCH   9  12
ENDBRANCH   4  10
ENDBRANCH   3   4
ENDBRANCH   1   3
BRANCH   1  15
ATOM     15  O   UNL     1       1.812   6.313  20.794  0.00  0.00    +0.000 OA
BRANCH  15  16
ATOM     16  C   UNL     1       1.655   5.191  19.911  0.00  0.00    +0.000 C 
BRANCH  16  17
ATOM     17  C   UNL     1       3.007   4.469  19.795  0.00  0.00    +0.000 C 
ATOM     18  O   UNL     1       3.307   3.518  20.506  0.00  0.00    +0.000 OA
ATOM     19  N   UNL     1       3.852   4.982  18.814  0.00  0.00    +0.000 N 
ATOM     20  H   UNL     1       3.363   5.455  18.051  0.00  0.00    +0.000 HD
BRANCH  19  21
ATOM     21  C   UNL     1       5.148   4.362  18.555  0.00  0.00    +0.000 C 
ATOM     22  C   UNL     1       6.320   5.169  19.137  0.00  0.00    +0.000 C 
ATOM     23  C   UNL     1       6.821   6.131  18.096  0.00  0.00    +0.000 C 
ATOM     24  S   UNL     1       6.701   5.306  16.576  0.00  0.00    +0.000 S 
ATOM     25  O   UNL     1       7.900   4.536  16.359  0.00  0.00    +0.000 OA
ATOM     26  O   UNL     1       6.276   6.379  15.703  0.00  0.00    +0.000 OA
ATOM     27  C   UNL     1       5.398   4.156  17.063  0.00  0.00    +0.000 C 
ENDBRANCH  19  21
ENDBRANCH  16  17
ENDBRANCH  15  16
ENDBRANCH   1  15
TORSDOF 8
ENDMDL
MODEL 5
REMARK VINA RESULT:      -7.0      2.100      3.560
REMARK  Name = 
REMARK  11 active torsions:
REMARK  status: ('A' for Active; 'I' for Inactive)
REMARK    1  A    between atoms: C_1  and  C_2
REMARK    2  A    between atoms: C_5  and  C_6
REMARK    3  A    between atoms: C_6  and  C_7
REMARK    4  A    between atoms: C_6  and  C_8
REMARK    5  A    between atoms: C_9  and  O_10
REMARK    6  A    between atoms: O_10  and  C_11
REMARK    7  A    between atoms: C_11  and  C_12
REMARK    8  A    between atoms: C_12  and  O_14
REMARK    9  A    between atoms: O_14  and  C_15
REMARK   10  A    between atoms: C_15  and  C_16
REMARK   11  A    between atoms: N_18  and  C_19
REMARK                            x       y       z     vdW  Elec       q    Type
REMARK                         _______ _______ _______ _____ _____    ______ ____
ROOT
ATOM      1  C   UNL     1       1.846   8.876  18.430  0.00  0.00    +0.000 C 
ATOM      2  O   UNL     1       2.247   9.629  17.556  0.00  0.00    +0.000 OA
ENDROOT
BRANCH   1   3
ATOM      3  C   UNL     1       2.516   7.529  18.776  0.00  0.00    +0.000 C 
BRANCH   3   4
ATOM      4  O   UNL     1       2.921   6.733  17.664  0.00  0.00    +0.000 OA
BRANCH   4  10
ATOM      5  C   UNL     1       0.722   2.299  18.895  0.00  0.00    +0.000 C 
ATOM      6  C   UNL     1       1.817   3.189  18.330  0.00  0.00    +0.000 A 
ATOM      7  C   UNL     1       2.924   2.537  17.782  0.00  0.00    +0.000 A 
ATOM      8  C   UNL     1       3.994   3.260  17.287  0.00  0.00    +0.000 A 
ATOM      9  C   UNL     1       4.007   4.672  17.291  0.00  0.00    +0.000 A 
ATOM     10  C   UNL     1       2.859   5.361  17.731  0.00  0.00    +0.000 A 
ATOM     11  C   UNL     1       1.797   4.619  18.299  0.00  0.00    +0.000 A 
BRANCH   9  12
ATOM     12  C   UNL     1       5.304   5.401  16.956  0.00  0.00    +0.000 C 
ATOM     13  C   UNL     1       6.481   4.584  17.503  0.00  0.00    +0.000 C 
ATOM     14  C   UNL     1       5.482   5.683  15.462  0.00  0.00    +0.000 C 
ENDBRANCH   9  12
ENDBRANCH   4  10
ENDBRANCH   3   4
ENDBRANCH   1   3
BRANCH   1  15
ATOM     15  O   UNL     1       0.892   9.207  19.353  0.00  0.00    +0.000 OA
BRANCH  15  16
ATOM     16  C   UNL     1      -0.128  10.079  18.841  0.00  0.00    +0.000 C 
BRANCH  16  17
ATOM     17  C   UNL     1      -0.155  11.355  19.697  0.00  0.00    +0.000 C 
ATOM     18  O   UNL     1       0.763  12.165  19.701  0.00  0.00    +0.000 OA
ATOM     19  N   UNL     1      -1.311  11.512  20.460  0.00  0.00    +0.000 N 
ATOM     20  H   UNL     1      -2.129  11.036  20.076  0.00  0.00    +0.000 HD
BRANCH  19  21
ATOM     21  C   UNL     1      -1.498  12.703  21.282  0.00  0.00    +0.000 C 
ATOM     22  C   UNL     1      -1.418  12.405  22.788  0.00  0.00    +0.000 C 
ATOM     23  C   UNL     1      -2.798  12.102  23.303  0.00  0.00    +0.000 C 
ATOM     24  S   UNL     1      -3.878  13.154  22.446  0.00  0.00    +0.000 S 
ATOM     25  O   UNL     1      -3.958  14.416  23.137  0.00  0.00    +0.000 OA
ATOM     26  O   UNL     1      -5.017  12.285  22.240  0.00  0.00    +0.000 OA
ATOM     27  C   UNL     1      -2.829  13.394  20.996  0.00  0.00    +0.000 C 
ENDBRANCH  19  21
ENDBRANCH  16  17
ENDBRANCH  15  16
ENDBRANCH   1  15
TORSDOF 8
ENDMDL
MODEL 6
REMARK VINA RESULT:      -6.9      3.727      6.272
REMARK  Name = 
REMARK  11 active torsions:
REMARK  status: ('A' for Active; 'I' for Inactive)
REMARK    1  A    between atoms: C_1  and  C_2
REMARK    2  A    between atoms: C_5  and  C_6
REMARK    3  A    between atoms: C_6  and  C_7
REMARK    4  A    between atoms: C_6  and  C_8
REMARK    5  A    between atoms: C_9  and  O_10
REMARK    6  A    between atoms: O_10  and  C_11
REMARK    7  A    between atoms: C_11  and  C_12
REMARK    8  A    between atoms: C_12  and  O_14
REMARK    9  A    between atoms: O_14  and  C_15
REMARK   10  A    between atoms: C_15  and  C_16
REMARK   11  A    between atoms: N_18  and  C_19
REMARK                            x       y       z     vdW  Elec       q    Type
REMARK                         _______ _______ _______ _____ _____    ______ ____
ROOT
ATOM      1  C   UNL     1       3.025   3.078  18.752  0.00  0.00    +0.000 C 
ATOM      2  O   UNL     1       3.138   2.246  19.639  0.00  0.00    +0.000 OA
ENDROOT
BRANCH   1   3
ATOM      3  C   UNL     1       3.891   3.094  17.475  0.00  0.00    +0.000 C 
BRANCH   3   4
ATOM      4  O   UNL     1       4.421   4.363  17.099  0.00  0.00    +0.000 OA
BRANCH   4  10
ATOM      5  C   UNL     1       5.934   3.273  12.352  0.00  0.00    +0.000 C 
ATOM      6  C   UNL     1       6.021   3.953  13.709  0.00  0.00    +0.000 A 
ATOM      7  C   UNL     1       7.091   4.832  13.894  0.00  0.00    +0.000 A 
ATOM      8  C   UNL     1       7.283   5.462  15.109  0.00  0.00    +0.000 A 
ATOM      9  C   UNL     1       6.407   5.265  16.199  0.00  0.00    +0.000 A 
ATOM     10  C   UNL     1       5.256   4.474  16.012  0.00  0.00    +0.000 A 
ATOM     11  C   UNL     1       5.101   3.779  14.789  0.00  0.00    +0.000 A 
BRANCH   9  12
ATOM     12  C   UNL     1       6.805   5.793  17.574  0.00  0.00    +0.000 C 
ATOM     13  C   UNL     1       7.736   4.773  18.240  0.00  0.00    +0.000 C 
ATOM     14  C   UNL     1       7.452   7.180  17.535  0.00  0.00    +0.000 C 
ENDBRANCH   9  12
ENDBRANCH   4  10
ENDBRANCH   3   4
ENDBRANCH   1   3
BRANCH   1  15
ATOM     15  O   UNL     1       1.993   3.972  18.663  0.00  0.00    +0.000 OA
BRANCH  15  16
ATOM     16  C   UNL     1       1.603   4.530  19.928  0.00  0.00    +0.000 C 
BRANCH  16  17
ATOM     17  C   UNL     1       2.185   5.949  20.036  0.00  0.00    +0.000 C 
ATOM     18  O   UNL     1       3.306   6.232  19.632  0.00  0.00    +0.000 OA
ATOM     19  N   UNL     1       1.330   6.878  20.623  0.00  0.00    +0.000 N 
ATOM     20  H   UNL     1       0.339   6.648  20.530  0.00  0.00    +0.000 HD
BRANCH  19  21
ATOM     21  C   UNL     1       1.729   8.278  20.743  0.00  0.00    +0.000 C 
ATOM     22  C   UNL     1       1.070   8.983  21.941  0.00  0.00    +0.000 C 
ATOM     23  C   UNL     1      -0.216   9.618  21.491  0.00  0.00    +0.000 C 
ATOM     24  S   UNL     1       0.070  10.211  19.886  0.00  0.00    +0.000 S 
ATOM     25  O   UNL     1       0.631  11.536  19.964  0.00  0.00    +0.000 OA
ATOM     26  O   UNL     1      -1.194   9.917  19.245  0.00  0.00    +0.000 OA
ATOM     27  C   UNL     1       1.413   9.075  19.480  0.00  0.00    +0.000 C 
ENDBRANCH  19  21
ENDBRANCH  16  17
ENDBRANCH  15  16
ENDBRANCH   1  15
TORSDOF 8
ENDMDL
MODEL 7
REMARK VINA RESULT:      -6.9      8.588      9.618
REMARK  Name = 
REMARK  11 active torsions:
REMARK  status: ('A' for Active; 'I' for Inactive)
REMARK    1  A    between atoms: C_1  and  C_2
REMARK    2  A    between atoms: C_5  and  C_6
REMARK    3  A    between atoms: C_6  and  C_7
REMARK    4  A    between atoms: C_6  and  C_8
REMARK    5  A    between atoms: C_9  and  O_10
REMARK    6  A    between atoms: O_10  and  C_11
REMARK    7  A    between atoms: C_11  and  C_12
REMARK    8  A    between atoms: C_12  and  O_14
REMARK    9  A    between atoms: O_14  and  C_15
REMARK   10  A    between atoms: C_15  and  C_16
REMARK   11  A    between atoms: N_18  and  C_19
REMARK                            x       y       z     vdW  Elec       q    Type
REMARK                         _______ _______ _______ _____ _____    ______ ____
ROOT
ATOM      1  C   UNL     1       7.851   7.096  17.980  0.00  0.00    +0.000 C 
ATOM      2  O   UNL     1       7.823   6.970  16.765  0.00  0.00    +0.000 OA
ENDROOT
BRANCH   1   3
ATOM      3  C   UNL     1       7.387   6.003  18.966  0.00  0.00    +0.000 C 
BRANCH   3   4
ATOM      4  O   UNL     1       7.011   4.758  18.383  0.00  0.00    +0.000 OA
BRANCH   4  10
ATOM      5  C   UNL     1       2.799   2.800  20.491  0.00  0.00    +0.000 C 
ATOM      6  C   UNL     1       3.633   3.402  19.372  0.00  0.00    +0.000 A 
ATOM      7  C   UNL     1       2.982   3.603  18.153  0.00  0.00    +0.000 A 
ATOM      8  C   UNL     1       3.668   4.100  17.060  0.00  0.00    +0.000 A 
ATOM      9  C   UNL     1       5.035   4.445  17.131  0.00  0.00    +0.000 A 
ATOM     10  C   UNL     1       5.694   4.362  18.374  0.00  0.00    +0.000 A 
ATOM     11  C   UNL     1       5.006   3.789  19.471  0.00  0.00    +0.000 A 
BRANCH   9  12
ATOM     12  C   UNL     1       5.788   4.756  15.841  0.00  0.00    +0.000 C 
ATOM     13  C   UNL     1       5.754   3.514  14.942  0.00  0.00    +0.000 C 
ATOM     14  C   UNL     1       5.252   5.983  15.099  0.00  0.00    +0.000 C 
ENDBRANCH   9  12
ENDBRANCH   4  10
ENDBRANCH   3   4
ENDBRANCH   1   3
BRANCH   1  15
ATOM     15  O   UNL     1       8.482   8.118  18.634  0.00  0.00    +0.000 OA
BRANCH  15  16
ATOM     16  C   UNL     1       8.287   9.402  18.020  0.00  0.00    +0.000 C 
BRANCH  16  17
ATOM     17  C   UNL     1       9.082  10.450  18.816  0.00  0.00    +0.000 C 
ATOM     18  O   UNL     1       9.723  10.165  19.820  0.00  0.00    +0.000 OA
ATOM     19  N   UNL     1       9.015  11.740  18.296  0.00  0.00    +0.000 N 
ATOM     20  H   UNL     1       8.826  11.775  17.292  0.00  0.00    +0.000 HD
BRANCH  19  21
ATOM     21  C   UNL     1       9.764  12.828  18.918  0.00  0.00    +0.000 C 
ATOM     22  C   UNL     1       9.057  13.404  20.157  0.00  0.00    +0.000 C 
ATOM     23  C   UNL     1       8.177  14.547  19.733  0.00  0.00    +0.000 C 
ATOM     24  S   UNL     1       9.030  15.374  18.469  0.00  0.00    +0.000 S 
ATOM     25  O   UNL     1       9.917  16.347  19.054  0.00  0.00    +0.000 OA
ATOM     26  O   UNL     1       7.946  15.720  17.575  0.00  0.00    +0.000 OA
ATOM     27  C   UNL     1      10.035  13.970  17.943  0.00  0.00    +0.000 C 
ENDBRANCH  19  21
ENDBRANCH  16  17
ENDBRANCH  15  16
ENDBRANCH   1  15
TORSDOF 8
ENDMDL
MODEL 8
REMARK VINA RESULT:      -6.8      1.704      1.933
REMARK  Name = 
REMARK  11 active torsions:
REMARK  status: ('A' for Active; 'I' for Inactive)
REMARK    1  A    between atoms: C_1  and  C_2
REMARK    2  A    between atoms: C_5  and  C_6
REMARK    3  A    between atoms: C_6  and  C_7
REMARK    4  A    between atoms: C_6  and  C_8
REMARK    5  A    between atoms: C_9  and  O_10
REMARK    6  A    between atoms: O_10  and  C_11
REMARK    7  A    between atoms: C_11  and  C_12
REMARK    8  A    between atoms: C_12  and  O_14
REMARK    9  A    between atoms: O_14  and  C_15
REMARK   10  A    between atoms: C_15  and  C_16
REMARK   11  A    between atoms: N_18  and  C_19
REMARK                            x       y       z     vdW  Elec       q    Type
REMARK                         _______ _______ _______ _____ _____    ______ ____
ROOT
ATOM      1  C   UNL     1       1.355   9.258  18.666  0.00  0.00    +0.000 C 
ATOM      2  O   UNL     1       0.656  10.065  18.073  0.00  0.00    +0.000 OA
ENDROOT
BRANCH   1   3
ATOM      3  C   UNL     1       2.298   8.260  17.962  0.00  0.00    +0.000 C 
BRANCH   3   4
ATOM      4  O   UNL     1       2.471   7.003  18.611  0.00  0.00    +0.000 OA
BRANCH   4  10
ATOM      5  C   UNL     1       6.067   5.243  15.452  0.00  0.00    +0.000 C 
ATOM      6  C   UNL     1       4.959   5.128  16.486  0.00  0.00    +0.000 A 
ATOM      7  C   UNL     1       4.652   3.838  16.924  0.00  0.00    +0.000 A 
ATOM      8  C   UNL     1       3.627   3.625  17.827  0.00  0.00    +0.000 A 
ATOM      9  C   UNL     1       2.866   4.690  18.358  0.00  0.00    +0.000 A 
ATOM     10  C   UNL     1       3.222   6.012  18.023  0.00  0.00    +0.000 A 
ATOM     11  C   UNL     1       4.227   6.220  17.048  0.00  0.00    +0.000 A 
BRANCH   9  12
ATOM     12  C   UNL     1       1.604   4.374  19.154  0.00  0.00    +0.000 C 
ATOM     13  C   UNL     1       1.034   3.039  18.660  0.00  0.00    +0.000 C 
ATOM     14  C   UNL     1       1.825   4.347  20.669  0.00  0.00    +0.000 C 
ENDBRANCH   9  12
ENDBRANCH   4  10
ENDBRANCH   3   4
ENDBRANCH   1   3
BRANCH   1  15
ATOM     15  O   UNL     1       1.560   9.264  20.018  0.00  0.00    +0.000 OA
BRANCH  15  16
ATOM     16  C   UNL     1       0.345   9.307  20.785  0.00  0.00    +0.000 C 
BRANCH  16  17
ATOM     17  C   UNL     1       0.137  10.745  21.288  0.00  0.00    +0.000 C 
ATOM     18  O   UNL     1       1.068  11.466  21.624  0.00  0.00    +0.000 OA
ATOM     19  N   UNL     1      -1.194  11.155  21.323  0.00  0.00    +0.000 N 
ATOM     20  H   UNL     1      -1.798  10.664  20.661  0.00  0.00    +0.000 HD
BRANCH  19  21
ATOM     21  C   UNL     1      -1.539  12.514  21.730  0.00  0.00    +0.000 C 
ATOM     22  C   UNL     1      -1.790  12.636  23.242  0.00  0.00    +0.000 C 
ATOM     23  C   UNL     1      -3.252  12.420  23.517  0.00  0.00    +0.000 C 
ATOM     24  S   UNL     1      -4.107  13.151  22.196  0.00  0.00    +0.000 S 
ATOM     25  O   UNL     1      -4.318  14.547  22.484  0.00  0.00    +0.000 OA
ATOM     26  O   UNL     1      -5.186  12.207  22.000  0.00  0.00    +0.000 OA
ATOM     27  C   UNL     1      -2.767  13.040  20.992  0.00  0.00    +0.000 C 
ENDBRANCH  19  21
ENDBRANCH  16  17
ENDBRANCH  15  16
ENDBRANCH   1  15
TORSDOF 8
ENDMDL
MODEL 9
REMARK VINA RESULT:      -6.8      5.205     10.000
REMARK  Name = 
REMARK  11 active torsions:
REMARK  status: ('A' for Active; 'I' for Inactive)
REMARK    1  A    between atoms: C_1  and  C_2
REMARK    2  A    between atoms: C_5  and  C_6
REMARK    3  A    between atoms: C_6  and  C_7
REMARK    4  A    between atoms: C_6  and  C_8
REMARK    5  A    between atoms: C_9  and  O_10
REMARK    6  A    between atoms: O_10  and  C_11
REMARK    7  A    between atoms: C_11  and  C_12
REMARK    8  A    between atoms: C_12  and  O_14
REMARK    9  A    between atoms: O_14  and  C_15
REMARK   10  A    between atoms: C_15  and  C_16
REMARK   11  A    between atoms: N_18  and  C_19
REMARK                            x       y       z     vdW  Elec       q    Type
REMARK                         _______ _______ _______ _____ _____    ______ ____
ROOT
ATOM      1  C   UNL     1       2.481   8.256  18.027  0.00  0.00    +0.000 C 
ATOM      2  O   UNL     1       3.454   8.118  17.301  0.00  0.00    +0.000 OA
ENDROOT
BRANCH   1   3
ATOM      3  C   UNL     1       1.758   9.601  18.246  0.00  0.00    +0.000 C 
BRANCH   3   4
ATOM      4  O   UNL     1       0.592   9.555  19.065  0.00  0.00    +0.000 OA
BRANCH   4  10
ATOM      5  C   UNL     1      -3.230  10.347  15.782  0.00  0.00    +0.000 C 
ATOM      6  C   UNL     1      -2.441  10.562  17.063  0.00  0.00    +0.000 A 
ATOM      7  C   UNL     1      -2.970  11.485  17.968  0.00  0.00    +0.000 A 
ATOM      8  C   UNL     1      -2.302  11.786  19.141  0.00  0.00    +0.000 A 
ATOM      9  C   UNL     1      -1.080  11.167  19.483  0.00  0.00    +0.000 A 
ATOM     10  C   UNL     1      -0.576  10.149  18.648  0.00  0.00    +0.000 A 
ATOM     11  C   UNL     1      -1.228   9.894  17.419  0.00  0.00    +0.000 A 
BRANCH   9  12
ATOM     12  C   UNL     1      -0.277  11.712  20.660  0.00  0.00    +0.000 C 
ATOM     13  C   UNL     1       0.544  12.914  20.178  0.00  0.00    +0.000 C 
ATOM     14  C   UNL     1      -1.139  12.088  21.869  0.00  0.00    +0.000 C 
ENDBRANCH   9  12
ENDBRANCH   4  10
ENDBRANCH   3   4
ENDBRANCH   1   3
BRANCH   1  15
ATOM     15  O   UNL     1       1.777   7.219  18.574  0.00  0.00    +0.000 OA
BRANCH  15  16
ATOM     16  C   UNL     1       2.225   6.846  19.887  0.00  0.00    +0.000 C 
BRANCH  16  17
ATOM     17  C   UNL     1       3.195   5.661  19.753  0.00  0.00    +0.000 C 
ATOM     18  O   UNL     1       2.888   4.521  20.077  0.00  0.00    +0.000 OA
ATOM     19  N   UNL     1       4.442   5.994  19.230  0.00  0.00    +0.000 N 
ATOM     20  H   UNL     1       4.435   6.826  18.637  0.00  0.00    +0.000 HD
BRANCH  19  21
ATOM     21  C   UNL     1       5.447   4.961  18.997  0.00  0.00    +0.000 C 
ATOM     22  C   UNL     1       6.820   5.322  19.590  0.00  0.00    +0.000 C 
ATOM     23  C   UNL     1       7.633   6.036  18.547  0.00  0.00    +0.000 C 
ATOM     24  S   UNL     1       7.253   5.281  17.033  0.00  0.00    +0.000 S 
ATOM     25  O   UNL     1       8.114   4.141  16.843  0.00  0.00    +0.000 OA
ATOM     26  O   UNL     1       7.233   6.422  16.143  0.00  0.00    +0.000 OA
ATOM     27  C   UNL     1       5.627   4.659  17.512  0.00  0.00    +0.000 C 
ENDBRANCH  19  21
ENDBRANCH  16  17
ENDBRANCH  15  16
ENDBRANCH   1  15
TORSDOF 8
ENDMDL
