MODEL 1
REMARK VINA RESULT:      -8.1      0.000      0.000
REMARK  Name = 
REMARK  4 active torsions:
REMARK  status: ('A' for Active; 'I' for Inactive)
REMARK    1  A    between atoms: C_1  and  N_2
REMARK    2  A    between atoms: N_5  and  C_6
REMARK    3  A    between atoms: N_8  and  S_9
REMARK    4  A    between atoms: S_9  and  C_12
REMARK                            x       y       z     vdW  Elec       q    Type
REMARK                         _______ _______ _______ _____ _____    ______ ____
ROOT
ATOM      1  C   UNL     1       2.925   6.824  18.884  0.00  0.00    +0.000 A 
ATOM      2  C   UNL     1       4.173   6.917  18.318  0.00  0.00    +0.000 A 
ATOM      3  N   UNL     1       4.765   5.687  18.411  0.00  0.00    +0.000 N 
ATOM      4  C   UNL     1       3.943   4.780  19.049  0.00  0.00    +0.000 A 
ATOM      5  C   UNL     1       4.103   3.424  19.394  0.00  0.00    +0.000 A 
ATOM      6  C   UNL     1       3.031   2.753  19.989  0.00  0.00    +0.000 A 
ATOM      7  C   UNL     1       1.833   3.407  20.245  0.00  0.00    +0.000 A 
ATOM      8  C   UNL     1       1.685   4.757  19.922  0.00  0.00    +0.000 A 
ATOM      9  C   UNL     1       2.749   5.472  19.325  0.00  0.00    +0.000 A 
ENDROOT
BRANCH   1  14
ATOM     10  C   UNL     1      -1.146  10.644  19.262  0.00  0.00    +0.000 C 
ATOM     11  N   UNL     1       0.215  10.115  19.308  0.00  0.00    +0.000 NA
ATOM     12  C   UNL     1       0.604   9.577  17.985  0.00  0.00    +0.000 C 
ATOM     13  C   UNL     1       2.015   8.946  17.989  0.00  0.00    +0.000 C 
ATOM     14  N   UNL     1       2.096   7.895  19.014  0.00  0.00    +0.000 N 
ATOM     15  C   UNL     1       1.727   8.388  20.356  0.00  0.00    +0.000 C 
ATOM     16  C   UNL     1       0.324   9.038  20.320  0.00  0.00    +0.000 C 
ENDBRANCH   1  14
BRANCH   3  17
ATOM     17  S   UNL     1       6.381   5.413  17.943  0.00  0.00    +0.000 S 
ATOM     18  O   UNL     1       7.035   6.706  17.944  0.00  0.00    +0.000 OA
ATOM     19  O   UNL     1       6.862   4.318  18.767  0.00  0.00    +0.000 OA
BRANCH  17  20
ATOM     20  C   UNL     1       6.287   4.817  16.275  0.00  0.00    +0.000 A 
ATOM     21  C   UNL     1       5.284   3.907  15.917  0.00  0.00    +0.000 A 
ATOM     22  C   UNL     1       5.180   3.479  14.592  0.00  0.00    +0.000 A 
ATOM     23  C   UNL     1       6.068   3.965  13.630  0.00  0.00    +0.000 A 
ATOM     24  C   UNL     1       7.051   4.887  13.994  0.00  0.00    +0.000 A 
ATOM     25 CL   UNL     1       8.125   5.501  12.796  0.00  0.00    +0.000 Cl
ATOM     26  C   UNL     1       7.164   5.324  15.312  0.00  0.00    +0.000 A 
ENDBRANCH  17  20
ENDBRANCH   3  17
TORSDOF 3
ENDMDL
MODEL 2
REMARK VINA RESULT:      -7.8      0.515      1.083
REMARK  Name = 
REMARK  4 active torsions:
REMARK  status: ('A' for Active; 'I' for Inactive)
REMARK    1  A    between atoms: C_1  and  N_2
REMARK    2  A    between atoms: N_5  and  C_6
REMARK    3  A    between atoms: N_8  and  S_9
REMARK    4  A    between atoms: S_9  and  C_12
REMARK                            x       y       z     vdW  Elec       q    Type
REMARK                         _______ _______ _______ _____ _____    ______ ____
ROOT
ATOM      1  C   UNL     1       3.133   6.714  18.953  0.00  0.00    +0.000 A 
ATOM      2  C   UNL     1       4.346   6.849  18.323  0.00  0.00    +0.000 A 
ATOM      3  N   UNL     1       4.996   5.647  18.410  0.00  0.00    +0.000 N 
ATOM      4  C   UNL     1       4.247   4.720  19.106  0.00  0.00    +0.000 A 
ATOM      5  C   UNL     1       4.484   3.379  19.468  0.00  0.00    +0.000 A 
ATOM      6  C   UNL     1       3.473   2.676  20.129  0.00  0.00    +0.000 A 
ATOM      7  C   UNL     1       2.262   3.282  20.432  0.00  0.00    +0.000 A 
ATOM      8  C   UNL     1       2.038   4.618  20.091  0.00  0.00    +0.000 A 
ATOM      9  C   UNL     1       3.039   5.365  19.428  0.00  0.00    +0.000 A 
ENDROOT
BRANCH   1  14
ATOM     10  C   UNL     1       0.294  11.478  19.692  0.00  0.00    +0.000 C 
ATOM     11  N   UNL     1       0.496  10.058  19.412  0.00  0.00    +0.000 NA
ATOM     12  C   UNL     1       1.134   9.391  20.568  0.00  0.00    +0.000 C 
ATOM     13  C   UNL     1       1.429   7.896  20.306  0.00  0.00    +0.000 C 
ATOM     14  N   UNL     1       2.265   7.750  19.104  0.00  0.00    +0.000 N 
ATOM     15  C   UNL     1       1.663   8.393  17.919  0.00  0.00    +0.000 C 
ATOM     16  C   UNL     1       1.352   9.879  18.216  0.00  0.00    +0.000 C 
ENDBRANCH   1  14
BRANCH   3  17
ATOM     17  S   UNL     1       6.597   5.434  17.866  0.00  0.00    +0.000 S 
ATOM     18  O   UNL     1       7.202   6.750  17.838  0.00  0.00    +0.000 OA
ATOM     19  O   UNL     1       7.156   4.357  18.666  0.00  0.00    +0.000 OA
BRANCH  17  20
ATOM     20  C   UNL     1       6.448   4.833  16.204  0.00  0.00    +0.000 A 
ATOM     21  C   UNL     1       5.435   3.921  15.882  0.00  0.00    +0.000 A 
ATOM     22  C   UNL     1       5.286   3.489  14.563  0.00  0.00    +0.000 A 
ATOM     23  C   UNL     1       6.140   3.974  13.570  0.00  0.00    +0.000 A 
ATOM     24  C   UNL     1       7.134   4.898  13.898  0.00  0.00    +0.000 A 
ATOM     25 CL   UNL     1       8.166   5.510  12.663  0.00  0.00    +0.000 Cl
ATOM     26  C   UNL     1       7.291   5.338  15.211  0.00  0.00    +0.000 A 
ENDBRANCH  17  20
ENDBRANCH   3  17
TORSDOF 3
ENDMDL
MODEL 3
REMARK VINA RESULT:      -7.7      1.622      1.973
REMARK  Name = 
REMARK  4 active torsions:
REMARK  status: ('A' for Active; 'I' for Inactive)
REMARK    1  A    between atoms: C_1  and  N_2
REMARK    2  A    between atoms: N_5  and  C_6
REMARK    3  A    between atoms: N_8  and  S_9
REMARK    4  A    between atoms: S_9  and  C_12
REMARK                            x       y       z     vdW  Elec       q    Type
REMARK                         _______ _______ _______ _____ _____    ______ ____
ROOT
ATOM      1  C   UNL     1       3.393   6.602  17.868  0.00  0.00    +0.000 A 
ATOM      2  C   UNL     1       4.675   6.811  17.423  0.00  0.00    +0.000 A 
ATOM      3  N   UNL     1       5.200   5.595  17.078  0.00  0.00    +0.000 N 
ATOM      4  C   UNL     1       4.297   4.576  17.306  0.00  0.00    +0.000 A 
ATOM      5  C   UNL     1       4.370   3.179  17.133  0.00  0.00    +0.000 A 
ATOM      6  C   UNL     1       3.233   2.411  17.400  0.00  0.00    +0.000 A 
ATOM      7  C   UNL     1       2.056   3.005  17.834  0.00  0.00    +0.000 A 
ATOM      8  C   UNL     1       1.993   4.387  18.025  0.00  0.00    +0.000 A 
ATOM      9  C   UNL     1       3.125   5.198  17.773  0.00  0.00    +0.000 A 
ENDROOT
BRANCH   1  14
ATOM     10  C   UNL     1      -0.512  10.214  19.604  0.00  0.00    +0.000 C 
ATOM     11  N   UNL     1       0.831   9.678  19.393  0.00  0.00    +0.000 NA
ATOM     12  C   UNL     1       1.101   9.520  17.947  0.00  0.00    +0.000 C 
ATOM     13  C   UNL     1       2.488   8.898  17.664  0.00  0.00    +0.000 C 
ATOM     14  N   UNL     1       2.611   7.604  18.353  0.00  0.00    +0.000 N 
ATOM     15  C   UNL     1       2.360   7.714  19.804  0.00  0.00    +0.000 C 
ATOM     16  C   UNL     1       0.980   8.363  20.060  0.00  0.00    +0.000 C 
ENDBRANCH   1  14
BRANCH   3  17
ATOM     17  S   UNL     1       6.825   5.403  16.603  0.00  0.00    +0.000 S 
ATOM     18  O   UNL     1       7.461   6.692  16.781  0.00  0.00    +0.000 OA
ATOM     19  O   UNL     1       7.309   4.215  17.284  0.00  0.00    +0.000 OA
BRANCH  17  20
ATOM     20  C   UNL     1       6.762   5.027  14.870  0.00  0.00    +0.000 A 
ATOM     21  C   UNL     1       7.840   5.369  14.044  0.00  0.00    +0.000 A 
ATOM     22  C   UNL     1       7.811   5.026  12.691  0.00  0.00    +0.000 A 
ATOM     23  C   UNL     1       6.713   4.336  12.170  0.00  0.00    +0.000 A 
ATOM     24  C   UNL     1       5.653   3.983  13.006  0.00  0.00    +0.000 A 
ATOM     25 CL   UNL     1       4.316   3.111  12.361  0.00  0.00    +0.000 Cl
ATOM     26  C   UNL     1       5.672   4.318  14.359  0.00  0.00    +0.000 A 
ENDBRANCH  17  20
ENDBRANCH   3  17
TORSDOF 3
ENDMDL
MODEL 4
REMARK VINA RESULT:      -7.6      1.676      2.243
REMARK  Name = 
REMARK  4 active torsions:
REMARK  status: ('A' for Active; 'I' for Inactive)
REMARK    1  A    between atoms: C_1  and  N_2
REMARK    2  A    between atoms: N_5  and  C_6
REMARK    3  A    between atoms: N_8  and  S_9
REMARK    4  A    between atoms: S_9  and  C_12
REMARK                            x       y       z     vdW  Elec       q    Type
REMARK                         _______ _______ _______ _____ _____    ______ ____
ROOT
ATOM      1  C   UNL     1       3.440   6.560  17.903  0.00  0.00    +0.000 A 
ATOM      2  C   UNL     1       4.712   6.801  17.446  0.00  0.00    +0.000 A 
ATOM      3  N   UNL     1       5.266   5.597  17.101  0.00  0.00    +0.000 N 
ATOM      4  C   UNL     1       4.392   4.556  17.340  0.00  0.00    +0.000 A 
ATOM      5  C   UNL     1       4.500   3.162  17.170  0.00  0.00    +0.000 A 
ATOM      6  C   UNL     1       3.385   2.365  17.449  0.00  0.00    +0.000 A 
ATOM      7  C   UNL     1       2.197   2.930  17.892  0.00  0.00    +0.000 A 
ATOM      8  C   UNL     1       2.100   4.310  18.079  0.00  0.00    +0.000 A 
ATOM      9  C   UNL     1       3.208   5.149  17.815  0.00  0.00    +0.000 A 
ENDROOT
BRANCH   1  14
ATOM     10  C   UNL     1       0.897  11.040  20.088  0.00  0.00    +0.000 C 
ATOM     11  N   UNL     1       1.010   9.736  19.437  0.00  0.00    +0.000 NA
ATOM     12  C   UNL     1       1.705   8.776  20.322  0.00  0.00    +0.000 C 
ATOM     13  C   UNL     1       1.908   7.394  19.661  0.00  0.00    +0.000 C 
ATOM     14  N   UNL     1       2.637   7.543  18.392  0.00  0.00    +0.000 N 
ATOM     15  C   UNL     1       1.973   8.486  17.469  0.00  0.00    +0.000 C 
ATOM     16  C   UNL     1       1.758   9.851  18.163  0.00  0.00    +0.000 C 
ENDBRANCH   1  14
BRANCH   3  17
ATOM     17  S   UNL     1       6.891   5.446  16.611  0.00  0.00    +0.000 S 
ATOM     18  O   UNL     1       7.495   6.753  16.779  0.00  0.00    +0.000 OA
ATOM     19  O   UNL     1       7.412   4.274  17.293  0.00  0.00    +0.000 OA
BRANCH  17  20
ATOM     20  C   UNL     1       6.823   5.062  14.881  0.00  0.00    +0.000 A 
ATOM     21  C   UNL     1       7.892   5.413  14.047  0.00  0.00    +0.000 A 
ATOM     22  C   UNL     1       7.859   5.064  12.696  0.00  0.00    +0.000 A 
ATOM     23  C   UNL     1       6.767   4.359  12.184  0.00  0.00    +0.000 A 
ATOM     24  C   UNL     1       5.717   3.997  13.028  0.00  0.00    +0.000 A 
ATOM     25 CL   UNL     1       4.387   3.106  12.394  0.00  0.00    +0.000 Cl
ATOM     26  C   UNL     1       5.739   4.338  14.379  0.00  0.00    +0.000 A 
ENDBRANCH  17  20
ENDBRANCH   3  17
TORSDOF 3
ENDMDL
MODEL 5
REMARK VINA RESULT:      -7.5      2.459      2.963
REMARK  Name = 
REMARK  4 active torsions:
REMARK  status: ('A' for Active; 'I' for Inactive)
REMARK    1  A    between atoms: C_1  and  N_2
REMARK    2  A    between atoms: N_5  and  C_6
REMARK    3  A    between atoms: N_8  and  S_9
REMARK    4  A    between atoms: S_9  and  C_12
REMARK                            x       y       z     vdW  Elec       q    Type
REMARK                         _______ _______ _______ _____ _____    ______ ____
ROOT
ATOM      1  C   UNL     1       2.130   6.920  19.213  0.00  0.00    +0.000 A 
ATOM      2  C   UNL     1       3.114   6.994  18.258  0.00  0.00    +0.000 A 
ATOM      3  N   UNL     1       3.540   5.719  17.999  0.00  0.00    +0.000 N 
ATOM      4  C   UNL     1       2.871   4.797  18.779  0.00  0.00    +0.000 A 
ATOM      5  C   UNL     1       2.962   3.396  18.891  0.00  0.00    +0.000 A 
ATOM      6  C   UNL     1       2.076   2.734  19.746  0.00  0.00    +0.000 A 
ATOM      7  C   UNL     1       1.130   3.438  20.479  0.00  0.00    +0.000 A 
ATOM      8  C   UNL     1       1.057   4.829  20.382  0.00  0.00    +0.000 A 
ATOM      9  C   UNL     1       1.940   5.536  19.533  0.00  0.00    +0.000 A 
ENDROOT
BRANCH   1  14
ATOM     10  C   UNL     1      -1.072  11.025  21.261  0.00  0.00    +0.000 C 
ATOM     11  N   UNL     1       0.161  10.326  20.906  0.00  0.00    +0.000 NA
ATOM     12  C   UNL     1       0.218  10.092  19.446  0.00  0.00    +0.000 C 
ATOM     13  C   UNL     1       1.475   9.299  19.018  0.00  0.00    +0.000 C 
ATOM     14  N   UNL     1       1.539   8.023  19.746  0.00  0.00    +0.000 N 
ATOM     15  C   UNL     1       1.496   8.207  21.210  0.00  0.00    +0.000 C 
ATOM     16  C   UNL     1       0.245   9.024  21.610  0.00  0.00    +0.000 C 
ENDBRANCH   1  14
BRANCH   3  17
ATOM     17  S   UNL     1       4.853   5.387  16.965  0.00  0.00    +0.000 S 
ATOM     18  O   UNL     1       4.981   3.945  16.909  0.00  0.00    +0.000 OA
ATOM     19  O   UNL     1       4.635   6.178  15.766  0.00  0.00    +0.000 OA
BRANCH  17  20
ATOM     20  C   UNL     1       6.274   6.059  17.787  0.00  0.00    +0.000 A 
ATOM     21  C   UNL     1       6.985   5.272  18.702  0.00  0.00    +0.000 A 
ATOM     22  C   UNL     1       8.133   5.784  19.309  0.00  0.00    +0.000 A 
ATOM     23  C   UNL     1       8.573   7.072  18.994  0.00  0.00    +0.000 A 
ATOM     24  C   UNL     1       7.869   7.840  18.066  0.00  0.00    +0.000 A 
ATOM     25 CL   UNL     1       8.433   9.416  17.664  0.00  0.00    +0.000 Cl
ATOM     26  C   UNL     1       6.723   7.339  17.451  0.00  0.00    +0.000 A 
ENDBRANCH  17  20
ENDBRANCH   3  17
TORSDOF 3
ENDMDL
MODEL 6
REMARK VINA RESULT:      -7.4      2.634      3.263
REMARK  Name = 
REMARK  4 active torsions:
REMARK  status: ('A' for Active; 'I' for Inactive)
REMARK    1  A    between atoms: C_1  and  N_2
REMARK    2  A    between atoms: N_5  and  C_6
REMARK    3  A    between atoms: N_8  and  S_9
REMARK    4  A    between atoms: S_9  and  C_12
REMARK                            x       y       z     vdW  Elec       q    Type
REMARK                         _______ _______ _______ _____ _____    ______ ____
ROOT
ATOM      1  C   UNL     1       2.433   6.715  18.548  0.00  0.00    +0.000 A 
ATOM      2  C   UNL     1       3.528   6.958  17.756  0.00  0.00    +0.000 A 
ATOM      3  N   UNL     1       3.933   5.761  17.228  0.00  0.00    +0.000 N 
ATOM      4  C   UNL     1       3.140   4.722  17.671  0.00  0.00    +0.000 A 
ATOM      5  C   UNL     1       3.162   3.334  17.431  0.00  0.00    +0.000 A 
ATOM      6  C   UNL     1       2.155   2.542  17.990  0.00  0.00    +0.000 A 
ATOM      7  C   UNL     1       1.155   3.104  18.771  0.00  0.00    +0.000 A 
ATOM      8  C   UNL     1       1.147   4.478  19.024  0.00  0.00    +0.000 A 
ATOM      9  C   UNL     1       2.153   5.311  18.483  0.00  0.00    +0.000 A 
ENDROOT
BRANCH   1  14
ATOM     10  C   UNL     1      -0.831  10.291  21.352  0.00  0.00    +0.000 C 
ATOM     11  N   UNL     1       0.411   9.708  20.851  0.00  0.00    +0.000 NA
ATOM     12  C   UNL     1       0.431   9.730  19.372  0.00  0.00    +0.000 C 
ATOM     13  C   UNL     1       1.698   9.068  18.783  0.00  0.00    +0.000 C 
ATOM     14  N   UNL     1       1.825   7.689  19.278  0.00  0.00    +0.000 N 
ATOM     15  C   UNL     1       1.821   7.618  20.753  0.00  0.00    +0.000 C 
ATOM     16  C   UNL     1       0.558   8.309  21.318  0.00  0.00    +0.000 C 
ENDBRANCH   1  14
BRANCH   3  17
ATOM     17  S   UNL     1       5.348   5.608  16.291  0.00  0.00    +0.000 S 
ATOM     18  O   UNL     1       5.577   4.188  16.117  0.00  0.00    +0.000 OA
ATOM     19  O   UNL     1       5.179   6.497  15.154  0.00  0.00    +0.000 OA
BRANCH  17  20
ATOM     20  C   UNL     1       6.646   6.281  17.296  0.00  0.00    +0.000 A 
ATOM     21  C   UNL     1       7.113   7.580  17.053  0.00  0.00    +0.000 A 
ATOM     22  C   UNL     1       8.097   8.126  17.877  0.00  0.00    +0.000 A 
ATOM     23  C   UNL     1       8.606   7.382  18.945  0.00  0.00    +0.000 A 
ATOM     24  C   UNL     1       8.119   6.098  19.190  0.00  0.00    +0.000 A 
ATOM     25 CL   UNL     1       8.733   5.197  20.523  0.00  0.00    +0.000 Cl
ATOM     26  C   UNL     1       7.135   5.541  18.375  0.00  0.00    +0.000 A 
ENDBRANCH  17  20
ENDBRANCH   3  17
TORSDOF 3
ENDMDL
MODEL 7
REMARK VINA RESULT:      -7.4      1.219      1.645
REMARK  Name = 
REMARK  4 active torsions:
REMARK  status: ('A' for Active; 'I' for Inactive)
REMARK    1  A    between atoms: C_1  and  N_2
REMARK    2  A    between atoms: N_5  and  C_6
REMARK    3  A    between atoms: N_8  and  S_9
REMARK    4  A    between atoms: S_9  and  C_12
REMARK                            x       y       z     vdW  Elec       q    Type
REMARK                         _______ _______ _______ _____ _____    ______ ____
ROOT
ATOM      1  C   UNL     1       2.548   6.503  19.398  0.00  0.00    +0.000 A 
ATOM      2  C   UNL     1       3.851   6.336  18.996  0.00  0.00    +0.000 A 
ATOM      3  N   UNL     1       4.177   5.019  19.179  0.00  0.00    +0.000 N 
ATOM      4  C   UNL     1       3.121   4.309  19.715  0.00  0.00    +0.000 A 
ATOM      5  C   UNL     1       2.970   2.960  20.092  0.00  0.00    +0.000 A 
ATOM      6  C   UNL     1       1.723   2.529  20.551  0.00  0.00    +0.000 A 
ATOM      7  C   UNL     1       0.652   3.408  20.644  0.00  0.00    +0.000 A 
ATOM      8  C   UNL     1       0.810   4.750  20.289  0.00  0.00    +0.000 A 
ATOM      9  C   UNL     1       2.059   5.226  19.827  0.00  0.00    +0.000 A 
ENDROOT
BRANCH   1  14
ATOM     10  C   UNL     1      -0.728  11.036  19.253  0.00  0.00    +0.000 C 
ATOM     11  N   UNL     1       0.498  10.264  19.440  0.00  0.00    +0.000 NA
ATOM     12  C   UNL     1       0.877   9.585  18.181  0.00  0.00    +0.000 C 
ATOM     13  C   UNL     1       2.136   8.701  18.335  0.00  0.00    +0.000 C 
ATOM     14  N   UNL     1       1.933   7.716  19.409  0.00  0.00    +0.000 N 
ATOM     15  C   UNL     1       1.563   8.349  20.691  0.00  0.00    +0.000 C 
ATOM     16  C   UNL     1       0.318   9.248  20.504  0.00  0.00    +0.000 C 
ENDBRANCH   1  14
BRANCH   3  17
ATOM     17  S   UNL     1       5.754   4.425  18.926  0.00  0.00    +0.000 S 
ATOM     18  O   UNL     1       6.626   5.189  19.795  0.00  0.00    +0.000 OA
ATOM     19  O   UNL     1       5.662   2.978  19.022  0.00  0.00    +0.000 OA
BRANCH  17  20
ATOM     20  C   UNL     1       6.134   4.818  17.239  0.00  0.00    +0.000 A 
ATOM     21  C   UNL     1       7.100   5.792  16.951  0.00  0.00    +0.000 A 
ATOM     22  C   UNL     1       7.435   6.062  15.624  0.00  0.00    +0.000 A 
ATOM     23  C   UNL     1       6.815   5.356  14.590  0.00  0.00    +0.000 A 
ATOM     24  C   UNL     1       5.870   4.374  14.888  0.00  0.00    +0.000 A 
ATOM     25 CL   UNL     1       5.129   3.491  13.609  0.00  0.00    +0.000 Cl
ATOM     26  C   UNL     1       5.528   4.093  16.210  0.00  0.00    +0.000 A 
ENDBRANCH  17  20
ENDBRANCH   3  17
TORSDOF 3
ENDMDL
MODEL 8
REMARK VINA RESULT:      -7.3      4.857      8.640
REMARK  Name = 
REMARK  4 active torsions:
REMARK  status: ('A' for Active; 'I' for Inactive)
REMARK    1  A    between atoms: C_1  and  N_2
REMARK    2  A    between atoms: N_5  and  C_6
REMARK    3  A    between atoms: N_8  and  S_9
REMARK    4  A    between atoms: S_9  and  C_12
REMARK                            x       y       z     vdW  Elec       q    Type
REMARK                         _______ _______ _______ _____ _____    ______ ____
ROOT
ATOM      1  C   UNL     1       1.152   9.354  19.623  0.00  0.00    +0.000 A 
ATOM      2  C   UNL     1       0.732  10.391  18.828  0.00  0.00    +0.000 A 
ATOM      3  N   UNL     1      -0.059  11.207  19.592  0.00  0.00    +0.000 N 
ATOM      4  C   UNL     1      -0.189  10.721  20.877  0.00  0.00    +0.000 A 
ATOM      5  C   UNL     1      -0.897  11.181  22.005  0.00  0.00    +0.000 A 
ATOM      6  C   UNL     1      -0.768  10.481  23.208  0.00  0.00    +0.000 A 
ATOM      7  C   UNL     1       0.033   9.351  23.294  0.00  0.00    +0.000 A 
ATOM      8  C   UNL     1       0.716   8.884  22.169  0.00  0.00    +0.000 A 
ATOM      9  C   UNL     1       0.605   9.561  20.932  0.00  0.00    +0.000 A 
ENDROOT
BRANCH   1  14
ATOM     10  C   UNL     1       4.912   5.483  18.143  0.00  0.00    +0.000 C 
ATOM     11  N   UNL     1       3.606   6.135  18.222  0.00  0.00    +0.000 NA
ATOM     12  C   UNL     1       3.670   7.490  17.633  0.00  0.00    +0.000 C 
ATOM     13  C   UNL     1       2.330   8.253  17.744  0.00  0.00    +0.000 C 
ATOM     14  N   UNL     1       1.904   8.323  19.150  0.00  0.00    +0.000 N 
ATOM     15  C   UNL     1       1.815   6.990  19.778  0.00  0.00    +0.000 C 
ATOM     16  C   UNL     1       3.158   6.238  19.631  0.00  0.00    +0.000 C 
ENDBRANCH   1  14
BRANCH   3  17
ATOM     17  S   UNL     1      -0.892  12.543  18.939  0.00  0.00    +0.000 S 
ATOM     18  O   UNL     1      -1.330  13.345  20.064  0.00  0.00    +0.000 OA
ATOM     19  O   UNL     1      -0.033  13.089  17.903  0.00  0.00    +0.000 OA
BRANCH  17  20
ATOM     20  C   UNL     1      -2.316  11.855  18.134  0.00  0.00    +0.000 A 
ATOM     21  C   UNL     1      -3.565  11.907  18.766  0.00  0.00    +0.000 A 
ATOM     22  C   UNL     1      -4.693  11.413  18.109  0.00  0.00    +0.000 A 
ATOM     23  C   UNL     1      -4.574  10.879  16.824  0.00  0.00    +0.000 A 
ATOM     24  C   UNL     1      -3.328  10.851  16.196  0.00  0.00    +0.000 A 
ATOM     25 CL   UNL     1      -3.194  10.215  14.601  0.00  0.00    +0.000 Cl
ATOM     26  C   UNL     1      -2.195  11.344  16.840  0.00  0.00    +0.000 A 
ENDBRANCH  17  20
ENDBRANCH   3  17
TORSDOF 3
ENDMDL
MODEL 9
REMARK VINA RESULT:      -7.2      2.653      3.245
REMARK  Name = 
REMARK  4 active torsions:
REMARK  status: ('A' for Active; 'I' for Inactive)
REMARK    1  A    between atoms: C_1  and  N_2
REMARK    2  A    between atoms: N_5  and  C_6
REMARK    3  A    between atoms: N_8  and  S_9
REMARK    4  A    between atoms: S_9  and  C_12
REMARK                            x       y       z     vdW  Elec       q    Type
REMARK                         _______ _______ _______ _____ _____    ______ ____
ROOT
ATOM      1  C   UNL     1       2.145   7.676  18.839  0.00  0.00    +0.000 A 
ATOM      2  C   UNL     1       3.030   7.690  17.789  0.00  0.00    +0.000 A 
ATOM      3  N   UNL     1       3.635   6.462  17.738  0.00  0.00    +0.000 N 
ATOM      4  C   UNL     1       3.184   5.638  18.748  0.00  0.00    +0.000 A 
ATOM      5  C   UNL     1       3.507   4.318  19.119  0.00  0.00    +0.000 A 
ATOM      6  C   UNL     1       2.807   3.728  20.175  0.00  0.00    +0.000 A 
ATOM      7  C   UNL     1       1.817   4.426  20.853  0.00  0.00    +0.000 A 
ATOM      8  C   UNL     1       1.513   5.742  20.497  0.00  0.00    +0.000 A 
ATOM      9  C   UNL     1       2.205   6.376  19.439  0.00  0.00    +0.000 A 
ENDROOT
BRANCH   1  14
ATOM     10  C   UNL     1      -1.533  11.685  20.142  0.00  0.00    +0.000 C 
ATOM     11  N   UNL     1      -0.226  11.047  20.005  0.00  0.00    +0.000 NA
ATOM     12  C   UNL     1       0.044  10.724  18.586  0.00  0.00    +0.000 C 
ATOM     13  C   UNL     1       1.390   9.990  18.387  0.00  0.00    +0.000 C 
ATOM     14  N   UNL     1       1.426   8.769  19.207  0.00  0.00    +0.000 N 
ATOM     15  C   UNL     1       1.172   9.044  20.636  0.00  0.00    +0.000 C 
ATOM     16  C   UNL     1      -0.166   9.802  20.806  0.00  0.00    +0.000 C 
ENDBRANCH   1  14
BRANCH   3  17
ATOM     17  S   UNL     1       4.904   6.114  16.655  0.00  0.00    +0.000 S 
ATOM     18  O   UNL     1       4.911   4.676  16.476  0.00  0.00    +0.000 OA
ATOM     19  O   UNL     1       4.737   7.019  15.531  0.00  0.00    +0.000 OA
BRANCH  17  20
ATOM     20  C   UNL     1       6.386   6.596  17.503  0.00  0.00    +0.000 A 
ATOM     21  C   UNL     1       6.982   7.830  17.216  0.00  0.00    +0.000 A 
ATOM     22  C   UNL     1       8.118   8.231  17.921  0.00  0.00    +0.000 A 
ATOM     23  C   UNL     1       8.649   7.404  18.915  0.00  0.00    +0.000 A 
ATOM     24  C   UNL     1       8.035   6.186  19.207  0.00  0.00    +0.000 A 
ATOM     25 CL   UNL     1       8.681   5.186  20.451  0.00  0.00    +0.000 Cl
ATOM     26  C   UNL     1       6.899   5.776  18.511  0.00  0.00    +0.000 A 
ENDBRANCH  17  20
ENDBRANCH   3  17
TORSDOF 3
ENDMDL
