MODEL 1
REMARK VINA RESULT:      -6.8      0.000      0.000
REMARK  Name = 
REMARK  8 active torsions:
REMARK  status: ('A' for Active; 'I' for Inactive)
REMARK    1  A    between atoms: C_1  and  O_2
REMARK    2  A    between atoms: O_2  and  C_3
REMARK    3  A    between atoms: C_3  and  C_5
REMARK    4  A    between atoms: C_9  and  S_10
REMARK    5  A    between atoms: S_10  and  N_13
REMARK    6  A    between atoms: N_16  and  C_17
REMARK    7  A    between atoms: C_22  and  O_23
REMARK    8  A    between atoms: O_23  and  C_24
REMARK                            x       y       z     vdW  Elec       q    Type
REMARK                         _______ _______ _______ _____ _____    ______ ____
ROOT
ATOM      1  N   UNL     1       3.136   4.472  18.841  0.00  0.00    +0.000 NA
ATOM      2  C   UNL     1       2.741   4.978  20.195  0.00  0.00    +0.000 C 
ATOM      3  C   UNL     1       2.593   6.527  20.397  0.00  0.00    +0.000 C 
ATOM      4  N   UNL     1       1.984   7.234  19.251  0.00  0.00    +0.000 N 
ATOM      5  C   UNL     1       2.595   6.816  17.959  0.00  0.00    +0.000 C 
ATOM      6  C   UNL     1       2.515   5.286  17.745  0.00  0.00    +0.000 C 
ENDROOT
BRANCH   4   7
ATOM      7  C   UNL     1       1.625   8.607  19.337  0.00  0.00    +0.000 A 
ATOM      8  C   UNL     1       1.994   9.436  18.258  0.00  0.00    +0.000 A 
ATOM      9  C   UNL     1       1.744  10.815  18.179  0.00  0.00    +0.000 A 
ATOM     10  C   UNL     1       1.051  11.442  19.193  0.00  0.00    +0.000 A 
ATOM     11  C   UNL     1       0.611  10.672  20.269  0.00  0.00    +0.000 A 
ATOM     12  C   UNL     1       0.857   9.274  20.358  0.00  0.00    +0.000 A 
BRANCH  12  13
ATOM     13  O   UNL     1       0.399   8.564  21.455  0.00  0.00    +0.000 OA
ATOM     14  C   UNL     1      -0.350   9.299  22.436  0.00  0.00    +0.000 C 
ENDBRANCH  12  13
ENDBRANCH   4   7
BRANCH   1  15
ATOM     15  S   UNL     1       4.685   3.815  18.494  0.00  0.00    +0.000 S 
ATOM     16  O   UNL     1       4.612   3.226  17.179  0.00  0.00    +0.000 OA
ATOM     17  O   UNL     1       5.094   3.054  19.658  0.00  0.00    +0.000 OA
BRANCH  15  22
ATOM     18  C   UNL     1       6.331   5.698  17.181  0.00  0.00    +0.000 A 
ATOM     19  S   UNL     1       7.464   6.958  17.592  0.00  0.00    +0.000 S 
ATOM     20  C   UNL     1       7.812   6.247  19.090  0.00  0.00    +0.000 A 
ATOM     21  C   UNL     1       6.946   5.220  19.381  0.00  0.00    +0.000 A 
ATOM     22  C   UNL     1       5.988   4.983  18.338  0.00  0.00    +0.000 A 
BRANCH  18  23
ATOM     23  C   UNL     1       5.930   5.622  15.769  0.00  0.00    +0.000 C 
ATOM     24  O   UNL     1       5.132   6.338  15.185  0.00  0.00    +0.000 OA
BRANCH  23  26
ATOM     25  C   UNL     1       6.200   4.004  13.918  0.00  0.00    +0.000 C 
ATOM     26  O   UNL     1       6.567   4.549  15.194  0.00  0.00    +0.000 OA
ENDBRANCH  23  26
ENDBRANCH  18  23
ENDBRANCH  15  22
ENDBRANCH   1  15
TORSDOF 6
ENDMDL
MODEL 2
REMARK VINA RESULT:      -6.8      1.865      3.028
REMARK  Name = 
REMARK  8 active torsions:
REMARK  status: ('A' for Active; 'I' for Inactive)
REMARK    1  A    between atoms: C_1  and  O_2
REMARK    2  A    between atoms: O_2  and  C_3
REMARK    3  A    between atoms: C_3  and  C_5
REMARK    4  A    between atoms: C_9  and  S_10
REMARK    5  A    between atoms: S_10  and  N_13
REMARK    6  A    between atoms: N_16  and  C_17
REMARK    7  A    between atoms: C_22  and  O_23
REMARK    8  A    between atoms: O_23  and  C_24
REMARK                            x       y       z     vdW  Elec       q    Type
REMARK                         _______ _______ _______ _____ _____    ______ ____
ROOT
ATOM      1  N   UNL     1       2.899   5.121  18.902  0.00  0.00    +0.000 NA
ATOM      2  C   UNL     1       1.966   4.930  20.058  0.00  0.00    +0.000 C 
ATOM      3  C   UNL     1       1.560   6.188  20.902  0.00  0.00    +0.000 C 
ATOM      4  N   UNL     1       1.342   7.412  20.104  0.00  0.00    +0.000 N 
ATOM      5  C   UNL     1       2.439   7.631  19.121  0.00  0.00    +0.000 C 
ATOM      6  C   UNL     1       2.638   6.413  18.188  0.00  0.00    +0.000 C 
ENDROOT
BRANCH   4   7
ATOM      7  C   UNL     1       0.808   8.591  20.691  0.00  0.00    +0.000 A 
ATOM      8  C   UNL     1       0.806   8.663  22.100  0.00  0.00    +0.000 A 
ATOM      9  C   UNL     1       0.301   9.736  22.850  0.00  0.00    +0.000 A 
ATOM     10  C   UNL     1      -0.204  10.844  22.203  0.00  0.00    +0.000 A 
ATOM     11  C   UNL     1      -0.188  10.862  20.809  0.00  0.00    +0.000 A 
ATOM     12  C   UNL     1       0.324   9.781  20.038  0.00  0.00    +0.000 A 
BRANCH  12  13
ATOM     13  O   UNL     1       0.309   9.855  18.656  0.00  0.00    +0.000 OA
ATOM     14  C   UNL     1      -0.941  10.205  18.040  0.00  0.00    +0.000 C 
ENDBRANCH  12  13
ENDBRANCH   4   7
BRANCH   1  15
ATOM     15  S   UNL     1       4.535   4.594  18.912  0.00  0.00    +0.000 S 
ATOM     16  O   UNL     1       4.525   3.184  19.219  0.00  0.00    +0.000 OA
ATOM     17  O   UNL     1       5.283   5.549  19.705  0.00  0.00    +0.000 OA
BRANCH  15  22
ATOM     18  C   UNL     1       6.554   5.351  17.088  0.00  0.00    +0.000 A 
ATOM     19  S   UNL     1       7.156   4.866  15.526  0.00  0.00    +0.000 S 
ATOM     20  C   UNL     1       5.668   4.182  15.093  0.00  0.00    +0.000 A 
ATOM     21  C   UNL     1       4.807   4.112  16.162  0.00  0.00    +0.000 A 
ATOM     22  C   UNL     1       5.365   4.662  17.366  0.00  0.00    +0.000 A 
BRANCH  18  23
ATOM     23  C   UNL     1       7.369   6.330  17.822  0.00  0.00    +0.000 C 
ATOM     24  O   UNL     1       8.048   6.133  18.818  0.00  0.00    +0.000 OA
BRANCH  23  26
ATOM     25  C   UNL     1       7.883   8.744  17.677  0.00  0.00    +0.000 C 
ATOM     26  O   UNL     1       7.205   7.561  17.233  0.00  0.00    +0.000 OA
ENDBRANCH  23  26
ENDBRANCH  18  23
ENDBRANCH  15  22
ENDBRANCH   1  15
TORSDOF 6
ENDMDL
MODEL 3
REMARK VINA RESULT:      -6.5      0.973      1.865
REMARK  Name = 
REMARK  8 active torsions:
REMARK  status: ('A' for Active; 'I' for Inactive)
REMARK    1  A    between atoms: C_1  and  O_2
REMARK    2  A    between atoms: O_2  and  C_3
REMARK    3  A    between atoms: C_3  and  C_5
REMARK    4  A    between atoms: C_9  and  S_10
REMARK    5  A    between atoms: S_10  and  N_13
REMARK    6  A    between atoms: N_16  and  C_17
REMARK    7  A    between atoms: C_22  and  O_23
REMARK    8  A    between atoms: O_23  and  C_24
REMARK                            x       y       z     vdW  Elec       q    Type
REMARK                         _______ _______ _______ _____ _____    ______ ____
ROOT
ATOM      1  N   UNL     1       3.125   4.519  18.556  0.00  0.00    +0.000 NA
ATOM      2  C   UNL     1       2.260   4.426  19.776  0.00  0.00    +0.000 C 
ATOM      3  C   UNL     1       1.987   5.735  20.597  0.00  0.00    +0.000 C 
ATOM      4  N   UNL     1       1.791   6.942  19.768  0.00  0.00    +0.000 N 
ATOM      5  C   UNL     1       2.832   7.060  18.710  0.00  0.00    +0.000 C 
ATOM      6  C   UNL     1       2.895   5.801  17.813  0.00  0.00    +0.000 C 
ENDROOT
BRANCH   4   7
ATOM      7  C   UNL     1       1.368   8.172  20.343  0.00  0.00    +0.000 A 
ATOM      8  C   UNL     1       1.182   8.196  21.742  0.00  0.00    +0.000 A 
ATOM      9  C   UNL     1       0.749   9.311  22.477  0.00  0.00    +0.000 A 
ATOM     10  C   UNL     1       0.515  10.506  21.830  0.00  0.00    +0.000 A 
ATOM     11  C   UNL     1       0.727  10.568  20.454  0.00  0.00    +0.000 A 
ATOM     12  C   UNL     1       1.169   9.445  19.699  0.00  0.00    +0.000 A 
BRANCH  12  13
ATOM     13  O   UNL     1       1.357   9.566  18.333  0.00  0.00    +0.000 OA
ATOM     14  C   UNL     1       2.107  10.706  17.882  0.00  0.00    +0.000 C 
ENDBRANCH  12  13
ENDBRANCH   4   7
BRANCH   1  15
ATOM     15  S   UNL     1       4.723   3.893  18.482  0.00  0.00    +0.000 S 
ATOM     16  O   UNL     1       4.814   3.102  17.279  0.00  0.00    +0.000 OA
ATOM     17  O   UNL     1       5.025   3.344  19.789  0.00  0.00    +0.000 OA
BRANCH  15  22
ATOM     18  C   UNL     1       6.287   5.799  17.105  0.00  0.00    +0.000 A 
ATOM     19  S   UNL     1       7.410   7.082  17.470  0.00  0.00    +0.000 S 
ATOM     20  C   UNL     1       7.822   6.385  18.959  0.00  0.00    +0.000 A 
ATOM     21  C   UNL     1       6.986   5.344  19.284  0.00  0.00    +0.000 A 
ATOM     22  C   UNL     1       5.997   5.084  18.276  0.00  0.00    +0.000 A 
BRANCH  18  23
ATOM     23  C   UNL     1       5.839   5.708  15.708  0.00  0.00    +0.000 C 
ATOM     24  O   UNL     1       5.169   6.520  15.089  0.00  0.00    +0.000 OA
BRANCH  23  26
ATOM     25  C   UNL     1       6.474   4.272  13.797  0.00  0.00    +0.000 C 
ATOM     26  O   UNL     1       6.255   4.502  15.196  0.00  0.00    +0.000 OA
ENDBRANCH  23  26
ENDBRANCH  18  23
ENDBRANCH  15  22
ENDBRANCH   1  15
TORSDOF 6
ENDMDL
MODEL 4
REMARK VINA RESULT:      -6.5      3.943      8.253
REMARK  Name = 
REMARK  8 active torsions:
REMARK  status: ('A' for Active; 'I' for Inactive)
REMARK    1  A    between atoms: C_1  and  O_2
REMARK    2  A    between atoms: O_2  and  C_3
REMARK    3  A    between atoms: C_3  and  C_5
REMARK    4  A    between atoms: C_9  and  S_10
REMARK    5  A    between atoms: S_10  and  N_13
REMARK    6  A    between atoms: N_16  and  C_17
REMARK    7  A    between atoms: C_22  and  O_23
REMARK    8  A    between atoms: O_23  and  C_24
REMARK                            x       y       z     vdW  Elec       q    Type
REMARK                         _______ _______ _______ _____ _____    ______ ____
ROOT
ATOM      1  N   UNL     1       0.512   9.590  19.811  0.00  0.00    +0.000 NA
ATOM      2  C   UNL     1       0.774   9.633  18.337  0.00  0.00    +0.000 C 
ATOM      3  C   UNL     1       1.997   8.827  17.774  0.00  0.00    +0.000 C 
ATOM      4  N   UNL     1       2.211   7.516  18.421  0.00  0.00    +0.000 N 
ATOM      5  C   UNL     1       2.142   7.617  19.905  0.00  0.00    +0.000 C 
ATOM      6  C   UNL     1       0.810   8.238  20.386  0.00  0.00    +0.000 C 
ENDROOT
BRANCH   4   7
ATOM      7  C   UNL     1       3.167   6.592  17.919  0.00  0.00    +0.000 A 
ATOM      8  C   UNL     1       4.334   7.129  17.336  0.00  0.00    +0.000 A 
ATOM      9  C   UNL     1       5.372   6.373  16.770  0.00  0.00    +0.000 A 
ATOM     10  C   UNL     1       5.310   4.996  16.801  0.00  0.00    +0.000 A 
ATOM     11  C   UNL     1       4.206   4.396  17.407  0.00  0.00    +0.000 A 
ATOM     12  C   UNL     1       3.149   5.153  17.986  0.00  0.00    +0.000 A 
BRANCH  12  13
ATOM     13  O   UNL     1       2.077   4.501  18.570  0.00  0.00    +0.000 OA
ATOM     14  C   UNL     1       2.380   3.573  19.625  0.00  0.00    +0.000 C 
ENDBRANCH  12  13
ENDBRANCH   4   7
BRANCH   1  15
ATOM     15  S   UNL     1       0.793  10.923  20.858  0.00  0.00    +0.000 S 
ATOM     16  O   UNL     1       1.658  11.839  20.156  0.00  0.00    +0.000 OA
ATOM     17  O   UNL     1       1.140  10.378  22.155  0.00  0.00    +0.000 OA
BRANCH  15  22
ATOM     18  C   UNL     1      -1.564  12.382  20.316  0.00  0.00    +0.000 A 
ATOM     19  S   UNL     1      -2.932  13.028  21.182  0.00  0.00    +0.000 S 
ATOM     20  C   UNL     1      -2.062  13.099  22.635  0.00  0.00    +0.000 A 
ATOM     21  C   UNL     1      -0.853  12.452  22.538  0.00  0.00    +0.000 A 
ATOM     22  C   UNL     1      -0.613  11.906  21.231  0.00  0.00    +0.000 A 
BRANCH  18  23
ATOM     23  C   UNL     1      -1.647  12.421  18.849  0.00  0.00    +0.000 C 
ATOM     24  O   UNL     1      -0.852  12.928  18.074  0.00  0.00    +0.000 OA
BRANCH  23  26
ATOM     25  C   UNL     1      -2.902  10.497  17.933  0.00  0.00    +0.000 C 
ATOM     26  O   UNL     1      -2.826  11.827  18.466  0.00  0.00    +0.000 OA
ENDBRANCH  23  26
ENDBRANCH  18  23
ENDBRANCH  15  22
ENDBRANCH   1  15
TORSDOF 6
ENDMDL
MODEL 5
REMARK VINA RESULT:      -6.4      2.541      3.848
REMARK  Name = 
REMARK  8 active torsions:
REMARK  status: ('A' for Active; 'I' for Inactive)
REMARK    1  A    between atoms: C_1  and  O_2
REMARK    2  A    between atoms: O_2  and  C_3
REMARK    3  A    between atoms: C_3  and  C_5
REMARK    4  A    between atoms: C_9  and  S_10
REMARK    5  A    between atoms: S_10  and  N_13
REMARK    6  A    between atoms: N_16  and  C_17
REMARK    7  A    between atoms: C_22  and  O_23
REMARK    8  A    between atoms: O_23  and  C_24
REMARK                            x       y       z     vdW  Elec       q    Type
REMARK                         _______ _______ _______ _____ _____    ______ ____
ROOT
ATOM      1  N   UNL     1       2.466   7.756  19.115  0.00  0.00    +0.000 NA
ATOM      2  C   UNL     1       2.245   8.764  18.028  0.00  0.00    +0.000 C 
ATOM      3  C   UNL     1       0.873   9.524  17.986  0.00  0.00    +0.000 C 
ATOM      4  N   UNL     1       0.339   9.892  19.314  0.00  0.00    +0.000 N 
ATOM      5  C   UNL     1       0.407   8.752  20.269  0.00  0.00    +0.000 C 
ATOM      6  C   UNL     1       1.842   8.191  20.407  0.00  0.00    +0.000 C 
ENDROOT
BRANCH   4   7
ATOM      7  C   UNL     1      -0.803  10.727  19.445  0.00  0.00    +0.000 A 
ATOM      8  C   UNL     1      -1.735  10.711  18.386  0.00  0.00    +0.000 A 
ATOM      9  C   UNL     1      -2.906  11.484  18.333  0.00  0.00    +0.000 A 
ATOM     10  C   UNL     1      -3.232  12.305  19.392  0.00  0.00    +0.000 A 
ATOM     11  C   UNL     1      -2.379  12.332  20.496  0.00  0.00    +0.000 A 
ATOM     12  C   UNL     1      -1.192  11.551  20.561  0.00  0.00    +0.000 A 
BRANCH  12  13
ATOM     13  O   UNL     1      -0.382  11.624  21.682  0.00  0.00    +0.000 OA
ATOM     14  C   UNL     1      -0.952  11.176  22.923  0.00  0.00    +0.000 C 
ENDBRANCH  12  13
ENDBRANCH   4   7
BRANCH   1  15
ATOM     15  S   UNL     1       2.497   6.061  18.836  0.00  0.00    +0.000 S 
ATOM     16  O   UNL     1       1.351   5.744  18.019  0.00  0.00    +0.000 OA
ATOM     17  O   UNL     1       2.729   5.425  20.118  0.00  0.00    +0.000 OA
BRANCH  15  22
ATOM     18  C   UNL     1       4.025   4.166  17.404  0.00  0.00    +0.000 A 
ATOM     19  S   UNL     1       5.328   4.140  16.246  0.00  0.00    +0.000 S 
ATOM     20  C   UNL     1       5.892   5.656  16.749  0.00  0.00    +0.000 A 
ATOM     21  C   UNL     1       5.007   6.273  17.601  0.00  0.00    +0.000 A 
ATOM     22  C   UNL     1       3.847   5.473  17.879  0.00  0.00    +0.000 A 
BRANCH  18  23
ATOM     23  C   UNL     1       3.352   2.882  17.652  0.00  0.00    +0.000 C 
ATOM     24  O   UNL     1       2.260   2.525  17.237  0.00  0.00    +0.000 OA
BRANCH  23  26
ATOM     25  C   UNL     1       4.102   2.267  19.926  0.00  0.00    +0.000 C 
ATOM     26  O   UNL     1       4.137   2.137  18.498  0.00  0.00    +0.000 OA
ENDBRANCH  23  26
ENDBRANCH  18  23
ENDBRANCH  15  22
ENDBRANCH   1  15
TORSDOF 6
ENDMDL
MODEL 6
REMARK VINA RESULT:      -6.4      1.645      2.464
REMARK  Name = 
REMARK  8 active torsions:
REMARK  status: ('A' for Active; 'I' for Inactive)
REMARK    1  A    between atoms: C_1  and  O_2
REMARK    2  A    between atoms: O_2  and  C_3
REMARK    3  A    between atoms: C_3  and  C_5
REMARK    4  A    between atoms: C_9  and  S_10
REMARK    5  A    between atoms: S_10  and  N_13
REMARK    6  A    between atoms: N_16  and  C_17
REMARK    7  A    between atoms: C_22  and  O_23
REMARK    8  A    between atoms: O_23  and  C_24
REMARK                            x       y       z     vdW  Elec       q    Type
REMARK                         _______ _______ _______ _____ _____    ______ ____
ROOT
ATOM      1  N   UNL     1       2.803   5.227  19.126  0.00  0.00    +0.000 NA
ATOM      2  C   UNL     1       2.066   5.585  20.381  0.00  0.00    +0.000 C 
ATOM      3  C   UNL     1       1.835   7.104  20.701  0.00  0.00    +0.000 C 
ATOM      4  N   UNL     1       1.520   7.933  19.519  0.00  0.00    +0.000 N 
ATOM      5  C   UNL     1       2.447   7.654  18.387  0.00  0.00    +0.000 C 
ATOM      6  C   UNL     1       2.460   6.156  18.001  0.00  0.00    +0.000 C 
ENDROOT
BRANCH   4   7
ATOM      7  C   UNL     1       1.119   9.290  19.655  0.00  0.00    +0.000 A 
ATOM      8  C   UNL     1       1.597  10.200  18.689  0.00  0.00    +0.000 A 
ATOM      9  C   UNL     1       1.323  11.577  18.676  0.00  0.00    +0.000 A 
ATOM     10  C   UNL     1       0.495  12.118  19.637  0.00  0.00    +0.000 A 
ATOM     11  C   UNL     1      -0.054  11.266  20.594  0.00  0.00    +0.000 A 
ATOM     12  C   UNL     1       0.214   9.868  20.615  0.00  0.00    +0.000 A 
BRANCH  12  13
ATOM     13  O   UNL     1      -0.357   9.074  21.595  0.00  0.00    +0.000 OA
ATOM     14  C   UNL     1      -0.111   9.451  22.959  0.00  0.00    +0.000 C 
ENDBRANCH  12  13
ENDBRANCH   4   7
BRANCH   1  15
ATOM     15  S   UNL     1       4.404   4.605  19.117  0.00  0.00    +0.000 S 
ATOM     16  O   UNL     1       4.325   3.222  19.519  0.00  0.00    +0.000 OA
ATOM     17  O   UNL     1       5.236   5.564  19.816  0.00  0.00    +0.000 OA
BRANCH  15  22
ATOM     18  C   UNL     1       6.492   4.904  17.238  0.00  0.00    +0.000 A 
ATOM     19  S   UNL     1       6.906   4.340  15.641  0.00  0.00    +0.000 S 
ATOM     20  C   UNL     1       5.282   4.061  15.247  0.00  0.00    +0.000 A 
ATOM     21  C   UNL     1       4.464   4.168  16.347  0.00  0.00    +0.000 A 
ATOM     22  C   UNL     1       5.177   4.520  17.542  0.00  0.00    +0.000 A 
BRANCH  18  23
ATOM     23  C   UNL     1       7.546   5.624  17.965  0.00  0.00    +0.000 C 
ATOM     24  O   UNL     1       8.048   5.321  19.037  0.00  0.00    +0.000 OA
BRANCH  23  26
ATOM     25  C   UNL     1       7.877   8.072  17.850  0.00  0.00    +0.000 C 
ATOM     26  O   UNL     1       7.858   6.763  17.263  0.00  0.00    +0.000 OA
ENDBRANCH  23  26
ENDBRANCH  18  23
ENDBRANCH  15  22
ENDBRANCH   1  15
TORSDOF 6
ENDMDL
MODEL 7
REMARK VINA RESULT:      -6.4      2.802      4.228
REMARK  Name = 
REMARK  8 active torsions:
REMARK  status: ('A' for Active; 'I' for Inactive)
REMARK    1  A    between atoms: C_1  and  O_2
REMARK    2  A    between atoms: O_2  and  C_3
REMARK    3  A    between atoms: C_3  and  C_5
REMARK    4  A    between atoms: C_9  and  S_10
REMARK    5  A    between atoms: S_10  and  N_13
REMARK    6  A    between atoms: N_16  and  C_17
REMARK    7  A    between atoms: C_22  and  O_23
REMARK    8  A    between atoms: O_23  and  C_24
REMARK                            x       y       z     vdW  Elec       q    Type
REMARK                         _______ _______ _______ _____ _____    ______ ____
ROOT
ATOM      1  N   UNL     1       2.705   7.105  18.767  0.00  0.00    +0.000 NA
ATOM      2  C   UNL     1       2.597   8.291  17.859  0.00  0.00    +0.000 C 
ATOM      3  C   UNL     1       1.363   9.246  18.023  0.00  0.00    +0.000 C 
ATOM      4  N   UNL     1       0.956   9.478  19.424  0.00  0.00    +0.000 N 
ATOM      5  C   UNL     1       0.885   8.207  20.195  0.00  0.00    +0.000 C 
ATOM      6  C   UNL     1       2.218   7.422  20.149  0.00  0.00    +0.000 C 
ENDROOT
BRANCH   4   7
ATOM      7  C   UNL     1      -0.031  10.445  19.755  0.00  0.00    +0.000 A 
ATOM      8  C   UNL     1      -0.881  10.879  18.715  0.00  0.00    +0.000 A 
ATOM      9  C   UNL     1      -1.894  11.840  18.851  0.00  0.00    +0.000 A 
ATOM     10  C   UNL     1      -2.143  12.400  20.087  0.00  0.00    +0.000 A 
ATOM     11  C   UNL     1      -1.374  11.981  21.171  0.00  0.00    +0.000 A 
ATOM     12  C   UNL     1      -0.345  11.005  21.045  0.00  0.00    +0.000 A 
BRANCH  12  13
ATOM     13  O   UNL     1       0.389  10.633  22.159  0.00  0.00    +0.000 OA
ATOM     14  C   UNL     1      -0.313   9.914  23.186  0.00  0.00    +0.000 C 
ENDBRANCH  12  13
ENDBRANCH   4   7
BRANCH   1  15
ATOM     15  S   UNL     1       2.452   5.488  18.242  0.00  0.00    +0.000 S 
ATOM     16  O   UNL     1       3.668   5.058  17.596  0.00  0.00    +0.000 OA
ATOM     17  O   UNL     1       1.169   5.456  17.569  0.00  0.00    +0.000 OA
BRANCH  15  22
ATOM     18  C   UNL     1       3.210   3.429  20.021  0.00  0.00    +0.000 A 
ATOM     19  S   UNL     1       2.621   2.675  21.478  0.00  0.00    +0.000 S 
ATOM     20  C   UNL     1       1.022   3.124  21.141  0.00  0.00    +0.000 A 
ATOM     21  C   UNL     1       0.950   4.005  20.089  0.00  0.00    +0.000 A 
ATOM     22  C   UNL     1       2.233   4.301  19.518  0.00  0.00    +0.000 A 
BRANCH  18  23
ATOM     23  C   UNL     1       4.571   3.061  19.604  0.00  0.00    +0.000 C 
ATOM     24  O   UNL     1       5.565   3.770  19.608  0.00  0.00    +0.000 OA
BRANCH  23  26
ATOM     25  C   UNL     1       3.664   1.318  18.103  0.00  0.00    +0.000 C 
ATOM     26  O   UNL     1       4.548   1.768  19.140  0.00  0.00    +0.000 OA
ENDBRANCH  23  26
ENDBRANCH  18  23
ENDBRANCH  15  22
ENDBRANCH   1  15
TORSDOF 6
ENDMDL
MODEL 8
REMARK VINA RESULT:      -6.4      3.575      8.071
REMARK  Name = 
REMARK  8 active torsions:
REMARK  status: ('A' for Active; 'I' for Inactive)
REMARK    1  A    between atoms: C_1  and  O_2
REMARK    2  A    between atoms: O_2  and  C_3
REMARK    3  A    between atoms: C_3  and  C_5
REMARK    4  A    between atoms: C_9  and  S_10
REMARK    5  A    between atoms: S_10  and  N_13
REMARK    6  A    between atoms: N_16  and  C_17
REMARK    7  A    between atoms: C_22  and  O_23
REMARK    8  A    between atoms: O_23  and  C_24
REMARK                            x       y       z     vdW  Elec       q    Type
REMARK                         _______ _______ _______ _____ _____    ______ ____
ROOT
ATOM      1  N   UNL     1       1.735   8.979  19.439  0.00  0.00    +0.000 NA
ATOM      2  C   UNL     1       1.780   7.983  20.557  0.00  0.00    +0.000 C 
ATOM      3  C   UNL     1       1.738   6.456  20.197  0.00  0.00    +0.000 C 
ATOM      4  N   UNL     1       2.511   6.094  18.991  0.00  0.00    +0.000 N 
ATOM      5  C   UNL     1       2.235   7.024  17.861  0.00  0.00    +0.000 C 
ATOM      6  C   UNL     1       2.500   8.499  18.242  0.00  0.00    +0.000 C 
ENDROOT
BRANCH   4   7
ATOM      7  C   UNL     1       2.715   4.736  18.625  0.00  0.00    +0.000 A 
ATOM      8  C   UNL     1       1.599   3.877  18.699  0.00  0.00    +0.000 A 
ATOM      9  C   UNL     1       1.617   2.506  18.399  0.00  0.00    +0.000 A 
ATOM     10  C   UNL     1       2.783   1.920  17.953  0.00  0.00    +0.000 A 
ATOM     11  C   UNL     1       3.914   2.722  17.808  0.00  0.00    +0.000 A 
ATOM     12  C   UNL     1       3.906   4.113  18.107  0.00  0.00    +0.000 A 
BRANCH  12  13
ATOM     13  O   UNL     1       5.063   4.857  17.947  0.00  0.00    +0.000 OA
ATOM     14  C   UNL     1       5.864   5.068  19.121  0.00  0.00    +0.000 C 
ENDBRANCH  12  13
ENDBRANCH   4   7
BRANCH   1  15
ATOM     15  S   UNL     1       0.365   9.959  19.103  0.00  0.00    +0.000 S 
ATOM     16  O   UNL     1      -0.518   9.858  20.240  0.00  0.00    +0.000 OA
ATOM     17  O   UNL     1      -0.069   9.636  17.759  0.00  0.00    +0.000 OA
BRANCH  15  22
ATOM     18  C   UNL     1      -0.269  12.712  19.133  0.00  0.00    +0.000 A 
ATOM     19  S   UNL     1       0.554  14.243  19.260  0.00  0.00    +0.000 S 
ATOM     20  C   UNL     1       2.000  13.590  18.666  0.00  0.00    +0.000 A 
ATOM     21  C   UNL     1       1.945  12.219  18.585  0.00  0.00    +0.000 A 
ATOM     22  C   UNL     1       0.675  11.685  18.989  0.00  0.00    +0.000 A 
BRANCH  18  23
ATOM     23  C   UNL     1      -1.736  12.754  19.221  0.00  0.00    +0.000 C 
ATOM     24  O   UNL     1      -2.412  13.192  20.139  0.00  0.00    +0.000 OA
BRANCH  23  26
ATOM     25  C   UNL     1      -3.282  11.154  18.142  0.00  0.00    +0.000 C 
ATOM     26  O   UNL     1      -2.255  12.156  18.098  0.00  0.00    +0.000 OA
ENDBRANCH  23  26
ENDBRANCH  18  23
ENDBRANCH  15  22
ENDBRANCH   1  15
TORSDOF 6
ENDMDL
MODEL 9
REMARK VINA RESULT:      -6.4      2.693      4.082
REMARK  Name = 
REMARK  8 active torsions:
REMARK  status: ('A' for Active; 'I' for Inactive)
REMARK    1  A    between atoms: C_1  and  O_2
REMARK    2  A    between atoms: O_2  and  C_3
REMARK    3  A    between atoms: C_3  and  C_5
REMARK    4  A    between atoms: C_9  and  S_10
REMARK    5  A    between atoms: S_10  and  N_13
REMARK    6  A    between atoms: N_16  and  C_17
REMARK    7  A    between atoms: C_22  and  O_23
REMARK    8  A    between atoms: O_23  and  C_24
REMARK                            x       y       z     vdW  Elec       q    Type
REMARK                         _______ _______ _______ _____ _____    ______ ____
ROOT
ATOM      1  N   UNL     1       2.528   7.568  19.170  0.00  0.00    +0.000 NA
ATOM      2  C   UNL     1       2.402   8.595  18.087  0.00  0.00    +0.000 C 
ATOM      3  C   UNL     1       1.067   9.414  17.989  0.00  0.00    +0.000 C 
ATOM      4  N   UNL     1       0.488   9.791  19.295  0.00  0.00    +0.000 N 
ATOM      5  C   UNL     1       0.462   8.640  20.239  0.00  0.00    +0.000 C 
ATOM      6  C   UNL     1       1.863   8.017  20.437  0.00  0.00    +0.000 C 
ENDROOT
BRANCH   4   7
ATOM      7  C   UNL     1      -0.623  10.674  19.383  0.00  0.00    +0.000 A 
ATOM      8  C   UNL     1      -0.587  11.651  20.400  0.00  0.00    +0.000 A 
ATOM      9  C   UNL     1      -1.601  12.590  20.650  0.00  0.00    +0.000 A 
ATOM     10  C   UNL     1      -2.715  12.624  19.839  0.00  0.00    +0.000 A 
ATOM     11  C   UNL     1      -2.793  11.718  18.781  0.00  0.00    +0.000 A 
ATOM     12  C   UNL     1      -1.771  10.764  18.517  0.00  0.00    +0.000 A 
BRANCH  12  13
ATOM     13  O   UNL     1      -1.907   9.887  17.455  0.00  0.00    +0.000 OA
ATOM     14  C   UNL     1      -2.569  10.389  16.282  0.00  0.00    +0.000 C 
ENDBRANCH  12  13
ENDBRANCH   4   7
BRANCH   1  15
ATOM     15  S   UNL     1       2.499   5.876  18.874  0.00  0.00    +0.000 S 
ATOM     16  O   UNL     1       1.413   5.623  17.959  0.00  0.00    +0.000 OA
ATOM     17  O   UNL     1       2.591   5.218  20.162  0.00  0.00    +0.000 OA
BRANCH  15  22
ATOM     18  C   UNL     1       4.049   3.918  17.553  0.00  0.00    +0.000 A 
ATOM     19  S   UNL     1       5.442   3.837  16.508  0.00  0.00    +0.000 S 
ATOM     20  C   UNL     1       6.034   5.320  17.074  0.00  0.00    +0.000 A 
ATOM     21  C   UNL     1       5.111   5.973  17.856  0.00  0.00    +0.000 A 
ATOM     22  C   UNL     1       3.895   5.229  18.026  0.00  0.00    +0.000 A 
BRANCH  18  23
ATOM     23  C   UNL     1       3.296   2.668  17.729  0.00  0.00    +0.000 C 
ATOM     24  O   UNL     1       2.212   2.380  17.246  0.00  0.00    +0.000 OA
BRANCH  23  26
ATOM     25  C   UNL     1       4.318   2.241  19.939  0.00  0.00    +0.000 C 
ATOM     26  O   UNL     1       3.993   1.860  18.595  0.00  0.00    +0.000 OA
ENDBRANCH  23  26
ENDBRANCH  18  23
ENDBRANCH  15  22
ENDBRANCH   1  15
TORSDOF 6
ENDMDL
