MODEL 1
REMARK VINA RESULT:      -8.6      0.000      0.000
REMARK  Name = 
REMARK  5 active torsions:
REMARK  status: ('A' for Active; 'I' for Inactive)
REMARK    1  A    between atoms: C_1  and  C_2
REMARK    2  A    between atoms: C_2  and  C_3
REMARK    3  A    between atoms: C_3  and  C_4
REMARK    4  A    between atoms: C_7  and  C_8
REMARK    5  A    between atoms: C_13  and  N_14
REMARK                            x       y       z     vdW  Elec       q    Type
REMARK                         _______ _______ _______ _____ _____    ______ ____
ROOT
ATOM      1  C   UNL     1       3.039   6.460  19.044  0.00  0.00    +0.000 C 
ATOM      2  O   UNL     1       3.109   5.752  20.059  0.00  0.00    +0.000 OA
ATOM      3  N   UNL     1       2.298   7.675  19.075  0.00  0.00    +0.000 N 
ATOM      4  C   UNL     1       1.846   8.097  20.393  0.00  0.00    +0.000 C 
ATOM      5  C   UNL     1       0.455   8.749  20.354  0.00  0.00    +0.000 C 
ATOM      6  C   UNL     1       0.364  10.069  19.537  0.00  0.00    +0.000 C 
ATOM      7  C   UNL     1       1.067   9.754  18.168  0.00  0.00    +0.000 C 
ATOM      8  C   UNL     1       2.273   8.753  18.081  0.00  0.00    +0.000 C 
ENDROOT
BRANCH   6   9
ATOM      9  N   UNL     1       0.776  11.295  20.335  0.00  0.00    +0.000 N 
ATOM     10  C   UNL     1       0.029  11.449  21.506  0.00  0.00    +0.000 C 
ATOM     11  O   UNL     1       0.107  10.685  22.439  0.00  0.00    +0.000 OA
ATOM     12  C   UNL     1      -0.993  12.547  21.431  0.00  0.00    +0.000 C 
ATOM     13  C   UNL     1      -0.229  13.828  21.383  0.00  0.00    +0.000 C 
ATOM     14  C   UNL     1       0.615  13.796  20.143  0.00  0.00    +0.000 A 
ATOM     15  C   UNL     1       0.913  15.039  19.547  0.00  0.00    +0.000 A 
ATOM     16  C   UNL     1       1.936  15.129  18.631  0.00  0.00    +0.000 A 
ATOM     17  C   UNL     1       2.663  13.978  18.334  0.00  0.00    +0.000 A 
ATOM     18  C   UNL     1       2.273  12.696  18.822  0.00  0.00    +0.000 A 
ATOM     19  C   UNL     1       1.188  12.571  19.701  0.00  0.00    +0.000 A 
ENDBRANCH   6   9
BRANCH   1  23
ATOM     20  C   UNL     1       5.218   4.579  15.752  0.00  0.00    +0.000 A 
ATOM     21  C   UNL     1       4.434   3.835  16.637  0.00  0.00    +0.000 A 
ATOM     22  C   UNL     1       3.719   4.481  17.665  0.00  0.00    +0.000 A 
ATOM     23  C   UNL     1       3.761   5.886  17.849  0.00  0.00    +0.000 A 
ATOM     24  C   UNL     1       4.579   6.606  16.984  0.00  0.00    +0.000 A 
ATOM     25  C   UNL     1       5.279   5.962  15.944  0.00  0.00    +0.000 A 
BRANCH  20  26
ATOM     26  C   UNL     1       6.049   3.917  14.668  0.00  0.00    +0.000 C 
BRANCH  26  28
ATOM     27  C   UNL     1       6.402   3.351  12.207  0.00  0.00    +0.000 C 
ATOM     28  C   UNL     1       5.462   3.925  13.255  0.00  0.00    +0.000 C 
ENDBRANCH  26  28
ENDBRANCH  20  26
ENDBRANCH   1  23
TORSDOF 4
ENDMDL
MODEL 2
REMARK VINA RESULT:      -8.2      3.019      4.514
REMARK  Name = 
REMARK  5 active torsions:
REMARK  status: ('A' for Active; 'I' for Inactive)
REMARK    1  A    between atoms: C_1  and  C_2
REMARK    2  A    between atoms: C_2  and  C_3
REMARK    3  A    between atoms: C_3  and  C_4
REMARK    4  A    between atoms: C_7  and  C_8
REMARK    5  A    between atoms: C_13  and  N_14
REMARK                            x       y       z     vdW  Elec       q    Type
REMARK                         _______ _______ _______ _____ _____    ______ ____
ROOT
ATOM      1  C   UNL     1       1.987   8.592  18.808  0.00  0.00    +0.000 C 
ATOM      2  O   UNL     1       2.718   8.916  17.861  0.00  0.00    +0.000 OA
ATOM      3  N   UNL     1       1.180   9.573  19.450  0.00  0.00    +0.000 N 
ATOM      4  C   UNL     1       1.124  10.867  18.785  0.00  0.00    +0.000 C 
ATOM      5  C   UNL     1       1.080  12.036  19.782  0.00  0.00    +0.000 C 
ATOM      6  C   UNL     1      -0.178  12.080  20.697  0.00  0.00    +0.000 C 
ATOM      7  C   UNL     1      -0.325  10.623  21.265  0.00  0.00    +0.000 C 
ATOM      8  C   UNL     1       0.097   9.371  20.418  0.00  0.00    +0.000 C 
ENDROOT
BRANCH   6   9
ATOM      9  N   UNL     1      -1.368  12.762  20.042  0.00  0.00    +0.000 N 
ATOM     10  C   UNL     1      -2.022  13.646  20.903  0.00  0.00    +0.000 C 
ATOM     11  O   UNL     1      -1.517  14.671  21.297  0.00  0.00    +0.000 OA
ATOM     12  C   UNL     1      -3.333  13.127  21.422  0.00  0.00    +0.000 C 
ATOM     13  C   UNL     1      -4.261  13.093  20.255  0.00  0.00    +0.000 C 
ATOM     14  C   UNL     1      -3.673  12.150  19.246  0.00  0.00    +0.000 A 
ATOM     15  C   UNL     1      -4.581  11.474  18.405  0.00  0.00    +0.000 A 
ATOM     16  C   UNL     1      -4.126  10.870  17.255  0.00  0.00    +0.000 A 
ATOM     17  C   UNL     1      -2.770  10.963  16.949  0.00  0.00    +0.000 A 
ATOM     18  C   UNL     1      -1.829  11.518  17.866  0.00  0.00    +0.000 A 
ATOM     19  C   UNL     1      -2.262  12.076  19.076  0.00  0.00    +0.000 A 
ENDBRANCH   6   9
BRANCH   1  23
ATOM     20  C   UNL     1       2.118   4.307  19.668  0.00  0.00    +0.000 A 
ATOM     21  C   UNL     1       2.291   4.804  18.375  0.00  0.00    +0.000 A 
ATOM     22  C   UNL     1       2.277   6.193  18.142  0.00  0.00    +0.000 A 
ATOM     23  C   UNL     1       2.088   7.135  19.186  0.00  0.00    +0.000 A 
ATOM     24  C   UNL     1       1.876   6.619  20.461  0.00  0.00    +0.000 A 
ATOM     25  C   UNL     1       1.910   5.230  20.696  0.00  0.00    +0.000 A 
BRANCH  20  26
ATOM     26  C   UNL     1       2.069   2.816  19.953  0.00  0.00    +0.000 C 
BRANCH  26  28
ATOM     27  C   UNL     1       3.604   1.464  18.431  0.00  0.00    +0.000 C 
ATOM     28  C   UNL     1       2.176   1.885  18.744  0.00  0.00    +0.000 C 
ENDBRANCH  26  28
ENDBRANCH  20  26
ENDBRANCH   1  23
TORSDOF 4
ENDMDL
MODEL 3
REMARK VINA RESULT:      -8.2      1.315      1.661
REMARK  Name = 
REMARK  5 active torsions:
REMARK  status: ('A' for Active; 'I' for Inactive)
REMARK    1  A    between atoms: C_1  and  C_2
REMARK    2  A    between atoms: C_2  and  C_3
REMARK    3  A    between atoms: C_3  and  C_4
REMARK    4  A    between atoms: C_7  and  C_8
REMARK    5  A    between atoms: C_13  and  N_14
REMARK                            x       y       z     vdW  Elec       q    Type
REMARK                         _______ _______ _______ _____ _____    ______ ____
ROOT
ATOM      1  C   UNL     1       2.447   6.652  19.670  0.00  0.00    +0.000 C 
ATOM      2  O   UNL     1       2.510   5.808  20.575  0.00  0.00    +0.000 OA
ATOM      3  N   UNL     1       1.678   7.836  19.855  0.00  0.00    +0.000 N 
ATOM      4  C   UNL     1       1.189   8.057  21.207  0.00  0.00    +0.000 C 
ATOM      5  C   UNL     1      -0.216   8.681  21.227  0.00  0.00    +0.000 C 
ATOM      6  C   UNL     1      -0.318  10.102  20.603  0.00  0.00    +0.000 C 
ATOM      7  C   UNL     1       0.421   9.999  19.221  0.00  0.00    +0.000 C 
ATOM      8  C   UNL     1       1.650   9.043  19.023  0.00  0.00    +0.000 C 
ENDROOT
BRANCH   6   9
ATOM      9  N   UNL     1       0.049  11.210  21.577  0.00  0.00    +0.000 N 
ATOM     10  C   UNL     1      -0.765  11.218  22.713  0.00  0.00    +0.000 C 
ATOM     11  O   UNL     1      -0.743  10.337  23.541  0.00  0.00    +0.000 OA
ATOM     12  C   UNL     1      -1.778  12.326  22.724  0.00  0.00    +0.000 C 
ATOM     13  C   UNL     1      -1.010  13.595  22.888  0.00  0.00    +0.000 C 
ATOM     14  C   UNL     1      -0.095  13.716  21.705  0.00  0.00    +0.000 A 
ATOM     15  C   UNL     1       0.240  15.023  21.295  0.00  0.00    +0.000 A 
ATOM     16  C   UNL     1       1.316  15.222  20.459  0.00  0.00    +0.000 A 
ATOM     17  C   UNL     1       2.056  14.113  20.056  0.00  0.00    +0.000 A 
ATOM     18  C   UNL     1       1.635  12.781  20.350  0.00  0.00    +0.000 A 
ATOM     19  C   UNL     1       0.501  12.554  21.140  0.00  0.00    +0.000 A 
ENDBRANCH   6   9
BRANCH   1  23
ATOM     20  C   UNL     1       4.750   5.309  16.204  0.00  0.00    +0.000 A 
ATOM     21  C   UNL     1       4.020   4.418  16.993  0.00  0.00    +0.000 A 
ATOM     22  C   UNL     1       3.262   4.893  18.081  0.00  0.00    +0.000 A 
ATOM     23  C   UNL     1       3.206   6.268  18.424  0.00  0.00    +0.000 A 
ATOM     24  C   UNL     1       3.973   7.135  17.652  0.00  0.00    +0.000 A 
ATOM     25  C   UNL     1       4.716   6.662  16.552  0.00  0.00    +0.000 A 
BRANCH  20  26
ATOM     26  C   UNL     1       5.626   4.833  15.059  0.00  0.00    +0.000 C 
BRANCH  26  28
ATOM     27  C   UNL     1       7.440   4.600  16.835  0.00  0.00    +0.000 C 
ATOM     28  C   UNL     1       6.974   4.217  15.439  0.00  0.00    +0.000 C 
ENDBRANCH  26  28
ENDBRANCH  20  26
ENDBRANCH   1  23
TORSDOF 4
ENDMDL
MODEL 4
REMARK VINA RESULT:      -8.1      2.535      9.343
REMARK  Name = 
REMARK  5 active torsions:
REMARK  status: ('A' for Active; 'I' for Inactive)
REMARK    1  A    between atoms: C_1  and  C_2
REMARK    2  A    between atoms: C_2  and  C_3
REMARK    3  A    between atoms: C_3  and  C_4
REMARK    4  A    between atoms: C_7  and  C_8
REMARK    5  A    between atoms: C_13  and  N_14
REMARK                            x       y       z     vdW  Elec       q    Type
REMARK                         _______ _______ _______ _____ _____    ______ ____
ROOT
ATOM      1  C   UNL     1       1.751   8.503  18.674  0.00  0.00    +0.000 C 
ATOM      2  O   UNL     1       1.790   9.174  17.633  0.00  0.00    +0.000 OA
ATOM      3  N   UNL     1       2.259   7.173  18.682  0.00  0.00    +0.000 N 
ATOM      4  C   UNL     1       2.990   6.778  17.486  0.00  0.00    +0.000 C 
ATOM      5  C   UNL     1       2.740   5.310  17.106  0.00  0.00    +0.000 C 
ATOM      6  C   UNL     1       3.223   4.263  18.149  0.00  0.00    +0.000 C 
ATOM      7  C   UNL     1       2.668   4.770  19.528  0.00  0.00    +0.000 C 
ATOM      8  C   UNL     1       2.515   6.302  19.833  0.00  0.00    +0.000 C 
ENDROOT
BRANCH   6   9
ATOM      9  N   UNL     1       4.696   3.915  18.008  0.00  0.00    +0.000 N 
ATOM     10  C   UNL     1       5.401   4.067  19.204  0.00  0.00    +0.000 C 
ATOM     11  O   UNL     1       5.218   3.360  20.167  0.00  0.00    +0.000 OA
ATOM     12  C   UNL     1       6.281   5.285  19.238  0.00  0.00    +0.000 C 
ATOM     13  C   UNL     1       7.381   5.034  18.263  0.00  0.00    +0.000 C 
ATOM     14  C   UNL     1       6.749   4.867  16.912  0.00  0.00    +0.000 A 
ATOM     15  C   UNL     1       7.526   5.245  15.798  0.00  0.00    +0.000 A 
ATOM     16  C   UNL     1       7.168   4.816  14.539  0.00  0.00    +0.000 A 
ATOM     17  C   UNL     1       6.047   4.000  14.411  0.00  0.00    +0.000 A 
ATOM     18  C   UNL     1       5.179   3.737  15.512  0.00  0.00    +0.000 A 
ATOM     19  C   UNL     1       5.486   4.223  16.790  0.00  0.00    +0.000 A 
ENDBRANCH   6   9
BRANCH   1  23
ATOM     20  C   UNL     1      -0.259  10.330  22.101  0.00  0.00    +0.000 A 
ATOM     21  C   UNL     1       0.254   9.033  22.154  0.00  0.00    +0.000 A 
ATOM     22  C   UNL     1       0.926   8.490  21.041  0.00  0.00    +0.000 A 
ATOM     23  C   UNL     1       1.108   9.218  19.837  0.00  0.00    +0.000 A 
ATOM     24  C   UNL     1       0.554  10.493  19.789  0.00  0.00    +0.000 A 
ATOM     25  C   UNL     1      -0.102  11.043  20.908  0.00  0.00    +0.000 A 
BRANCH  20  26
ATOM     26  C   UNL     1      -1.040  10.931  23.256  0.00  0.00    +0.000 C 
BRANCH  26  28
ATOM     27  C   UNL     1      -3.152  12.359  23.261  0.00  0.00    +0.000 C 
ATOM     28  C   UNL     1      -1.651  12.314  23.021  0.00  0.00    +0.000 C 
ENDBRANCH  26  28
ENDBRANCH  20  26
ENDBRANCH   1  23
TORSDOF 4
ENDMDL
MODEL 5
REMARK VINA RESULT:      -8.1      0.765      1.052
REMARK  Name = 
REMARK  5 active torsions:
REMARK  status: ('A' for Active; 'I' for Inactive)
REMARK    1  A    between atoms: C_1  and  C_2
REMARK    2  A    between atoms: C_2  and  C_3
REMARK    3  A    between atoms: C_3  and  C_4
REMARK    4  A    between atoms: C_7  and  C_8
REMARK    5  A    between atoms: C_13  and  N_14
REMARK                            x       y       z     vdW  Elec       q    Type
REMARK                         _______ _______ _______ _____ _____    ______ ____
ROOT
ATOM      1  C   UNL     1       2.619   6.175  19.816  0.00  0.00    +0.000 C 
ATOM      2  O   UNL     1       2.509   5.545  20.878  0.00  0.00    +0.000 OA
ATOM      3  N   UNL     1       2.013   7.455  19.684  0.00  0.00    +0.000 N 
ATOM      4  C   UNL     1       1.475   8.022  20.913  0.00  0.00    +0.000 C 
ATOM      5  C   UNL     1       0.172   8.802  20.677  0.00  0.00    +0.000 C 
ATOM      6  C   UNL     1       0.307  10.057  19.767  0.00  0.00    +0.000 C 
ATOM      7  C   UNL     1       1.109   9.568  18.508  0.00  0.00    +0.000 C 
ATOM      8  C   UNL     1       2.204   8.449  18.623  0.00  0.00    +0.000 C 
ENDROOT
BRANCH   6   9
ATOM      9  N   UNL     1       0.762  11.295  20.522  0.00  0.00    +0.000 N 
ATOM     10  C   UNL     1       0.071  11.477  21.722  0.00  0.00    +0.000 C 
ATOM     11  O   UNL     1       0.187  10.731  22.665  0.00  0.00    +0.000 OA
ATOM     12  C   UNL     1      -0.946  12.581  21.673  0.00  0.00    +0.000 C 
ATOM     13  C   UNL     1      -0.177  13.855  21.565  0.00  0.00    +0.000 C 
ATOM     14  C   UNL     1       0.609  13.793  20.288  0.00  0.00    +0.000 A 
ATOM     15  C   UNL     1       0.887  15.022  19.655  0.00  0.00    +0.000 A 
ATOM     16  C   UNL     1       1.868  15.087  18.692  0.00  0.00    +0.000 A 
ATOM     17  C   UNL     1       2.573  13.926  18.384  0.00  0.00    +0.000 A 
ATOM     18  C   UNL     1       2.197  12.656  18.915  0.00  0.00    +0.000 A 
ATOM     19  C   UNL     1       1.153  12.556  19.845  0.00  0.00    +0.000 A 
ENDBRANCH   6   9
BRANCH   1  23
ATOM     20  C   UNL     1       5.006   4.297  16.670  0.00  0.00    +0.000 A 
ATOM     21  C   UNL     1       5.571   5.172  17.600  0.00  0.00    +0.000 A 
ATOM     22  C   UNL     1       4.777   5.731  18.620  0.00  0.00    +0.000 A 
ATOM     23  C   UNL     1       3.395   5.441  18.750  0.00  0.00    +0.000 A 
ATOM     24  C   UNL     1       2.841   4.600  17.789  0.00  0.00    +0.000 A 
ATOM     25  C   UNL     1       3.639   4.026  16.780  0.00  0.00    +0.000 A 
BRANCH  20  26
ATOM     26  C   UNL     1       5.812   3.719  15.520  0.00  0.00    +0.000 C 
BRANCH  26  28
ATOM     27  C   UNL     1       6.232   3.557  13.011  0.00  0.00    +0.000 C 
ATOM     28  C   UNL     1       5.566   4.329  14.139  0.00  0.00    +0.000 C 
ENDBRANCH  26  28
ENDBRANCH  20  26
ENDBRANCH   1  23
TORSDOF 4
ENDMDL
MODEL 6
REMARK VINA RESULT:      -8.1      1.258      1.563
REMARK  Name = 
REMARK  5 active torsions:
REMARK  status: ('A' for Active; 'I' for Inactive)
REMARK    1  A    between atoms: C_1  and  C_2
REMARK    2  A    between atoms: C_2  and  C_3
REMARK    3  A    between atoms: C_3  and  C_4
REMARK    4  A    between atoms: C_7  and  C_8
REMARK    5  A    between atoms: C_13  and  N_14
REMARK                            x       y       z     vdW  Elec       q    Type
REMARK                         _______ _______ _______ _____ _____    ______ ____
ROOT
ATOM      1  C   UNL     1       2.367   7.213  19.486  0.00  0.00    +0.000 C 
ATOM      2  O   UNL     1       2.488   6.622  20.569  0.00  0.00    +0.000 OA
ATOM      3  N   UNL     1       1.545   8.372  19.397  0.00  0.00    +0.000 N 
ATOM      4  C   UNL     1       1.069   8.899  20.668  0.00  0.00    +0.000 C 
ATOM      5  C   UNL     1      -0.363   9.448  20.575  0.00  0.00    +0.000 C 
ATOM      6  C   UNL     1      -0.546  10.665  19.624  0.00  0.00    +0.000 C 
ATOM      7  C   UNL     1       0.174  10.257  18.289  0.00  0.00    +0.000 C 
ATOM      8  C   UNL     1       1.444   9.335  18.296  0.00  0.00    +0.000 C 
ENDROOT
BRANCH   6   9
ATOM      9  N   UNL     1      -0.216  11.993  20.286  0.00  0.00    +0.000 N 
ATOM     10  C   UNL     1      -1.298  12.524  20.993  0.00  0.00    +0.000 C 
ATOM     11  O   UNL     1      -1.739  12.013  21.996  0.00  0.00    +0.000 OA
ATOM     12  C   UNL     1      -1.961  13.683  20.306  0.00  0.00    +0.000 C 
ATOM     13  C   UNL     1      -0.984  14.810  20.348  0.00  0.00    +0.000 C 
ATOM     14  C   UNL     1       0.238  14.368  19.597  0.00  0.00    +0.000 A 
ATOM     15  C   UNL     1       0.992  15.378  18.965  0.00  0.00    +0.000 A 
ATOM     16  C   UNL     1       2.279  15.112  18.555  0.00  0.00    +0.000 A 
ATOM     17  C   UNL     1       2.805  13.845  18.797  0.00  0.00    +0.000 A 
ATOM     18  C   UNL     1       1.998  12.782  19.303  0.00  0.00    +0.000 A 
ATOM     19  C   UNL     1       0.663  13.012  19.661  0.00  0.00    +0.000 A 
ENDBRANCH   6   9
BRANCH   1  23
ATOM     20  C   UNL     1       4.631   5.128  16.380  0.00  0.00    +0.000 A 
ATOM     21  C   UNL     1       3.792   4.446  17.263  0.00  0.00    +0.000 A 
ATOM     22  C   UNL     1       3.052   5.156  18.229  0.00  0.00    +0.000 A 
ATOM     23  C   UNL     1       3.123   6.567  18.351  0.00  0.00    +0.000 A 
ATOM     24  C   UNL     1       3.995   7.225  17.490  0.00  0.00    +0.000 A 
ATOM     25  C   UNL     1       4.721   6.517  16.512  0.00  0.00    +0.000 A 
BRANCH  20  26
ATOM     26  C   UNL     1       5.490   4.396  15.364  0.00  0.00    +0.000 C 
BRANCH  26  28
ATOM     27  C   UNL     1       7.490   4.490  16.942  0.00  0.00    +0.000 C 
ATOM     28  C   UNL     1       7.005   4.563  15.503  0.00  0.00    +0.000 C 
ENDBRANCH  26  28
ENDBRANCH  20  26
ENDBRANCH   1  23
TORSDOF 4
ENDMDL
MODEL 7
REMARK VINA RESULT:      -8.0      2.950      4.641
REMARK  Name = 
REMARK  5 active torsions:
REMARK  status: ('A' for Active; 'I' for Inactive)
REMARK    1  A    between atoms: C_1  and  C_2
REMARK    2  A    between atoms: C_2  and  C_3
REMARK    3  A    between atoms: C_3  and  C_4
REMARK    4  A    between atoms: C_7  and  C_8
REMARK    5  A    between atoms: C_13  and  N_14
REMARK                            x       y       z     vdW  Elec       q    Type
REMARK                         _______ _______ _______ _____ _____    ______ ____
ROOT
ATOM      1  C   UNL     1       1.986   8.859  18.531  0.00  0.00    +0.000 C 
ATOM      2  O   UNL     1       2.713   9.281  17.619  0.00  0.00    +0.000 OA
ATOM      3  N   UNL     1       1.139   9.759  19.237  0.00  0.00    +0.000 N 
ATOM      4  C   UNL     1       1.042  11.098  18.674  0.00  0.00    +0.000 C 
ATOM      5  C   UNL     1       0.949  12.184  19.757  0.00  0.00    +0.000 C 
ATOM      6  C   UNL     1      -0.317  12.114  20.658  0.00  0.00    +0.000 C 
ATOM      7  C   UNL     1      -0.417  10.613  21.111  0.00  0.00    +0.000 C 
ATOM      8  C   UNL     1       0.056   9.445  20.175  0.00  0.00    +0.000 C 
ENDROOT
BRANCH   6   9
ATOM      9  N   UNL     1      -1.525  12.802  20.045  0.00  0.00    +0.000 N 
ATOM     10  C   UNL     1      -2.122  13.718  20.915  0.00  0.00    +0.000 C 
ATOM     11  O   UNL     1      -1.581  14.742  21.260  0.00  0.00    +0.000 OA
ATOM     12  C   UNL     1      -3.415  13.235  21.508  0.00  0.00    +0.000 C 
ATOM     13  C   UNL     1      -4.399  13.191  20.388  0.00  0.00    +0.000 C 
ATOM     14  C   UNL     1      -3.876  12.214  19.375  0.00  0.00    +0.000 A 
ATOM     15  C   UNL     1      -4.836  11.536  18.595  0.00  0.00    +0.000 A 
ATOM     16  C   UNL     1      -4.448  10.897  17.440  0.00  0.00    +0.000 A 
ATOM     17  C   UNL     1      -3.107  10.958  17.067  0.00  0.00    +0.000 A 
ATOM     18  C   UNL     1      -2.113  11.516  17.924  0.00  0.00    +0.000 A 
ATOM     19  C   UNL     1      -2.477  12.110  19.140  0.00  0.00    +0.000 A 
ENDBRANCH   6   9
BRANCH   1  23
ATOM     20  C   UNL     1       2.547   4.645  19.552  0.00  0.00    +0.000 A 
ATOM     21  C   UNL     1       2.113   5.579  20.494  0.00  0.00    +0.000 A 
ATOM     22  C   UNL     1       1.911   6.922  20.120  0.00  0.00    +0.000 A 
ATOM     23  C   UNL     1       2.135   7.381  18.797  0.00  0.00    +0.000 A 
ATOM     24  C   UNL     1       2.607   6.445  17.882  0.00  0.00    +0.000 A 
ATOM     25  C   UNL     1       2.791   5.098  18.253  0.00  0.00    +0.000 A 
BRANCH  20  26
ATOM     26  C   UNL     1       2.834   3.202  19.928  0.00  0.00    +0.000 C 
BRANCH  26  28
ATOM     27  C   UNL     1       0.691   2.325  18.860  0.00  0.00    +0.000 C 
ATOM     28  C   UNL     1       2.185   2.126  19.053  0.00  0.00    +0.000 C 
ENDBRANCH  26  28
ENDBRANCH  20  26
ENDBRANCH   1  23
TORSDOF 4
ENDMDL
MODEL 8
REMARK VINA RESULT:      -8.0      1.058      1.656
REMARK  Name = 
REMARK  5 active torsions:
REMARK  status: ('A' for Active; 'I' for Inactive)
REMARK    1  A    between atoms: C_1  and  C_2
REMARK    2  A    between atoms: C_2  and  C_3
REMARK    3  A    between atoms: C_3  and  C_4
REMARK    4  A    between atoms: C_7  and  C_8
REMARK    5  A    between atoms: C_13  and  N_14
REMARK                            x       y       z     vdW  Elec       q    Type
REMARK                         _______ _______ _______ _____ _____    ______ ____
ROOT
ATOM      1  C   UNL     1       2.636   6.408  19.732  0.00  0.00    +0.000 C 
ATOM      2  O   UNL     1       2.636   5.550  20.626  0.00  0.00    +0.000 OA
ATOM      3  N   UNL     1       1.862   7.593  19.885  0.00  0.00    +0.000 N 
ATOM      4  C   UNL     1       1.284   7.795  21.206  0.00  0.00    +0.000 C 
ATOM      5  C   UNL     1      -0.115   8.426  21.143  0.00  0.00    +0.000 C 
ATOM      6  C   UNL     1      -0.170   9.858  20.537  0.00  0.00    +0.000 C 
ATOM      7  C   UNL     1       0.660   9.773  19.205  0.00  0.00    +0.000 C 
ATOM      8  C   UNL     1       1.895   8.814  19.074  0.00  0.00    +0.000 C 
ENDROOT
BRANCH   6   9
ATOM      9  N   UNL     1       0.136  10.947  21.551  0.00  0.00    +0.000 N 
ATOM     10  C   UNL     1      -0.593  10.800  22.734  0.00  0.00    +0.000 C 
ATOM     11  O   UNL     1      -0.416   9.886  23.504  0.00  0.00    +0.000 OA
ATOM     12  C   UNL     1      -1.722  11.781  22.874  0.00  0.00    +0.000 C 
ATOM     13  C   UNL     1      -1.092  13.120  23.067  0.00  0.00    +0.000 C 
ATOM     14  C   UNL     1      -0.280  13.410  21.839  0.00  0.00    +0.000 A 
ATOM     15  C   UNL     1      -0.123  14.767  21.489  0.00  0.00    +0.000 A 
ATOM     16  C   UNL     1       0.863  15.133  20.601  0.00  0.00    +0.000 A 
ATOM     17  C   UNL     1       1.694  14.140  20.086  0.00  0.00    +0.000 A 
ATOM     18  C   UNL     1       1.447  12.755  20.325  0.00  0.00    +0.000 A 
ATOM     19  C   UNL     1       0.403  12.356  21.169  0.00  0.00    +0.000 A 
ENDBRANCH   6   9
BRANCH   1  23
ATOM     20  C   UNL     1       4.963   5.578  16.124  0.00  0.00    +0.000 A 
ATOM     21  C   UNL     1       4.850   6.867  16.647  0.00  0.00    +0.000 A 
ATOM     22  C   UNL     1       4.120   7.091  17.831  0.00  0.00    +0.000 A 
ATOM     23  C   UNL     1       3.476   6.040  18.533  0.00  0.00    +0.000 A 
ATOM     24  C   UNL     1       3.565   4.769  17.974  0.00  0.00    +0.000 A 
ATOM     25  C   UNL     1       4.310   4.543  16.801  0.00  0.00    +0.000 A 
BRANCH  20  26
ATOM     26  C   UNL     1       5.690   5.302  14.820  0.00  0.00    +0.000 C 
BRANCH  26  28
ATOM     27  C   UNL     1       6.176   3.600  12.986  0.00  0.00    +0.000 C 
ATOM     28  C   UNL     1       5.928   3.832  14.467  0.00  0.00    +0.000 C 
ENDBRANCH  26  28
ENDBRANCH  20  26
ENDBRANCH   1  23
TORSDOF 4
ENDMDL
MODEL 9
REMARK VINA RESULT:      -8.0      2.786      4.650
REMARK  Name = 
REMARK  5 active torsions:
REMARK  status: ('A' for Active; 'I' for Inactive)
REMARK    1  A    between atoms: C_1  and  C_2
REMARK    2  A    between atoms: C_2  and  C_3
REMARK    3  A    between atoms: C_3  and  C_4
REMARK    4  A    between atoms: C_7  and  C_8
REMARK    5  A    between atoms: C_13  and  N_14
REMARK                            x       y       z     vdW  Elec       q    Type
REMARK                         _______ _______ _______ _____ _____    ______ ____
ROOT
ATOM      1  C   UNL     1       1.000  10.137  20.811  0.00  0.00    +0.000 C 
ATOM      2  O   UNL     1       1.077  10.022  22.042  0.00  0.00    +0.000 OA
ATOM      3  N   UNL     1       0.551  11.360  20.238  0.00  0.00    +0.000 N 
ATOM      4  C   UNL     1       0.417  12.472  21.168  0.00  0.00    +0.000 C 
ATOM      5  C   UNL     1      -0.790  13.366  20.842  0.00  0.00    +0.000 C 
ATOM      6  C   UNL     1      -0.725  14.092  19.468  0.00  0.00    +0.000 C 
ATOM      7  C   UNL     1      -0.333  12.978  18.432  0.00  0.00    +0.000 C 
ATOM      8  C   UNL     1       0.599  11.781  18.834  0.00  0.00    +0.000 C 
ENDROOT
BRANCH   6   9
ATOM      9  N   UNL     1       0.062  15.391  19.516  0.00  0.00    +0.000 N 
ATOM     10  C   UNL     1      -0.738  16.513  19.286  0.00  0.00    +0.000 C 
ATOM     11  O   UNL     1      -1.592  16.879  20.059  0.00  0.00    +0.000 OA
ATOM     12  C   UNL     1      -0.554  17.119  17.924  0.00  0.00    +0.000 C 
ATOM     13  C   UNL     1       0.815  17.711  17.910  0.00  0.00    +0.000 C 
ATOM     14  C   UNL     1       1.787  16.589  18.134  0.00  0.00    +0.000 A 
ATOM     15  C   UNL     1       3.067  16.736  17.561  0.00  0.00    +0.000 A 
ATOM     16  C   UNL     1       4.103  15.939  17.991  0.00  0.00    +0.000 A 
ATOM     17  C   UNL     1       3.852  15.014  19.003  0.00  0.00    +0.000 A 
ATOM     18  C   UNL     1       2.532  14.763  19.481  0.00  0.00    +0.000 A 
ATOM     19  C   UNL     1       1.450  15.515  19.004  0.00  0.00    +0.000 A 
ENDBRANCH   6   9
BRANCH   1  23
ATOM     20  C   UNL     1       2.264   6.436  18.855  0.00  0.00    +0.000 A 
ATOM     21  C   UNL     1       1.878   6.465  20.196  0.00  0.00    +0.000 A 
ATOM     22  C   UNL     1       1.444   7.670  20.783  0.00  0.00    +0.000 A 
ATOM     23  C   UNL     1       1.381   8.887  20.056  0.00  0.00    +0.000 A 
ATOM     24  C   UNL     1       1.809   8.846  18.733  0.00  0.00    +0.000 A 
ATOM     25  C   UNL     1       2.225   7.637  18.141  0.00  0.00    +0.000 A 
BRANCH  20  26
ATOM     26  C   UNL     1       2.793   5.172  18.200  0.00  0.00    +0.000 C 
BRANCH  26  28
ATOM     27  C   UNL     1       1.467   3.028  18.577  0.00  0.00    +0.000 C 
ATOM     28  C   UNL     1       1.749   4.199  17.650  0.00  0.00    +0.000 C 
ENDBRANCH  26  28
ENDBRANCH  20  26
ENDBRANCH   1  23
TORSDOF 4
ENDMDL
