MODEL 1
REMARK VINA RESULT:      -9.2      0.000      0.000
REMARK  Name = 
REMARK  6 active torsions:
REMARK  status: ('A' for Active; 'I' for Inactive)
REMARK    1  A    between atoms: C_2  and  C_22
REMARK    2  A    between atoms: N_3  and  C_4
REMARK    3  A    between atoms: C_4  and  C_5
REMARK    4  A    between atoms: C_4  and  C_13
REMARK    5  A    between atoms: C_5  and  C_6
REMARK    6  A    between atoms: C_18  and  O_19
REMARK                            x       y       z     vdW  Elec       q    Type
REMARK                         _______ _______ _______ _____ _____    ______ ____
ROOT
ATOM      1  C   UNL     1       3.490   6.560  18.029  0.00  0.00    +0.000 C 
ENDROOT
BRANCH   1   2
ATOM      2  C   UNL     1       3.877   5.359  18.937  0.00  0.00    +0.000 C 
ATOM      3  O   UNL     1       4.730   5.532  19.820  0.00  0.00    +0.000 OA
ATOM      4  N   UNL     1       3.215   4.144  18.806  0.00  0.00    +0.000 N 
ATOM      5  C   UNL     1       3.543   3.049  19.721  0.00  0.00    +0.000 C 
ATOM      6  C   UNL     1       2.327   2.688  20.572  0.00  0.00    +0.000 C 
ATOM      7  C   UNL     1       1.084   2.417  19.720  0.00  0.00    +0.000 C 
ATOM      8  C   UNL     1       0.848   3.516  18.674  0.00  0.00    +0.000 C 
ATOM      9  C   UNL     1       2.112   3.851  17.896  0.00  0.00    +0.000 C 
BRANCH   7  10
ATOM     10  O   UNL     1       1.173   1.146  19.080  0.00  0.00    +0.000 OA
ATOM     11  H   UNL     1       0.280   0.811  18.896  0.00  0.00    +0.000 HD
ENDBRANCH   7  10
ENDBRANCH   1   2
BRANCH   1  14
ATOM     12  O   UNL     1       2.221   9.055  17.278  0.00  0.00    +0.000 OA
ATOM     13  C   UNL     1       2.028   8.572  18.385  0.00  0.00    +0.000 C 
ATOM     14  N   UNL     1       2.696   7.476  18.858  0.00  0.00    +0.000 N 
ATOM     15  H   UNL     1       2.527   7.164  19.809  0.00  0.00    +0.000 HD
BRANCH  13  16
ATOM     16  C   UNL     1       1.027   9.093  19.283  0.00  0.00    +0.000 A 
ATOM     17  C   UNL     1       0.212  10.199  19.131  0.00  0.00    +0.000 A 
ATOM     18  C   UNL     1      -0.155  10.609  20.437  0.00  0.00    +0.000 A 
ATOM     19  C   UNL     1      -0.585  11.825  20.992  0.00  0.00    +0.000 A 
ATOM     20  C   UNL     1      -0.830  11.873  22.365  0.00  0.00    +0.000 A 
ATOM     21 CL   UNL     1      -1.056  13.405  23.123  0.00  0.00    +0.000 Cl
ATOM     22  C   UNL     1      -0.820  10.717  23.143  0.00  0.00    +0.000 A 
ATOM     23  C   UNL     1      -0.384   9.500  22.608  0.00  0.00    +0.000 A 
ATOM     24  C   UNL     1       0.056   9.523  21.280  0.00  0.00    +0.000 A 
ATOM     25  N   UNL     1       0.850   8.644  20.575  0.00  0.00    +0.000 N 
ATOM     26  H   UNL     1       1.391   7.900  20.995  0.00  0.00    +0.000 HD
ENDBRANCH  13  16
ENDBRANCH   1  14
BRANCH   1  27
ATOM     27  C   UNL     1       4.639   7.231  17.269  0.00  0.00    +0.000 C 
BRANCH  27  28
ATOM     28  C   UNL     1       5.577   6.393  16.431  0.00  0.00    +0.000 A 
ATOM     29  C   UNL     1       5.088   5.839  15.228  0.00  0.00    +0.000 A 
ATOM     30  C   UNL     1       5.829   4.908  14.508  0.00  0.00    +0.000 A 
ATOM     31  C   UNL     1       7.070   4.499  14.979  0.00  0.00    +0.000 A 
ATOM     32  C   UNL     1       7.592   5.060  16.142  0.00  0.00    +0.000 A 
ATOM     33  C   UNL     1       6.861   6.011  16.859  0.00  0.00    +0.000 A 
ATOM     34 CL   UNL     1       7.570   6.626  18.305  0.00  0.00    +0.000 Cl
ENDBRANCH  27  28
ENDBRANCH   1  27
TORSDOF 6
ENDMDL
MODEL 2
REMARK VINA RESULT:      -8.9      1.347      1.664
REMARK  Name = 
REMARK  6 active torsions:
REMARK  status: ('A' for Active; 'I' for Inactive)
REMARK    1  A    between atoms: C_2  and  C_22
REMARK    2  A    between atoms: N_3  and  C_4
REMARK    3  A    between atoms: C_4  and  C_5
REMARK    4  A    between atoms: C_4  and  C_13
REMARK    5  A    between atoms: C_5  and  C_6
REMARK    6  A    between atoms: C_18  and  O_19
REMARK                            x       y       z     vdW  Elec       q    Type
REMARK                         _______ _______ _______ _____ _____    ______ ____
ROOT
ATOM      1  C   UNL     1       2.901   6.235  18.168  0.00  0.00    +0.000 C 
ENDROOT
BRANCH   1   2
ATOM      2  C   UNL     1       1.983   4.980  18.194  0.00  0.00    +0.000 C 
ATOM      3  O   UNL     1       1.702   4.426  17.120  0.00  0.00    +0.000 OA
ATOM      4  N   UNL     1       1.559   4.451  19.407  0.00  0.00    +0.000 N 
ATOM      5  C   UNL     1       0.758   3.225  19.411  0.00  0.00    +0.000 C 
ATOM      6  C   UNL     1       1.512   2.102  20.119  0.00  0.00    +0.000 C 
ATOM      7  C   UNL     1       1.998   2.516  21.510  0.00  0.00    +0.000 C 
ATOM      8  C   UNL     1       2.712   3.875  21.494  0.00  0.00    +0.000 C 
ATOM      9  C   UNL     1       1.921   4.932  20.737  0.00  0.00    +0.000 C 
BRANCH   7  10
ATOM     10  O   UNL     1       0.916   2.546  22.438  0.00  0.00    +0.000 OA
ATOM     11  H   UNL     1       1.096   3.206  23.128  0.00  0.00    +0.000 HD
ENDBRANCH   7  10
ENDBRANCH   1   2
BRANCH   1  14
ATOM     12  O   UNL     1       2.389   9.011  17.514  0.00  0.00    +0.000 OA
ATOM     13  C   UNL     1       1.922   8.520  18.532  0.00  0.00    +0.000 C 
ATOM     14  N   UNL     1       2.231   7.263  18.975  0.00  0.00    +0.000 N 
ATOM     15  H   UNL     1       1.852   6.941  19.860  0.00  0.00    +0.000 HD
BRANCH  13  16
ATOM     16  C   UNL     1       0.949   9.213  19.340  0.00  0.00    +0.000 A 
ATOM     17  C   UNL     1       0.309  10.413  19.092  0.00  0.00    +0.000 A 
ATOM     18  C   UNL     1      -0.079  10.929  20.355  0.00  0.00    +0.000 A 
ATOM     19  C   UNL     1      -0.368  12.216  20.835  0.00  0.00    +0.000 A 
ATOM     20  C   UNL     1      -0.690  12.359  22.185  0.00  0.00    +0.000 A 
ATOM     21 CL   UNL     1      -0.746  13.940  22.871  0.00  0.00    +0.000 Cl
ATOM     22  C   UNL     1      -0.892  11.248  23.002  0.00  0.00    +0.000 A 
ATOM     23  C   UNL     1      -0.598   9.960  22.542  0.00  0.00    +0.000 A 
ATOM     24  C   UNL     1      -0.077   9.862  21.248  0.00  0.00    +0.000 A 
ATOM     25  N   UNL     1       0.629   8.852  20.631  0.00  0.00    +0.000 N 
ATOM     26  H   UNL     1       1.033   8.060  21.115  0.00  0.00    +0.000 HD
ENDBRANCH  13  16
ENDBRANCH   1  14
BRANCH   1  27
ATOM     27  C   UNL     1       4.371   6.004  18.533  0.00  0.00    +0.000 C 
BRANCH  27  28
ATOM     28  C   UNL     1       5.360   5.615  17.458  0.00  0.00    +0.000 A 
ATOM     29  C   UNL     1       4.880   5.413  16.146  0.00  0.00    +0.000 A 
ATOM     30  C   UNL     1       5.692   4.872  15.155  0.00  0.00    +0.000 A 
ATOM     31  C   UNL     1       7.000   4.508  15.455  0.00  0.00    +0.000 A 
ATOM     32  C   UNL     1       7.508   4.734  16.731  0.00  0.00    +0.000 A 
ATOM     33  C   UNL     1       6.704   5.296  17.725  0.00  0.00    +0.000 A 
ATOM     34 CL   UNL     1       7.407   5.507  19.284  0.00  0.00    +0.000 Cl
ENDBRANCH  27  28
ENDBRANCH   1  27
TORSDOF 6
ENDMDL
MODEL 3
REMARK VINA RESULT:      -8.8      3.562      9.105
REMARK  Name = 
REMARK  6 active torsions:
REMARK  status: ('A' for Active; 'I' for Inactive)
REMARK    1  A    between atoms: C_2  and  C_22
REMARK    2  A    between atoms: N_3  and  C_4
REMARK    3  A    between atoms: C_4  and  C_5
REMARK    4  A    between atoms: C_4  and  C_13
REMARK    5  A    between atoms: C_5  and  C_6
REMARK    6  A    between atoms: C_18  and  O_19
REMARK                            x       y       z     vdW  Elec       q    Type
REMARK                         _______ _______ _______ _____ _____    ______ ____
ROOT
ATOM      1  C   UNL     1      -0.021  10.933  19.171  0.00  0.00    +0.000 C 
ENDROOT
BRANCH   1   2
ATOM      2  C   UNL     1       0.789  11.703  20.253  0.00  0.00    +0.000 C 
ATOM      3  O   UNL     1       1.077  11.118  21.308  0.00  0.00    +0.000 OA
ATOM      4  N   UNL     1       1.245  12.990  19.997  0.00  0.00    +0.000 N 
ATOM      5  C   UNL     1       2.070  13.667  21.000  0.00  0.00    +0.000 C 
ATOM      6  C   UNL     1       3.465  13.942  20.440  0.00  0.00    +0.000 C 
ATOM      7  C   UNL     1       3.417  14.673  19.097  0.00  0.00    +0.000 C 
ATOM      8  C   UNL     1       2.436  14.018  18.115  0.00  0.00    +0.000 C 
ATOM      9  C   UNL     1       1.084  13.737  18.754  0.00  0.00    +0.000 C 
BRANCH   7  10
ATOM     10  O   UNL     1       3.081  16.047  19.277  0.00  0.00    +0.000 OA
ATOM     11  H   UNL     1       2.145  16.123  19.524  0.00  0.00    +0.000 HD
ENDBRANCH   7  10
ENDBRANCH   1   2
BRANCH   1  14
ATOM     12  O   UNL     1       2.136  10.044  17.453  0.00  0.00    +0.000 OA
ATOM     13  C   UNL     1       1.683   9.300  18.312  0.00  0.00    +0.000 C 
ATOM     14  N   UNL     1       0.581   9.598  19.065  0.00  0.00    +0.000 N 
ATOM     15  H   UNL     1       0.226   8.908  19.720  0.00  0.00    +0.000 HD
BRANCH  13  16
ATOM     16  C   UNL     1       2.313   8.047  18.649  0.00  0.00    +0.000 A 
ATOM     17  C   UNL     1       3.134   7.249  17.873  0.00  0.00    +0.000 A 
ATOM     18  C   UNL     1       3.028   5.936  18.397  0.00  0.00    +0.000 A 
ATOM     19  C   UNL     1       3.243   4.655  17.865  0.00  0.00    +0.000 A 
ATOM     20  C   UNL     1       2.998   3.551  18.684  0.00  0.00    +0.000 A 
ATOM     21 CL   UNL     1       2.952   1.979  17.980  0.00  0.00    +0.000 Cl
ATOM     22  C   UNL     1       2.715   3.706  20.040  0.00  0.00    +0.000 A 
ATOM     23  C   UNL     1       2.487   4.975  20.582  0.00  0.00    +0.000 A 
ATOM     24  C   UNL     1       2.535   6.053  19.693  0.00  0.00    +0.000 A 
ATOM     25  N   UNL     1       2.031   7.332  19.793  0.00  0.00    +0.000 N 
ATOM     26  H   UNL     1       1.375   7.633  20.502  0.00  0.00    +0.000 HD
ENDBRANCH  13  16
ENDBRANCH   1  14
BRANCH   1  27
ATOM     27  C   UNL     1      -1.544  10.927  19.344  0.00  0.00    +0.000 C 
BRANCH  27  28
ATOM     28  C   UNL     1      -2.437  10.772  18.133  0.00  0.00    +0.000 A 
ATOM     29  C   UNL     1      -1.929  10.086  17.009  0.00  0.00    +0.000 A 
ATOM     30  C   UNL     1      -2.618  10.070  15.801  0.00  0.00    +0.000 A 
ATOM     31  C   UNL     1      -3.824  10.752  15.683  0.00  0.00    +0.000 A 
ATOM     32  C   UNL     1      -4.364  11.403  16.790  0.00  0.00    +0.000 A 
ATOM     33  C   UNL     1      -3.687  11.404  18.011  0.00  0.00    +0.000 A 
ATOM     34 CL   UNL     1      -4.415  12.264  19.316  0.00  0.00    +0.000 Cl
ENDBRANCH  27  28
ENDBRANCH   1  27
TORSDOF 6
ENDMDL
MODEL 4
REMARK VINA RESULT:      -8.7      2.924      4.994
REMARK  Name = 
REMARK  6 active torsions:
REMARK  status: ('A' for Active; 'I' for Inactive)
REMARK    1  A    between atoms: C_2  and  C_22
REMARK    2  A    between atoms: N_3  and  C_4
REMARK    3  A    between atoms: C_4  and  C_5
REMARK    4  A    between atoms: C_4  and  C_13
REMARK    5  A    between atoms: C_5  and  C_6
REMARK    6  A    between atoms: C_18  and  O_19
REMARK                            x       y       z     vdW  Elec       q    Type
REMARK                         _______ _______ _______ _____ _____    ______ ____
ROOT
ATOM      1  C   UNL     1       2.822   6.623  18.175  0.00  0.00    +0.000 C 
ENDROOT
BRANCH   1   2
ATOM      2  C   UNL     1       4.022   6.723  17.190  0.00  0.00    +0.000 C 
ATOM      3  O   UNL     1       4.032   7.642  16.357  0.00  0.00    +0.000 OA
ATOM      4  N   UNL     1       5.092   5.845  17.304  0.00  0.00    +0.000 N 
ATOM      5  C   UNL     1       6.245   6.004  16.415  0.00  0.00    +0.000 C 
ATOM      6  C   UNL     1       7.495   6.343  17.225  0.00  0.00    +0.000 C 
ATOM      7  C   UNL     1       7.737   5.347  18.361  0.00  0.00    +0.000 C 
ATOM      8  C   UNL     1       6.469   5.095  19.190  0.00  0.00    +0.000 C 
ATOM      9  C   UNL     1       5.258   4.805  18.315  0.00  0.00    +0.000 C 
BRANCH   7  10
ATOM     10  O   UNL     1       8.242   4.113  17.858  0.00  0.00    +0.000 OA
ATOM     11  H   UNL     1       9.213   4.116  17.901  0.00  0.00    +0.000 HD
ENDBRANCH   7  10
ENDBRANCH   1   2
BRANCH   1  14
ATOM     12  O   UNL     1       1.667   8.272  20.259  0.00  0.00    +0.000 OA
ATOM     13  C   UNL     1       1.664   8.654  19.096  0.00  0.00    +0.000 C 
ATOM     14  N   UNL     1       2.066   7.876  18.046  0.00  0.00    +0.000 N 
ATOM     15  H   UNL     1       1.983   8.236  17.100  0.00  0.00    +0.000 HD
BRANCH  13  16
ATOM     16  C   UNL     1       1.283   9.996  18.732  0.00  0.00    +0.000 A 
ATOM     17  C   UNL     1       2.049  10.991  18.153  0.00  0.00    +0.000 A 
ATOM     18  C   UNL     1       1.441  12.222  18.508  0.00  0.00    +0.000 A 
ATOM     19  C   UNL     1       1.903  13.544  18.609  0.00  0.00    +0.000 A 
ATOM     20  C   UNL     1       1.007  14.525  19.035  0.00  0.00    +0.000 A 
ATOM     21 CL   UNL     1       1.609  16.082  19.464  0.00  0.00    +0.000 Cl
ATOM     22  C   UNL     1      -0.350  14.246  19.192  0.00  0.00    +0.000 A 
ATOM     23  C   UNL     1      -0.824  12.933  19.106  0.00  0.00    +0.000 A 
ATOM     24  C   UNL     1       0.132  11.937  18.882  0.00  0.00    +0.000 A 
ATOM     25  N   UNL     1       0.084  10.575  19.090  0.00  0.00    +0.000 N 
ATOM     26  H   UNL     1      -0.637  10.103  19.620  0.00  0.00    +0.000 HD
ENDBRANCH  13  16
ENDBRANCH   1  14
BRANCH   1  27
ATOM     27  C   UNL     1       1.967   5.356  18.073  0.00  0.00    +0.000 C 
BRANCH  27  28
ATOM     28  C   UNL     1       1.963   4.358  19.209  0.00  0.00    +0.000 A 
ATOM     29  C   UNL     1       1.852   4.845  20.529  0.00  0.00    +0.000 A 
ATOM     30  C   UNL     1       2.032   4.008  21.625  0.00  0.00    +0.000 A 
ATOM     31  C   UNL     1       2.340   2.668  21.428  0.00  0.00    +0.000 A 
ATOM     32  C   UNL     1       2.416   2.155  20.135  0.00  0.00    +0.000 A 
ATOM     33  C   UNL     1       2.216   2.986  19.031  0.00  0.00    +0.000 A 
ATOM     34 CL   UNL     1       2.363   2.272  17.469  0.00  0.00    +0.000 Cl
ENDBRANCH  27  28
ENDBRANCH   1  27
TORSDOF 6
ENDMDL
MODEL 5
REMARK VINA RESULT:      -8.5      2.469      4.851
REMARK  Name = 
REMARK  6 active torsions:
REMARK  status: ('A' for Active; 'I' for Inactive)
REMARK    1  A    between atoms: C_2  and  C_22
REMARK    2  A    between atoms: N_3  and  C_4
REMARK    3  A    between atoms: C_4  and  C_5
REMARK    4  A    between atoms: C_4  and  C_13
REMARK    5  A    between atoms: C_5  and  C_6
REMARK    6  A    between atoms: C_18  and  O_19
REMARK                            x       y       z     vdW  Elec       q    Type
REMARK                         _______ _______ _______ _____ _____    ______ ____
ROOT
ATOM      1  C   UNL     1       2.631   6.735  18.608  0.00  0.00    +0.000 C 
ENDROOT
BRANCH   1   2
ATOM      2  C   UNL     1       3.799   6.988  17.613  0.00  0.00    +0.000 C 
ATOM      3  O   UNL     1       3.749   7.987  16.879  0.00  0.00    +0.000 OA
ATOM      4  N   UNL     1       4.909   6.153  17.614  0.00  0.00    +0.000 N 
ATOM      5  C   UNL     1       6.030   6.454  16.722  0.00  0.00    +0.000 C 
ATOM      6  C   UNL     1       7.285   6.766  17.536  0.00  0.00    +0.000 C 
ATOM      7  C   UNL     1       7.599   5.672  18.559  0.00  0.00    +0.000 C 
ATOM      8  C   UNL     1       6.365   5.279  19.385  0.00  0.00    +0.000 C 
ATOM      9  C   UNL     1       5.145   5.025  18.511  0.00  0.00    +0.000 C 
BRANCH   7  10
ATOM     10  O   UNL     1       8.144   4.519  17.922  0.00  0.00    +0.000 OA
ATOM     11  H   UNL     1       8.429   4.749  17.022  0.00  0.00    +0.000 HD
ENDBRANCH   7  10
ENDBRANCH   1   2
BRANCH   1  14
ATOM     12  O   UNL     1       1.299   7.715  20.988  0.00  0.00    +0.000 OA
ATOM     13  C   UNL     1       1.483   8.457  20.033  0.00  0.00    +0.000 C 
ATOM     14  N   UNL     1       1.979   8.032  18.831  0.00  0.00    +0.000 N 
ATOM     15  H   UNL     1       2.050   8.691  18.062  0.00  0.00    +0.000 HD
BRANCH  13  16
ATOM     16  C   UNL     1       1.240   9.876  20.109  0.00  0.00    +0.000 A 
ATOM     17  C   UNL     1       0.819  10.630  21.188  0.00  0.00    +0.000 A 
ATOM     18  C   UNL     1       0.204  11.789  20.651  0.00  0.00    +0.000 A 
ATOM     19  C   UNL     1      -0.748  12.701  21.135  0.00  0.00    +0.000 A 
ATOM     20  C   UNL     1      -1.160  13.735  20.292  0.00  0.00    +0.000 A 
ATOM     21 CL   UNL     1      -2.535  14.676  20.730  0.00  0.00    +0.000 Cl
ATOM     22  C   UNL     1      -0.528  13.968  19.072  0.00  0.00    +0.000 A 
ATOM     23  C   UNL     1       0.415  13.064  18.571  0.00  0.00    +0.000 A 
ATOM     24  C   UNL     1       0.658  11.923  19.343  0.00  0.00    +0.000 A 
ATOM     25  N   UNL     1       1.218  10.708  19.010  0.00  0.00    +0.000 N 
ATOM     26  H   UNL     1       1.390  10.399  18.062  0.00  0.00    +0.000 HD
ENDBRANCH  13  16
ENDBRANCH   1  14
BRANCH   1  27
ATOM     27  C   UNL     1       1.669   5.598  18.245  0.00  0.00    +0.000 C 
BRANCH  27  28
ATOM     28  C   UNL     1       1.634   4.344  19.090  0.00  0.00    +0.000 A 
ATOM     29  C   UNL     1       1.233   4.455  20.439  0.00  0.00    +0.000 A 
ATOM     30  C   UNL     1       1.360   3.386  21.320  0.00  0.00    +0.000 A 
ATOM     31  C   UNL     1       1.901   2.186  20.877  0.00  0.00    +0.000 A 
ATOM     32  C   UNL     1       2.267   2.039  19.541  0.00  0.00    +0.000 A 
ATOM     33  C   UNL     1       2.123   3.103  18.647  0.00  0.00    +0.000 A 
ATOM     34 CL   UNL     1       2.634   2.841  17.022  0.00  0.00    +0.000 Cl
ENDBRANCH  27  28
ENDBRANCH   1  27
TORSDOF 6
ENDMDL
MODEL 6
REMARK VINA RESULT:      -8.4      0.916      1.275
REMARK  Name = 
REMARK  6 active torsions:
REMARK  status: ('A' for Active; 'I' for Inactive)
REMARK    1  A    between atoms: C_2  and  C_22
REMARK    2  A    between atoms: N_3  and  C_4
REMARK    3  A    between atoms: C_4  and  C_5
REMARK    4  A    between atoms: C_4  and  C_13
REMARK    5  A    between atoms: C_5  and  C_6
REMARK    6  A    between atoms: C_18  and  O_19
REMARK                            x       y       z     vdW  Elec       q    Type
REMARK                         _______ _______ _______ _____ _____    ______ ____
ROOT
ATOM      1  C   UNL     1       3.440   6.836  17.771  0.00  0.00    +0.000 C 
ENDROOT
BRANCH   1   2
ATOM      2  C   UNL     1       3.848   5.693  18.743  0.00  0.00    +0.000 C 
ATOM      3  O   UNL     1       4.626   5.952  19.673  0.00  0.00    +0.000 OA
ATOM      4  N   UNL     1       3.282   4.431  18.610  0.00  0.00    +0.000 N 
ATOM      5  C   UNL     1       3.623   3.390  19.582  0.00  0.00    +0.000 C 
ATOM      6  C   UNL     1       2.380   2.968  20.364  0.00  0.00    +0.000 C 
ATOM      7  C   UNL     1       1.219   2.584  19.444  0.00  0.00    +0.000 C 
ATOM      8  C   UNL     1       0.978   3.631  18.347  0.00  0.00    +0.000 C 
ATOM      9  C   UNL     1       2.265   4.033  17.642  0.00  0.00    +0.000 C 
BRANCH   7  10
ATOM     10  O   UNL     1       1.439   1.304  18.854  0.00  0.00    +0.000 OA
ATOM     11  H   UNL     1       1.287   0.610  19.516  0.00  0.00    +0.000 HD
ENDBRANCH   7  10
ENDBRANCH   1   2
BRANCH   1  14
ATOM     12  O   UNL     1       1.107   8.533  17.497  0.00  0.00    +0.000 OA
ATOM     13  C   UNL     1       1.836   8.637  18.475  0.00  0.00    +0.000 C 
ATOM     14  N   UNL     1       3.023   7.970  18.606  0.00  0.00    +0.000 N 
ATOM     15  H   UNL     1       3.605   8.148  19.418  0.00  0.00    +0.000 HD
BRANCH  13  16
ATOM     16  C   UNL     1       1.477   9.443  19.615  0.00  0.00    +0.000 A 
ATOM     17  C   UNL     1       0.993   9.042  20.847  0.00  0.00    +0.000 A 
ATOM     18  C   UNL     1       0.285  10.149  21.379  0.00  0.00    +0.000 A 
ATOM     19  C   UNL     1      -0.739  10.285  22.329  0.00  0.00    +0.000 A 
ATOM     20  C   UNL     1      -1.234  11.564  22.588  0.00  0.00    +0.000 A 
ATOM     21 CL   UNL     1      -2.683  11.734  23.505  0.00  0.00    +0.000 Cl
ATOM     22  C   UNL     1      -0.621  12.697  22.055  0.00  0.00    +0.000 A 
ATOM     23  C   UNL     1       0.394  12.578  21.100  0.00  0.00    +0.000 A 
ATOM     24  C   UNL     1       0.730  11.280  20.702  0.00  0.00    +0.000 A 
ATOM     25  N   UNL     1       1.388  10.818  19.583  0.00  0.00    +0.000 N 
ATOM     26  H   UNL     1       1.586  11.380  18.765  0.00  0.00    +0.000 HD
ENDBRANCH  13  16
ENDBRANCH   1  14
BRANCH   1  27
ATOM     27  C   UNL     1       4.458   7.194  16.683  0.00  0.00    +0.000 C 
BRANCH  27  28
ATOM     28  C   UNL     1       5.410   6.138  16.167  0.00  0.00    +0.000 A 
ATOM     29  C   UNL     1       4.930   5.208  15.219  0.00  0.00    +0.000 A 
ATOM     30  C   UNL     1       5.686   4.102  14.847  0.00  0.00    +0.000 A 
ATOM     31  C   UNL     1       6.933   3.891  15.422  0.00  0.00    +0.000 A 
ATOM     32  C   UNL     1       7.445   4.816  16.329  0.00  0.00    +0.000 A 
ATOM     33  C   UNL     1       6.699   5.939  16.692  0.00  0.00    +0.000 A 
ATOM     34 CL   UNL     1       7.398   7.011  17.847  0.00  0.00    +0.000 Cl
ENDBRANCH  27  28
ENDBRANCH   1  27
TORSDOF 6
ENDMDL
MODEL 7
REMARK VINA RESULT:      -8.2      1.269      1.699
REMARK  Name = 
REMARK  6 active torsions:
REMARK  status: ('A' for Active; 'I' for Inactive)
REMARK    1  A    between atoms: C_2  and  C_22
REMARK    2  A    between atoms: N_3  and  C_4
REMARK    3  A    between atoms: C_4  and  C_5
REMARK    4  A    between atoms: C_4  and  C_13
REMARK    5  A    between atoms: C_5  and  C_6
REMARK    6  A    between atoms: C_18  and  O_19
REMARK                            x       y       z     vdW  Elec       q    Type
REMARK                         _______ _______ _______ _____ _____    ______ ____
ROOT
ATOM      1  C   UNL     1       2.846   6.506  17.788  0.00  0.00    +0.000 C 
ENDROOT
BRANCH   1   2
ATOM      2  C   UNL     1       2.229   5.102  18.048  0.00  0.00    +0.000 C 
ATOM      3  O   UNL     1       1.336   4.695  17.290  0.00  0.00    +0.000 OA
ATOM      4  N   UNL     1       2.732   4.297  19.062  0.00  0.00    +0.000 N 
ATOM      5  C   UNL     1       2.187   2.949  19.241  0.00  0.00    +0.000 C 
ATOM      6  C   UNL     1       3.270   1.902  18.988  0.00  0.00    +0.000 C 
ATOM      7  C   UNL     1       4.532   2.162  19.814  0.00  0.00    +0.000 C 
ATOM      8  C   UNL     1       4.998   3.623  19.716  0.00  0.00    +0.000 C 
ATOM      9  C   UNL     1       3.858   4.606  19.938  0.00  0.00    +0.000 C 
BRANCH   7  10
ATOM     10  O   UNL     1       4.329   1.807  21.180  0.00  0.00    +0.000 OA
ATOM     11  H   UNL     1       4.849   1.015  21.392  0.00  0.00    +0.000 HD
ENDBRANCH   7  10
ENDBRANCH   1   2
BRANCH   1  14
ATOM     12  O   UNL     1       2.224   9.306  17.379  0.00  0.00    +0.000 OA
ATOM     13  C   UNL     1       1.803   8.717  18.365  0.00  0.00    +0.000 C 
ATOM     14  N   UNL     1       2.165   7.440  18.694  0.00  0.00    +0.000 N 
ATOM     15  H   UNL     1       1.822   7.033  19.558  0.00  0.00    +0.000 HD
BRANCH  13  16
ATOM     16  C   UNL     1       0.830   9.307  19.251  0.00  0.00    +0.000 A 
ATOM     17  C   UNL     1       0.100  10.470  19.092  0.00  0.00    +0.000 A 
ATOM     18  C   UNL     1      -0.254  10.902  20.395  0.00  0.00    +0.000 A 
ATOM     19  C   UNL     1      -0.602  12.145  20.948  0.00  0.00    +0.000 A 
ATOM     20  C   UNL     1      -0.861  12.207  22.319  0.00  0.00    +0.000 A 
ATOM     21 CL   UNL     1      -0.985  13.749  23.079  0.00  0.00    +0.000 Cl
ATOM     22  C   UNL     1      -0.945  11.051  23.092  0.00  0.00    +0.000 A 
ATOM     23  C   UNL     1      -0.591   9.807  22.559  0.00  0.00    +0.000 A 
ATOM     24  C   UNL     1      -0.134   9.801  21.237  0.00  0.00    +0.000 A 
ATOM     25  N   UNL     1       0.604   8.869  20.539  0.00  0.00    +0.000 N 
ATOM     26  H   UNL     1       1.084   8.087  20.964  0.00  0.00    +0.000 HD
ENDBRANCH  13  16
ENDBRANCH   1  14
BRANCH   1  27
ATOM     27  C   UNL     1       4.376   6.589  17.827  0.00  0.00    +0.000 C 
BRANCH  27  28
ATOM     28  C   UNL     1       5.195   5.887  16.768  0.00  0.00    +0.000 A 
ATOM     29  C   UNL     1       4.565   4.903  15.976  0.00  0.00    +0.000 A 
ATOM     30  C   UNL     1       5.297   4.087  15.119  0.00  0.00    +0.000 A 
ATOM     31  C   UNL     1       6.677   4.227  15.043  0.00  0.00    +0.000 A 
ATOM     32  C   UNL     1       7.317   5.218  15.785  0.00  0.00    +0.000 A 
ATOM     33  C   UNL     1       6.584   6.053  16.631  0.00  0.00    +0.000 A 
ATOM     34 CL   UNL     1       7.464   7.227  17.536  0.00  0.00    +0.000 Cl
ENDBRANCH  27  28
ENDBRANCH   1  27
TORSDOF 6
ENDMDL
MODEL 8
REMARK VINA RESULT:      -8.1      2.519      8.226
REMARK  Name = 
REMARK  6 active torsions:
REMARK  status: ('A' for Active; 'I' for Inactive)
REMARK    1  A    between atoms: C_2  and  C_22
REMARK    2  A    between atoms: N_3  and  C_4
REMARK    3  A    between atoms: C_4  and  C_5
REMARK    4  A    between atoms: C_4  and  C_13
REMARK    5  A    between atoms: C_5  and  C_6
REMARK    6  A    between atoms: C_18  and  O_19
REMARK                            x       y       z     vdW  Elec       q    Type
REMARK                         _______ _______ _______ _____ _____    ______ ____
ROOT
ATOM      1  C   UNL     1       2.842   6.477  18.535  0.00  0.00    +0.000 C 
ENDROOT
BRANCH   1   2
ATOM      2  C   UNL     1       1.869   5.265  18.498  0.00  0.00    +0.000 C 
ATOM      3  O   UNL     1       1.452   4.870  17.398  0.00  0.00    +0.000 OA
ATOM      4  N   UNL     1       1.545   4.594  19.671  0.00  0.00    +0.000 N 
ATOM      5  C   UNL     1       0.688   3.409  19.603  0.00  0.00    +0.000 C 
ATOM      6  C   UNL     1       1.453   2.174  20.074  0.00  0.00    +0.000 C 
ATOM      7  C   UNL     1       2.099   2.380  21.446  0.00  0.00    +0.000 C 
ATOM      8  C   UNL     1       2.876   3.702  21.529  0.00  0.00    +0.000 C 
ATOM      9  C   UNL     1       2.066   4.878  21.005  0.00  0.00    +0.000 C 
BRANCH   7  10
ATOM     10  O   UNL     1       1.121   2.325  22.482  0.00  0.00    +0.000 OA
ATOM     11  H   UNL     1       0.895   3.226  22.765  0.00  0.00    +0.000 HD
ENDBRANCH   7  10
ENDBRANCH   1   2
BRANCH   1  14
ATOM     12  O   UNL     1       5.181   4.832  19.002  0.00  0.00    +0.000 OA
ATOM     13  C   UNL     1       4.947   5.271  17.884  0.00  0.00    +0.000 C 
ATOM     14  N   UNL     1       3.944   6.162  17.618  0.00  0.00    +0.000 N 
ATOM     15  H   UNL     1       3.843   6.530  16.677  0.00  0.00    +0.000 HD
BRANCH  13  16
ATOM     16  C   UNL     1       5.686   4.841  16.723  0.00  0.00    +0.000 A 
ATOM     17  C   UNL     1       6.898   5.302  16.243  0.00  0.00    +0.000 A 
ATOM     18  C   UNL     1       6.920   5.002  14.858  0.00  0.00    +0.000 A 
ATOM     19  C   UNL     1       7.612   5.532  13.757  0.00  0.00    +0.000 A 
ATOM     20  C   UNL     1       7.351   4.998  12.494  0.00  0.00    +0.000 A 
ATOM     21 CL   UNL     1       7.940   5.818  11.098  0.00  0.00    +0.000 Cl
ATOM     22  C   UNL     1       6.562   3.859  12.340  0.00  0.00    +0.000 A 
ATOM     23  C   UNL     1       5.857   3.326  13.424  0.00  0.00    +0.000 A 
ATOM     24  C   UNL     1       5.972   4.007  14.640  0.00  0.00    +0.000 A 
ATOM     25  N   UNL     1       5.180   3.985  15.768  0.00  0.00    +0.000 N 
ATOM     26  H   UNL     1       4.258   3.570  15.810  0.00  0.00    +0.000 HD
ENDBRANCH  13  16
ENDBRANCH   1  14
BRANCH   1  27
ATOM     27  C   UNL     1       2.211   7.857  18.314  0.00  0.00    +0.000 C 
BRANCH  27  28
ATOM     28  C   UNL     1       1.516   8.558  19.460  0.00  0.00    +0.000 A 
ATOM     29  C   UNL     1       1.843   8.174  20.779  0.00  0.00    +0.000 A 
ATOM     30  C   UNL     1       1.111   8.637  21.867  0.00  0.00    +0.000 A 
ATOM     31  C   UNL     1       0.028   9.483  21.663  0.00  0.00    +0.000 A 
ATOM     32  C   UNL     1      -0.289   9.908  20.375  0.00  0.00    +0.000 A 
ATOM     33  C   UNL     1       0.455   9.463  19.280  0.00  0.00    +0.000 A 
ATOM     34 CL   UNL     1      -0.031  10.013  17.720  0.00  0.00    +0.000 Cl
ENDBRANCH  27  28
ENDBRANCH   1  27
TORSDOF 6
ENDMDL
MODEL 9
REMARK VINA RESULT:      -8.1      3.752      9.182
REMARK  Name = 
REMARK  6 active torsions:
REMARK  status: ('A' for Active; 'I' for Inactive)
REMARK    1  A    between atoms: C_2  and  C_22
REMARK    2  A    between atoms: N_3  and  C_4
REMARK    3  A    between atoms: C_4  and  C_5
REMARK    4  A    between atoms: C_4  and  C_13
REMARK    5  A    between atoms: C_5  and  C_6
REMARK    6  A    between atoms: C_18  and  O_19
REMARK                            x       y       z     vdW  Elec       q    Type
REMARK                         _______ _______ _______ _____ _____    ______ ____
ROOT
ATOM      1  C   UNL     1      -0.075  11.330  19.263  0.00  0.00    +0.000 C 
ENDROOT
BRANCH   1   2
ATOM      2  C   UNL     1       0.408  12.474  20.199  0.00  0.00    +0.000 C 
ATOM      3  O   UNL     1       0.148  12.401  21.409  0.00  0.00    +0.000 OA
ATOM      4  N   UNL     1       1.185  13.508  19.692  0.00  0.00    +0.000 N 
ATOM      5  C   UNL     1       1.693  14.534  20.605  0.00  0.00    +0.000 C 
ATOM      6  C   UNL     1       3.219  14.501  20.643  0.00  0.00    +0.000 C 
ATOM      7  C   UNL     1       3.836  14.573  19.244  0.00  0.00    +0.000 C 
ATOM      8  C   UNL     1       3.183  13.580  18.271  0.00  0.00    +0.000 C 
ATOM      9  C   UNL     1       1.664  13.641  18.319  0.00  0.00    +0.000 C 
BRANCH   7  10
ATOM     10  O   UNL     1       3.751  15.896  18.718  0.00  0.00    +0.000 OA
ATOM     11  H   UNL     1       3.861  16.540  19.437  0.00  0.00    +0.000 HD
ENDBRANCH   7  10
ENDBRANCH   1   2
BRANCH   1  14
ATOM     12  O   UNL     1       0.052   9.284  21.310  0.00  0.00    +0.000 OA
ATOM     13  C   UNL     1       0.796   9.234  20.341  0.00  0.00    +0.000 C 
ATOM     14  N   UNL     1       0.888  10.231  19.408  0.00  0.00    +0.000 N 
ATOM     15  H   UNL     1       1.570  10.149  18.660  0.00  0.00    +0.000 HD
BRANCH  13  16
ATOM     16  C   UNL     1       1.615   8.081  20.062  0.00  0.00    +0.000 A 
ATOM     17  C   UNL     1       2.278   7.745  18.896  0.00  0.00    +0.000 A 
ATOM     18  C   UNL     1       2.445   6.338  18.921  0.00  0.00    +0.000 A 
ATOM     19  C   UNL     1       2.640   5.362  17.930  0.00  0.00    +0.000 A 
ATOM     20  C   UNL     1       2.730   4.027  18.328  0.00  0.00    +0.000 A 
ATOM     21 CL   UNL     1       2.658   2.789  17.131  0.00  0.00    +0.000 Cl
ATOM     22  C   UNL     1       2.800   3.677  19.675  0.00  0.00    +0.000 A 
ATOM     23  C   UNL     1       2.596   4.635  20.674  0.00  0.00    +0.000 A 
ATOM     24  C   UNL     1       2.300   5.933  20.244  0.00  0.00    +0.000 A 
ATOM     25  N   UNL     1       1.716   6.993  20.903  0.00  0.00    +0.000 N 
ATOM     26  H   UNL     1       1.242   6.920  21.794  0.00  0.00    +0.000 HD
ENDBRANCH  13  16
ENDBRANCH   1  14
BRANCH   1  27
ATOM     27  C   UNL     1      -1.541  10.908  19.411  0.00  0.00    +0.000 C 
BRANCH  27  28
ATOM     28  C   UNL     1      -2.406  10.747  18.181  0.00  0.00    +0.000 A 
ATOM     29  C   UNL     1      -1.879  10.040  17.079  0.00  0.00    +0.000 A 
ATOM     30  C   UNL     1      -2.537  10.017  15.854  0.00  0.00    +0.000 A 
ATOM     31  C   UNL     1      -3.731  10.711  15.698  0.00  0.00    +0.000 A 
ATOM     32  C   UNL     1      -4.291  11.383  16.782  0.00  0.00    +0.000 A 
ATOM     33  C   UNL     1      -3.645  11.393  18.019  0.00  0.00    +0.000 A 
ATOM     34 CL   UNL     1      -4.394  12.279  19.294  0.00  0.00    +0.000 Cl
ENDBRANCH  27  28
ENDBRANCH   1  27
TORSDOF 6
ENDMDL
