MODEL 1
REMARK VINA RESULT:      -6.4      0.000      0.000
REMARK  Name = 
REMARK  8 active torsions:
REMARK  status: ('A' for Active; 'I' for Inactive)
REMARK    1  A    between atoms: C_1  and  C_2
REMARK    2  A    between atoms: C_2  and  O_3
REMARK    3  A    between atoms: O_3  and  C_4
REMARK    4  A    between atoms: C_4  and  C_6
REMARK    5  A    between atoms: C_15  and  S_16
REMARK    6  A    between atoms: S_16  and  C_17
REMARK    7  A    between atoms: C_17  and  C_18
REMARK    8  A    between atoms: C_18  and  C_19
REMARK                            x       y       z     vdW  Elec       q    Type
REMARK                         _______ _______ _______ _____ _____    ______ ____
ROOT
ATOM      1  C   UNL     1       4.579   5.898  17.063  0.00  0.00    +0.000 A 
ATOM      2  C   UNL     1       3.669   6.631  17.844  0.00  0.00    +0.000 A 
ATOM      3  N   UNL     1       2.668   6.015  18.509  0.00  0.00    +0.000 NA
ATOM      4  C   UNL     1       2.507   4.674  18.476  0.00  0.00    +0.000 A 
ATOM      5  C   UNL     1       1.431   4.112  19.173  0.00  0.00    +0.000 A 
ATOM      6  C   UNL     1       1.239   2.734  19.168  0.00  0.00    +0.000 A 
ATOM      7  C   UNL     1       2.122   1.910  18.469  0.00  0.00    +0.000 A 
ATOM      8  C   UNL     1       3.197   2.463  17.757  0.00  0.00    +0.000 A 
ATOM      9  C   UNL     1       3.407   3.859  17.740  0.00  0.00    +0.000 A 
ATOM     10  C   UNL     1       4.464   4.481  17.016  0.00  0.00    +0.000 A 
ENDROOT
BRANCH   1  11
ATOM     11  C   UNL     1       5.585   6.685  16.295  0.00  0.00    +0.000 C 
ATOM     12  O   UNL     1       5.239   7.281  15.286  0.00  0.00    +0.000 OA
BRANCH  11  13
ATOM     13  O   UNL     1       6.901   6.610  16.620  0.00  0.00    +0.000 OA
BRANCH  13  15
ATOM     14  C   UNL     1       7.868   8.478  17.709  0.00  0.00    +0.000 C 
ATOM     15  C   UNL     1       7.440   7.027  17.825  0.00  0.00    +0.000 C 
ENDBRANCH  13  15
ENDBRANCH  11  13
ENDBRANCH   1  11
BRANCH  10  16
ATOM     16  S   UNL     1       5.640   3.479  16.030  0.00  0.00    +0.000 S 
BRANCH  16  17
ATOM     17  C   UNL     1       5.164   4.083  14.358  0.00  0.00    +0.000 C 
BRANCH  17  18
ATOM     18  C   UNL     1       6.268   3.772  13.319  0.00  0.00    +0.000 C 
BRANCH  18  19
ATOM     19  C   UNL     1       7.362   4.828  13.370  0.00  0.00    +0.000 C 
ATOM     20  N   UNL     1       8.268   5.703  13.412  0.00  0.00    +0.000 NA
ENDBRANCH  18  19
ENDBRANCH  17  18
ENDBRANCH  16  17
ENDBRANCH  10  16
TORSDOF 7
ENDMDL
MODEL 2
REMARK VINA RESULT:      -6.4      2.091      3.698
REMARK  Name = 
REMARK  8 active torsions:
REMARK  status: ('A' for Active; 'I' for Inactive)
REMARK    1  A    between atoms: C_1  and  C_2
REMARK    2  A    between atoms: C_2  and  O_3
REMARK    3  A    between atoms: O_3  and  C_4
REMARK    4  A    between atoms: C_4  and  C_6
REMARK    5  A    between atoms: C_15  and  S_16
REMARK    6  A    between atoms: S_16  and  C_17
REMARK    7  A    between atoms: C_17  and  C_18
REMARK    8  A    between atoms: C_18  and  C_19
REMARK                            x       y       z     vdW  Elec       q    Type
REMARK                         _______ _______ _______ _____ _____    ______ ____
ROOT
ATOM      1  C   UNL     1       4.063   4.338  17.013  0.00  0.00    +0.000 A 
ATOM      2  C   UNL     1       3.192   3.340  16.543  0.00  0.00    +0.000 A 
ATOM      3  N   UNL     1       2.296   2.754  17.366  0.00  0.00    +0.000 NA
ATOM      4  C   UNL     1       2.178   3.109  18.664  0.00  0.00    +0.000 A 
ATOM      5  C   UNL     1       1.241   2.439  19.458  0.00  0.00    +0.000 A 
ATOM      6  C   UNL     1       1.086   2.784  20.797  0.00  0.00    +0.000 A 
ATOM      7  C   UNL     1       1.863   3.804  21.348  0.00  0.00    +0.000 A 
ATOM      8  C   UNL     1       2.813   4.476  20.564  0.00  0.00    +0.000 A 
ATOM      9  C   UNL     1       2.994   4.136  19.206  0.00  0.00    +0.000 A 
ATOM     10  C   UNL     1       3.960   4.764  18.366  0.00  0.00    +0.000 A 
ENDROOT
BRANCH   1  11
ATOM     11  C   UNL     1       5.075   4.851  16.046  0.00  0.00    +0.000 C 
ATOM     12  O   UNL     1       4.975   5.992  15.620  0.00  0.00    +0.000 OA
BRANCH  11  13
ATOM     13  O   UNL     1       6.004   4.011  15.523  0.00  0.00    +0.000 OA
BRANCH  13  15
ATOM     14  C   UNL     1       5.998   3.658  13.181  0.00  0.00    +0.000 C 
ATOM     15  C   UNL     1       6.728   4.255  14.369  0.00  0.00    +0.000 C 
ENDBRANCH  13  15
ENDBRANCH  11  13
ENDBRANCH   1  11
BRANCH  10  16
ATOM     16  S   UNL     1       5.057   6.078  19.020  0.00  0.00    +0.000 S 
BRANCH  16  17
ATOM     17  C   UNL     1       6.568   5.058  19.273  0.00  0.00    +0.000 C 
BRANCH  17  18
ATOM     18  C   UNL     1       7.848   5.910  19.104  0.00  0.00    +0.000 C 
BRANCH  18  19
ATOM     19  C   UNL     1       7.673   6.925  17.985  0.00  0.00    +0.000 C 
ATOM     20  N   UNL     1       7.527   7.765  17.056  0.00  0.00    +0.000 NA
ENDBRANCH  18  19
ENDBRANCH  17  18
ENDBRANCH  16  17
ENDBRANCH  10  16
TORSDOF 7
ENDMDL
MODEL 3
REMARK VINA RESULT:      -6.4      1.994      2.332
REMARK  Name = 
REMARK  8 active torsions:
REMARK  status: ('A' for Active; 'I' for Inactive)
REMARK    1  A    between atoms: C_1  and  C_2
REMARK    2  A    between atoms: C_2  and  O_3
REMARK    3  A    between atoms: O_3  and  C_4
REMARK    4  A    between atoms: C_4  and  C_6
REMARK    5  A    between atoms: C_15  and  S_16
REMARK    6  A    between atoms: S_16  and  C_17
REMARK    7  A    between atoms: C_17  and  C_18
REMARK    8  A    between atoms: C_18  and  C_19
REMARK                            x       y       z     vdW  Elec       q    Type
REMARK                         _______ _______ _______ _____ _____    ______ ____
ROOT
ATOM      1  C   UNL     1       6.362   5.695  17.865  0.00  0.00    +0.000 A 
ATOM      2  C   UNL     1       6.452   5.408  19.238  0.00  0.00    +0.000 A 
ATOM      3  N   UNL     1       5.602   4.540  19.827  0.00  0.00    +0.000 NA
ATOM      4  C   UNL     1       4.645   3.892  19.127  0.00  0.00    +0.000 A 
ATOM      5  C   UNL     1       3.787   3.025  19.813  0.00  0.00    +0.000 A 
ATOM      6  C   UNL     1       2.795   2.333  19.124  0.00  0.00    +0.000 A 
ATOM      7  C   UNL     1       2.658   2.503  17.745  0.00  0.00    +0.000 A 
ATOM      8  C   UNL     1       3.505   3.378  17.049  0.00  0.00    +0.000 A 
ATOM      9  C   UNL     1       4.512   4.097  17.729  0.00  0.00    +0.000 A 
ATOM     10  C   UNL     1       5.385   5.019  17.082  0.00  0.00    +0.000 A 
ENDROOT
BRANCH   1  11
ATOM     11  C   UNL     1       7.286   6.738  17.338  0.00  0.00    +0.000 C 
ATOM     12  O   UNL     1       7.789   6.592  16.233  0.00  0.00    +0.000 OA
BRANCH  11  13
ATOM     13  O   UNL     1       7.691   7.757  18.138  0.00  0.00    +0.000 OA
BRANCH  13  15
ATOM     14  C   UNL     1       8.926   9.702  18.688  0.00  0.00    +0.000 C 
ATOM     15  C   UNL     1       7.992   9.034  17.697  0.00  0.00    +0.000 C 
ENDBRANCH  13  15
ENDBRANCH  11  13
ENDBRANCH   1  11
BRANCH  10  16
ATOM     16  S   UNL     1       5.242   5.340  15.284  0.00  0.00    +0.000 S 
BRANCH  16  17
ATOM     17  C   UNL     1       6.114   3.837  14.677  0.00  0.00    +0.000 C 
BRANCH  17  18
ATOM     18  C   UNL     1       6.523   3.992  13.193  0.00  0.00    +0.000 C 
BRANCH  18  19
ATOM     19  C   UNL     1       5.419   3.489  12.277  0.00  0.00    +0.000 C 
ATOM     20  N   UNL     1       4.503   3.071  11.519  0.00  0.00    +0.000 NA
ENDBRANCH  18  19
ENDBRANCH  17  18
ENDBRANCH  16  17
ENDBRANCH  10  16
TORSDOF 7
ENDMDL
MODEL 4
REMARK VINA RESULT:      -6.4      2.408      4.288
REMARK  Name = 
REMARK  8 active torsions:
REMARK  status: ('A' for Active; 'I' for Inactive)
REMARK    1  A    between atoms: C_1  and  C_2
REMARK    2  A    between atoms: C_2  and  O_3
REMARK    3  A    between atoms: O_3  and  C_4
REMARK    4  A    between atoms: C_4  and  C_6
REMARK    5  A    between atoms: C_15  and  S_16
REMARK    6  A    between atoms: S_16  and  C_17
REMARK    7  A    between atoms: C_17  and  C_18
REMARK    8  A    between atoms: C_18  and  C_19
REMARK                            x       y       z     vdW  Elec       q    Type
REMARK                         _______ _______ _______ _____ _____    ______ ____
ROOT
ATOM      1  C   UNL     1       4.800   4.186  16.526  0.00  0.00    +0.000 A 
ATOM      2  C   UNL     1       4.294   3.031  17.147  0.00  0.00    +0.000 A 
ATOM      3  N   UNL     1       3.477   3.118  18.218  0.00  0.00    +0.000 NA
ATOM      4  C   UNL     1       3.091   4.307  18.729  0.00  0.00    +0.000 A 
ATOM      5  C   UNL     1       2.261   4.314  19.855  0.00  0.00    +0.000 A 
ATOM      6  C   UNL     1       1.835   5.521  20.402  0.00  0.00    +0.000 A 
ATOM      7  C   UNL     1       2.235   6.727  19.825  0.00  0.00    +0.000 A 
ATOM      8  C   UNL     1       3.076   6.732  18.702  0.00  0.00    +0.000 A 
ATOM      9  C   UNL     1       3.527   5.521  18.135  0.00  0.00    +0.000 A 
ATOM     10  C   UNL     1       4.402   5.462  17.012  0.00  0.00    +0.000 A 
ENDROOT
BRANCH   1  11
ATOM     11  C   UNL     1       5.768   3.976  15.412  0.00  0.00    +0.000 C 
ATOM     12  O   UNL     1       6.951   3.803  15.668  0.00  0.00    +0.000 OA
BRANCH  11  13
ATOM     13  O   UNL     1       5.370   4.135  14.124  0.00  0.00    +0.000 OA
BRANCH  13  15
ATOM     14  C   UNL     1       5.004   3.293  11.941  0.00  0.00    +0.000 C 
ATOM     15  C   UNL     1       6.019   3.598  13.026  0.00  0.00    +0.000 C 
ENDBRANCH  13  15
ENDBRANCH  11  13
ENDBRANCH   1  11
BRANCH  10  16
ATOM     16  S   UNL     1       5.016   6.998  16.222  0.00  0.00    +0.000 S 
BRANCH  16  17
ATOM     17  C   UNL     1       6.239   7.484  17.508  0.00  0.00    +0.000 C 
BRANCH  17  18
ATOM     18  C   UNL     1       7.428   6.494  17.548  0.00  0.00    +0.000 C 
BRANCH  18  19
ATOM     19  C   UNL     1       7.555   5.866  18.927  0.00  0.00    +0.000 C 
ATOM     20  N   UNL     1       7.660   5.346  20.071  0.00  0.00    +0.000 NA
ENDBRANCH  18  19
ENDBRANCH  17  18
ENDBRANCH  16  17
ENDBRANCH  10  16
TORSDOF 7
ENDMDL
MODEL 5
REMARK VINA RESULT:      -6.3      2.271      4.108
REMARK  Name = 
REMARK  8 active torsions:
REMARK  status: ('A' for Active; 'I' for Inactive)
REMARK    1  A    between atoms: C_1  and  C_2
REMARK    2  A    between atoms: C_2  and  O_3
REMARK    3  A    between atoms: O_3  and  C_4
REMARK    4  A    between atoms: C_4  and  C_6
REMARK    5  A    between atoms: C_15  and  S_16
REMARK    6  A    between atoms: S_16  and  C_17
REMARK    7  A    between atoms: C_17  and  C_18
REMARK    8  A    between atoms: C_18  and  C_19
REMARK                            x       y       z     vdW  Elec       q    Type
REMARK                         _______ _______ _______ _____ _____    ______ ____
ROOT
ATOM      1  C   UNL     1       4.614   3.918  16.811  0.00  0.00    +0.000 A 
ATOM      2  C   UNL     1       4.076   2.655  17.112  0.00  0.00    +0.000 A 
ATOM      3  N   UNL     1       3.176   2.500  18.107  0.00  0.00    +0.000 NA
ATOM      4  C   UNL     1       2.736   3.545  18.842  0.00  0.00    +0.000 A 
ATOM      5  C   UNL     1       1.821   3.300  19.872  0.00  0.00    +0.000 A 
ATOM      6  C   UNL     1       1.339   4.354  20.643  0.00  0.00    +0.000 A 
ATOM      7  C   UNL     1       1.768   5.657  20.388  0.00  0.00    +0.000 A 
ATOM      8  C   UNL     1       2.694   5.913  19.365  0.00  0.00    +0.000 A 
ATOM      9  C   UNL     1       3.203   4.859  18.576  0.00  0.00    +0.000 A 
ATOM     10  C   UNL     1       4.164   5.052  17.542  0.00  0.00    +0.000 A 
ENDROOT
BRANCH   1  11
ATOM     11  C   UNL     1       5.669   3.961  15.759  0.00  0.00    +0.000 C 
ATOM     12  O   UNL     1       6.846   3.929  16.086  0.00  0.00    +0.000 OA
BRANCH  11  13
ATOM     13  O   UNL     1       5.331   4.195  14.465  0.00  0.00    +0.000 OA
BRANCH  13  15
ATOM     14  C   UNL     1       5.728   3.197  12.355  0.00  0.00    +0.000 C 
ATOM     15  C   UNL     1       6.218   4.177  13.403  0.00  0.00    +0.000 C 
ENDBRANCH  13  15
ENDBRANCH  11  13
ENDBRANCH   1  11
BRANCH  10  16
ATOM     16  S   UNL     1       4.818   6.723  17.172  0.00  0.00    +0.000 S 
BRANCH  16  17
ATOM     17  C   UNL     1       6.356   6.632  18.178  0.00  0.00    +0.000 C 
BRANCH  17  18
ATOM     18  C   UNL     1       7.584   7.104  17.361  0.00  0.00    +0.000 C 
BRANCH  18  19
ATOM     19  C   UNL     1       8.042   8.476  17.829  0.00  0.00    +0.000 C 
ATOM     20  N   UNL     1       8.421   9.614  18.216  0.00  0.00    +0.000 NA
ENDBRANCH  18  19
ENDBRANCH  17  18
ENDBRANCH  16  17
ENDBRANCH  10  16
TORSDOF 7
ENDMDL
MODEL 6
REMARK VINA RESULT:      -6.3      2.533      4.595
REMARK  Name = 
REMARK  8 active torsions:
REMARK  status: ('A' for Active; 'I' for Inactive)
REMARK    1  A    between atoms: C_1  and  C_2
REMARK    2  A    between atoms: C_2  and  O_3
REMARK    3  A    between atoms: O_3  and  C_4
REMARK    4  A    between atoms: C_4  and  C_6
REMARK    5  A    between atoms: C_15  and  S_16
REMARK    6  A    between atoms: S_16  and  C_17
REMARK    7  A    between atoms: C_17  and  C_18
REMARK    8  A    between atoms: C_18  and  C_19
REMARK                            x       y       z     vdW  Elec       q    Type
REMARK                         _______ _______ _______ _____ _____    ______ ____
ROOT
ATOM      1  C   UNL     1       4.249   5.491  17.204  0.00  0.00    +0.000 A 
ATOM      2  C   UNL     1       4.446   4.232  16.612  0.00  0.00    +0.000 A 
ATOM      3  N   UNL     1       3.754   3.150  17.027  0.00  0.00    +0.000 NA
ATOM      4  C   UNL     1       2.830   3.227  18.010  0.00  0.00    +0.000 A 
ATOM      5  C   UNL     1       2.170   2.056  18.400  0.00  0.00    +0.000 A 
ATOM      6  C   UNL     1       1.206   2.099  19.403  0.00  0.00    +0.000 A 
ATOM      7  C   UNL     1       0.894   3.313  20.018  0.00  0.00    +0.000 A 
ATOM      8  C   UNL     1       1.556   4.491  19.641  0.00  0.00    +0.000 A 
ATOM      9  C   UNL     1       2.544   4.470  18.633  0.00  0.00    +0.000 A 
ATOM     10  C   UNL     1       3.269   5.627  18.226  0.00  0.00    +0.000 A 
ENDROOT
BRANCH   1  11
ATOM     11  C   UNL     1       5.132   6.596  16.735  0.00  0.00    +0.000 C 
ATOM     12  O   UNL     1       5.134   6.903  15.552  0.00  0.00    +0.000 OA
BRANCH  11  13
ATOM     13  O   UNL     1       6.041   7.148  17.580  0.00  0.00    +0.000 OA
BRANCH  13  15
ATOM     14  C   UNL     1       8.030   8.416  17.787  0.00  0.00    +0.000 C 
ATOM     15  C   UNL     1       7.413   7.081  17.415  0.00  0.00    +0.000 C 
ENDBRANCH  13  15
ENDBRANCH  11  13
ENDBRANCH   1  11
BRANCH  10  16
ATOM     16  S   UNL     1       2.958   7.252  19.015  0.00  0.00    +0.000 S 
BRANCH  16  17
ATOM     17  C   UNL     1       1.987   8.023  17.655  0.00  0.00    +0.000 C 
BRANCH  17  18
ATOM     18  C   UNL     1       1.874   9.554  17.852  0.00  0.00    +0.000 C 
BRANCH  18  19
ATOM     19  C   UNL     1       0.622   9.901  18.643  0.00  0.00    +0.000 C 
ATOM     20  N   UNL     1      -0.416  10.187  19.298  0.00  0.00    +0.000 NA
ENDBRANCH  18  19
ENDBRANCH  17  18
ENDBRANCH  16  17
ENDBRANCH  10  16
TORSDOF 7
ENDMDL
MODEL 7
REMARK VINA RESULT:      -6.3      2.780      4.971
REMARK  Name = 
REMARK  8 active torsions:
REMARK  status: ('A' for Active; 'I' for Inactive)
REMARK    1  A    between atoms: C_1  and  C_2
REMARK    2  A    between atoms: C_2  and  O_3
REMARK    3  A    between atoms: O_3  and  C_4
REMARK    4  A    between atoms: C_4  and  C_6
REMARK    5  A    between atoms: C_15  and  S_16
REMARK    6  A    between atoms: S_16  and  C_17
REMARK    7  A    between atoms: C_17  and  C_18
REMARK    8  A    between atoms: C_18  and  C_19
REMARK                            x       y       z     vdW  Elec       q    Type
REMARK                         _______ _______ _______ _____ _____    ______ ____
ROOT
ATOM      1  C   UNL     1       3.553   5.064  19.181  0.00  0.00    +0.000 A 
ATOM      2  C   UNL     1       2.740   5.184  20.321  0.00  0.00    +0.000 A 
ATOM      3  N   UNL     1       2.020   6.303  20.550  0.00  0.00    +0.000 NA
ATOM      4  C   UNL     1       2.027   7.345  19.691  0.00  0.00    +0.000 A 
ATOM      5  C   UNL     1       1.272   8.479  20.010  0.00  0.00    +0.000 A 
ATOM      6  C   UNL     1       1.248   9.569  19.144  0.00  0.00    +0.000 A 
ATOM      7  C   UNL     1       1.976   9.529  17.954  0.00  0.00    +0.000 A 
ATOM      8  C   UNL     1       2.745   8.401  17.629  0.00  0.00    +0.000 A 
ATOM      9  C   UNL     1       2.792   7.288  18.496  0.00  0.00    +0.000 A 
ATOM     10  C   UNL     1       3.574   6.126  18.234  0.00  0.00    +0.000 A 
ENDROOT
BRANCH   1  11
ATOM     11  C   UNL     1       4.378   3.828  19.074  0.00  0.00    +0.000 C 
ATOM     12  O   UNL     1       5.488   3.801  19.585  0.00  0.00    +0.000 OA
BRANCH  11  13
ATOM     13  O   UNL     1       3.970   2.802  18.284  0.00  0.00    +0.000 OA
BRANCH  13  15
ATOM     14  C   UNL     1       1.706   2.128  18.465  0.00  0.00    +0.000 C 
ATOM     15  C   UNL     1       3.159   1.761  18.701  0.00  0.00    +0.000 C 
ENDBRANCH  13  15
ENDBRANCH  11  13
ENDBRANCH   1  11
BRANCH  10  16
ATOM     16  S   UNL     1       4.599   6.010  16.720  0.00  0.00    +0.000 S 
BRANCH  16  17
ATOM     17  C   UNL     1       5.909   7.212  17.195  0.00  0.00    +0.000 C 
BRANCH  17  18
ATOM     18  C   UNL     1       6.992   6.537  18.071  0.00  0.00    +0.000 C 
BRANCH  18  19
ATOM     19  C   UNL     1       7.503   5.268  17.407  0.00  0.00    +0.000 C 
ATOM     20  N   UNL     1       7.925   4.216  16.856  0.00  0.00    +0.000 NA
ENDBRANCH  18  19
ENDBRANCH  17  18
ENDBRANCH  16  17
ENDBRANCH  10  16
TORSDOF 7
ENDMDL
MODEL 8
REMARK VINA RESULT:      -6.2      1.726      2.007
REMARK  Name = 
REMARK  8 active torsions:
REMARK  status: ('A' for Active; 'I' for Inactive)
REMARK    1  A    between atoms: C_1  and  C_2
REMARK    2  A    between atoms: C_2  and  O_3
REMARK    3  A    between atoms: O_3  and  C_4
REMARK    4  A    between atoms: C_4  and  C_6
REMARK    5  A    between atoms: C_15  and  S_16
REMARK    6  A    between atoms: S_16  and  C_17
REMARK    7  A    between atoms: C_17  and  C_18
REMARK    8  A    between atoms: C_18  and  C_19
REMARK                            x       y       z     vdW  Elec       q    Type
REMARK                         _______ _______ _______ _____ _____    ______ ____
ROOT
ATOM      1  C   UNL     1       6.002   4.828  18.123  0.00  0.00    +0.000 A 
ATOM      2  C   UNL     1       5.712   5.358  19.392  0.00  0.00    +0.000 A 
ATOM      3  N   UNL     1       4.482   5.230  19.936  0.00  0.00    +0.000 NA
ATOM      4  C   UNL     1       3.485   4.574  19.303  0.00  0.00    +0.000 A 
ATOM      5  C   UNL     1       2.232   4.504  19.922  0.00  0.00    +0.000 A 
ATOM      6  C   UNL     1       1.184   3.828  19.303  0.00  0.00    +0.000 A 
ATOM      7  C   UNL     1       1.384   3.217  18.065  0.00  0.00    +0.000 A 
ATOM      8  C   UNL     1       2.634   3.289  17.431  0.00  0.00    +0.000 A 
ATOM      9  C   UNL     1       3.709   3.977  18.034  0.00  0.00    +0.000 A 
ATOM     10  C   UNL     1       4.991   4.107  17.428  0.00  0.00    +0.000 A 
ENDROOT
BRANCH   1  11
ATOM     11  C   UNL     1       7.360   5.108  17.577  0.00  0.00    +0.000 C 
ATOM     12  O   UNL     1       8.173   4.199  17.493  0.00  0.00    +0.000 OA
BRANCH  11  13
ATOM     13  O   UNL     1       7.743   6.385  17.325  0.00  0.00    +0.000 OA
BRANCH  13  15
ATOM     14  C   UNL     1       8.007   8.705  17.725  0.00  0.00    +0.000 C 
ATOM     15  C   UNL     1       8.114   7.302  18.293  0.00  0.00    +0.000 C 
ENDBRANCH  13  15
ENDBRANCH  11  13
ENDBRANCH   1  11
BRANCH  10  16
ATOM     16  S   UNL     1       5.327   3.378  15.781  0.00  0.00    +0.000 S 
BRANCH  16  17
ATOM     17  C   UNL     1       5.658   4.939  14.864  0.00  0.00    +0.000 C 
BRANCH  17  18
ATOM     18  C   UNL     1       6.758   4.733  13.795  0.00  0.00    +0.000 C 
BRANCH  18  19
ATOM     19  C   UNL     1       6.321   3.700  12.769  0.00  0.00    +0.000 C 
ATOM     20  N   UNL     1       5.960   2.843  11.918  0.00  0.00    +0.000 NA
ENDBRANCH  18  19
ENDBRANCH  17  18
ENDBRANCH  16  17
ENDBRANCH  10  16
TORSDOF 7
ENDMDL
MODEL 9
REMARK VINA RESULT:      -6.2      2.986      5.135
REMARK  Name = 
REMARK  8 active torsions:
REMARK  status: ('A' for Active; 'I' for Inactive)
REMARK    1  A    between atoms: C_1  and  C_2
REMARK    2  A    between atoms: C_2  and  O_3
REMARK    3  A    between atoms: O_3  and  C_4
REMARK    4  A    between atoms: C_4  and  C_6
REMARK    5  A    between atoms: C_15  and  S_16
REMARK    6  A    between atoms: S_16  and  C_17
REMARK    7  A    between atoms: C_17  and  C_18
REMARK    8  A    between atoms: C_18  and  C_19
REMARK                            x       y       z     vdW  Elec       q    Type
REMARK                         _______ _______ _______ _____ _____    ______ ____
ROOT
ATOM      1  C   UNL     1       3.273   4.653  19.448  0.00  0.00    +0.000 A 
ATOM      2  C   UNL     1       2.424   4.896  20.541  0.00  0.00    +0.000 A 
ATOM      3  N   UNL     1       1.821   6.093  20.703  0.00  0.00    +0.000 NA
ATOM      4  C   UNL     1       1.985   7.102  19.820  0.00  0.00    +0.000 A 
ATOM      5  C   UNL     1       1.346   8.321  20.070  0.00  0.00    +0.000 A 
ATOM      6  C   UNL     1       1.484   9.379  19.176  0.00  0.00    +0.000 A 
ATOM      7  C   UNL     1       2.261   9.223  18.027  0.00  0.00    +0.000 A 
ATOM      8  C   UNL     1       2.916   8.008  17.772  0.00  0.00    +0.000 A 
ATOM      9  C   UNL     1       2.797   6.924  18.668  0.00  0.00    +0.000 A 
ATOM     10  C   UNL     1       3.458   5.677  18.477  0.00  0.00    +0.000 A 
ENDROOT
BRANCH   1  11
ATOM     11  C   UNL     1       3.961   3.332  19.416  0.00  0.00    +0.000 C 
ATOM     12  O   UNL     1       5.110   3.242  19.825  0.00  0.00    +0.000 OA
BRANCH  11  13
ATOM     13  O   UNL     1       3.379   2.275  18.794  0.00  0.00    +0.000 OA
BRANCH  13  15
ATOM     14  C   UNL     1       1.017   2.165  18.666  0.00  0.00    +0.000 C 
ATOM     15  C   UNL     1       2.317   2.368  17.911  0.00  0.00    +0.000 C 
ENDBRANCH  13  15
ENDBRANCH  11  13
ENDBRANCH   1  11
BRANCH  10  16
ATOM     16  S   UNL     1       4.537   5.402  17.022  0.00  0.00    +0.000 S 
BRANCH  16  17
ATOM     17  C   UNL     1       6.152   5.785  17.815  0.00  0.00    +0.000 C 
BRANCH  17  18
ATOM     18  C   UNL     1       7.097   6.512  16.829  0.00  0.00    +0.000 C 
BRANCH  18  19
ATOM     19  C   UNL     1       7.660   7.776  17.460  0.00  0.00    +0.000 C 
ATOM     20  N   UNL     1       8.126   8.824  17.985  0.00  0.00    +0.000 NA
ENDBRANCH  18  19
ENDBRANCH  17  18
ENDBRANCH  16  17
ENDBRANCH  10  16
TORSDOF 7
ENDMDL
