MODEL 1
REMARK VINA RESULT:      -7.4      0.000      0.000
REMARK  Name = 
REMARK  7 active torsions:
REMARK  status: ('A' for Active; 'I' for Inactive)
REMARK    1  A    between atoms: C_1  and  C_2
REMARK    2  A    between atoms: C_4  and  O_5
REMARK    3  A    between atoms: C_6  and  C_7
REMARK    4  A    between atoms: C_7  and  O_9
REMARK    5  A    between atoms: C_10  and  C_11
REMARK    6  A    between atoms: C_12  and  C_13
REMARK    7  A    between atoms: C_17  and  O_18
REMARK                            x       y       z     vdW  Elec       q    Type
REMARK                         _______ _______ _______ _____ _____    ______ ____
ROOT
ATOM      1  C   UNL     1       4.711   3.217  11.892  0.00  0.00    +0.000 C 
ATOM      2  C   UNL     1       5.455   3.827  13.043  0.00  0.00    +0.000 A 
ATOM      3  C   UNL     1       6.690   4.420  12.855  0.00  0.00    +0.000 A 
ATOM      4  C   UNL     1       7.316   4.999  13.956  0.00  0.00    +0.000 A 
ATOM      5  C   UNL     1       6.715   4.997  15.227  0.00  0.00    +0.000 A 
ATOM      6  C   UNL     1       5.466   4.372  15.322  0.00  0.00    +0.000 A 
ATOM      7  N   UNL     1       4.850   3.792  14.250  0.00  0.00    +0.000 NA
ENDROOT
BRANCH   4   8
ATOM      8  O   UNL     1       8.539   5.602  13.763  0.00  0.00    +0.000 OA
ATOM      9  H   UNL     1       8.873   5.375  12.873  0.00  0.00    +0.000 HD
ENDBRANCH   4   8
BRANCH   5  10
ATOM     10  C   UNL     1       7.344   5.656  16.414  0.00  0.00    +0.000 C 
ATOM     11  O   UNL     1       7.485   6.860  16.539  0.00  0.00    +0.000 OA
BRANCH  10  12
ATOM     12  O   UNL     1       7.777   4.812  17.381  0.00  0.00    +0.000 OA
ATOM     13  H   UNL     1       8.726   4.928  17.599  0.00  0.00    +0.000 HD
ENDBRANCH  10  12
ENDBRANCH   5  10
BRANCH   6  14
ATOM     14  C   UNL     1       4.614   4.351  16.516  0.00  0.00    +0.000 C 
ATOM     15  C   UNL     1       3.680   3.424  16.781  0.00  0.00    +0.000 C 
BRANCH  15  16
ATOM     16  C   UNL     1       2.860   3.552  17.990  0.00  0.00    +0.000 A 
ATOM     17  C   UNL     1       1.805   2.657  18.217  0.00  0.00    +0.000 A 
ATOM     18  C   UNL     1       0.953   2.832  19.313  0.00  0.00    +0.000 A 
ATOM     19  C   UNL     1       1.148   3.900  20.187  0.00  0.00    +0.000 A 
ATOM     20  C   UNL     1       2.205   4.780  19.965  0.00  0.00    +0.000 A 
ATOM     21  C   UNL     1       3.063   4.611  18.881  0.00  0.00    +0.000 A 
BRANCH  20  22
ATOM     22  O   UNL     1       2.419   5.844  20.791  0.00  0.00    +0.000 OA
ATOM     23  H   UNL     1       3.187   5.652  21.353  0.00  0.00    +0.000 HD
ENDBRANCH  20  22
ENDBRANCH  15  16
ENDBRANCH   6  14
TORSDOF 6
ENDMDL
MODEL 2
REMARK VINA RESULT:      -7.3      1.106      1.169
REMARK  Name = 
REMARK  7 active torsions:
REMARK  status: ('A' for Active; 'I' for Inactive)
REMARK    1  A    between atoms: C_1  and  C_2
REMARK    2  A    between atoms: C_4  and  O_5
REMARK    3  A    between atoms: C_6  and  C_7
REMARK    4  A    between atoms: C_7  and  O_9
REMARK    5  A    between atoms: C_10  and  C_11
REMARK    6  A    between atoms: C_12  and  C_13
REMARK    7  A    between atoms: C_17  and  O_18
REMARK                            x       y       z     vdW  Elec       q    Type
REMARK                         _______ _______ _______ _____ _____    ______ ____
ROOT
ATOM      1  C   UNL     1       4.914   3.113  11.888  0.00  0.00    +0.000 C 
ATOM      2  C   UNL     1       5.564   3.777  13.065  0.00  0.00    +0.000 A 
ATOM      3  C   UNL     1       6.771   4.437  12.929  0.00  0.00    +0.000 A 
ATOM      4  C   UNL     1       7.307   5.065  14.051  0.00  0.00    +0.000 A 
ATOM      5  C   UNL     1       6.645   5.044  15.290  0.00  0.00    +0.000 A 
ATOM      6  C   UNL     1       5.429   4.349  15.334  0.00  0.00    +0.000 A 
ATOM      7  N   UNL     1       4.902   3.723  14.240  0.00  0.00    +0.000 NA
ENDROOT
BRANCH   4   8
ATOM      8  O   UNL     1       8.503   5.733  13.910  0.00  0.00    +0.000 OA
ATOM      9  H   UNL     1       9.165   5.131  13.517  0.00  0.00    +0.000 HD
ENDBRANCH   4   8
BRANCH   5  10
ATOM     10  C   UNL     1       7.175   5.751  16.498  0.00  0.00    +0.000 C 
ATOM     11  O   UNL     1       7.123   6.957  16.667  0.00  0.00    +0.000 OA
BRANCH  10  12
ATOM     12  O   UNL     1       7.751   4.954  17.428  0.00  0.00    +0.000 OA
ATOM     13  H   UNL     1       7.604   5.263  18.348  0.00  0.00    +0.000 HD
ENDBRANCH  10  12
ENDBRANCH   5  10
BRANCH   6  14
ATOM     14  C   UNL     1       4.521   4.295  16.484  0.00  0.00    +0.000 C 
ATOM     15  C   UNL     1       4.297   3.208  17.239  0.00  0.00    +0.000 C 
BRANCH  15  16
ATOM     16  C   UNL     1       3.321   3.277  18.331  0.00  0.00    +0.000 A 
ATOM     17  C   UNL     1       2.113   3.963  18.147  0.00  0.00    +0.000 A 
ATOM     18  C   UNL     1       1.221   4.123  19.214  0.00  0.00    +0.000 A 
ATOM     19  C   UNL     1       1.530   3.600  20.468  0.00  0.00    +0.000 A 
ATOM     20  C   UNL     1       2.726   2.908  20.644  0.00  0.00    +0.000 A 
ATOM     21  C   UNL     1       3.618   2.737  19.587  0.00  0.00    +0.000 A 
BRANCH  20  22
ATOM     22  O   UNL     1       3.068   2.393  21.859  0.00  0.00    +0.000 OA
ATOM     23  H   UNL     1       2.448   1.680  22.082  0.00  0.00    +0.000 HD
ENDBRANCH  20  22
ENDBRANCH  15  16
ENDBRANCH   6  14
TORSDOF 6
ENDMDL
MODEL 3
REMARK VINA RESULT:      -7.3      2.319      6.969
REMARK  Name = 
REMARK  7 active torsions:
REMARK  status: ('A' for Active; 'I' for Inactive)
REMARK    1  A    between atoms: C_1  and  C_2
REMARK    2  A    between atoms: C_4  and  O_5
REMARK    3  A    between atoms: C_6  and  C_7
REMARK    4  A    between atoms: C_7  and  O_9
REMARK    5  A    between atoms: C_10  and  C_11
REMARK    6  A    between atoms: C_12  and  C_13
REMARK    7  A    between atoms: C_17  and  O_18
REMARK                            x       y       z     vdW  Elec       q    Type
REMARK                         _______ _______ _______ _____ _____    ______ ____
ROOT
ATOM      1  C   UNL     1       1.882   7.472  20.019  0.00  0.00    +0.000 C 
ATOM      2  C   UNL     1       2.427   6.085  19.844  0.00  0.00    +0.000 A 
ATOM      3  C   UNL     1       2.205   5.110  20.799  0.00  0.00    +0.000 A 
ATOM      4  C   UNL     1       2.706   3.833  20.563  0.00  0.00    +0.000 A 
ATOM      5  C   UNL     1       3.412   3.527  19.386  0.00  0.00    +0.000 A 
ATOM      6  C   UNL     1       3.591   4.578  18.478  0.00  0.00    +0.000 A 
ATOM      7  N   UNL     1       3.110   5.836  18.706  0.00  0.00    +0.000 NA
ENDROOT
BRANCH   4   8
ATOM      8  O   UNL     1       2.472   2.860  21.509  0.00  0.00    +0.000 OA
ATOM      9  H   UNL     1       2.829   2.008  21.191  0.00  0.00    +0.000 HD
ENDBRANCH   4   8
BRANCH   5  10
ATOM     10  C   UNL     1       3.918   2.151  19.087  0.00  0.00    +0.000 C 
ATOM     11  O   UNL     1       3.403   1.387  18.289  0.00  0.00    +0.000 OA
BRANCH  10  12
ATOM     12  O   UNL     1       5.017   1.775  19.783  0.00  0.00    +0.000 OA
ATOM     13  H   UNL     1       5.857   2.046  19.356  0.00  0.00    +0.000 HD
ENDBRANCH  10  12
ENDBRANCH   5  10
BRANCH   6  14
ATOM     14  C   UNL     1       4.193   4.458  17.146  0.00  0.00    +0.000 C 
ATOM     15  C   UNL     1       5.441   4.834  16.828  0.00  0.00    +0.000 C 
BRANCH  15  16
ATOM     16  C   UNL     1       5.902   4.706  15.441  0.00  0.00    +0.000 A 
ATOM     17  C   UNL     1       5.232   3.848  14.558  0.00  0.00    +0.000 A 
ATOM     18  C   UNL     1       5.724   3.640  13.264  0.00  0.00    +0.000 A 
ATOM     19  C   UNL     1       6.885   4.287  12.845  0.00  0.00    +0.000 A 
ATOM     20  C   UNL     1       7.541   5.149  13.722  0.00  0.00    +0.000 A 
ATOM     21  C   UNL     1       7.056   5.368  15.009  0.00  0.00    +0.000 A 
BRANCH  20  22
ATOM     22  O   UNL     1       8.687   5.789  13.352  0.00  0.00    +0.000 OA
ATOM     23  H   UNL     1       8.498   6.737  13.258  0.00  0.00    +0.000 HD
ENDBRANCH  20  22
ENDBRANCH  15  16
ENDBRANCH   6  14
TORSDOF 6
ENDMDL
MODEL 4
REMARK VINA RESULT:      -7.3      3.982      6.756
REMARK  Name = 
REMARK  7 active torsions:
REMARK  status: ('A' for Active; 'I' for Inactive)
REMARK    1  A    between atoms: C_1  and  C_2
REMARK    2  A    between atoms: C_4  and  O_5
REMARK    3  A    between atoms: C_6  and  C_7
REMARK    4  A    between atoms: C_7  and  O_9
REMARK    5  A    between atoms: C_10  and  C_11
REMARK    6  A    between atoms: C_12  and  C_13
REMARK    7  A    between atoms: C_17  and  O_18
REMARK                            x       y       z     vdW  Elec       q    Type
REMARK                         _______ _______ _______ _____ _____    ______ ____
ROOT
ATOM      1  C   UNL     1       7.207   4.684  13.585  0.00  0.00    +0.000 C 
ATOM      2  C   UNL     1       6.871   4.850  15.038  0.00  0.00    +0.000 A 
ATOM      3  C   UNL     1       6.104   3.910  15.700  0.00  0.00    +0.000 A 
ATOM      4  C   UNL     1       5.856   4.102  17.057  0.00  0.00    +0.000 A 
ATOM      5  C   UNL     1       6.373   5.211  17.748  0.00  0.00    +0.000 A 
ATOM      6  C   UNL     1       7.136   6.112  16.995  0.00  0.00    +0.000 A 
ATOM      7  N   UNL     1       7.376   5.936  15.661  0.00  0.00    +0.000 NA
ENDROOT
BRANCH   4   8
ATOM      8  O   UNL     1       5.104   3.156  17.718  0.00  0.00    +0.000 OA
ATOM      9  H   UNL     1       4.302   3.579  18.082  0.00  0.00    +0.000 HD
ENDBRANCH   4   8
BRANCH   5  10
ATOM     10  C   UNL     1       6.162   5.415  19.215  0.00  0.00    +0.000 C 
ATOM     11  O   UNL     1       7.051   5.387  20.049  0.00  0.00    +0.000 OA
BRANCH  10  12
ATOM     12  O   UNL     1       4.878   5.629  19.590  0.00  0.00    +0.000 OA
ATOM     13  H   UNL     1       4.737   6.508  20.003  0.00  0.00    +0.000 HD
ENDBRANCH  10  12
ENDBRANCH   5  10
BRANCH   6  14
ATOM     14  C   UNL     1       7.860   7.269  17.530  0.00  0.00    +0.000 C 
ATOM     15  C   UNL     1       7.413   8.534  17.514  0.00  0.00    +0.000 C 
BRANCH  15  16
ATOM     16  C   UNL     1       8.264   9.608  18.038  0.00  0.00    +0.000 A 
ATOM     17  C   UNL     1       8.974   9.417  19.232  0.00  0.00    +0.000 A 
ATOM     18  C   UNL     1       9.706  10.468  19.795  0.00  0.00    +0.000 A 
ATOM     19  C   UNL     1       9.734  11.714  19.170  0.00  0.00    +0.000 A 
ATOM     20  C   UNL     1       9.037  11.896  17.978  0.00  0.00    +0.000 A 
ATOM     21  C   UNL     1       8.311  10.854  17.406  0.00  0.00    +0.000 A 
BRANCH  20  22
ATOM     22  O   UNL     1       9.030  13.104  17.345  0.00  0.00    +0.000 OA
ATOM     23  H   UNL     1       8.255  13.146  16.762  0.00  0.00    +0.000 HD
ENDBRANCH  20  22
ENDBRANCH  15  16
ENDBRANCH   6  14
TORSDOF 6
ENDMDL
MODEL 5
REMARK VINA RESULT:      -7.2      1.138      1.570
REMARK  Name = 
REMARK  7 active torsions:
REMARK  status: ('A' for Active; 'I' for Inactive)
REMARK    1  A    between atoms: C_1  and  C_2
REMARK    2  A    between atoms: C_4  and  O_5
REMARK    3  A    between atoms: C_6  and  C_7
REMARK    4  A    between atoms: C_7  and  O_9
REMARK    5  A    between atoms: C_10  and  C_11
REMARK    6  A    between atoms: C_12  and  C_13
REMARK    7  A    between atoms: C_17  and  O_18
REMARK                            x       y       z     vdW  Elec       q    Type
REMARK                         _______ _______ _______ _____ _____    ______ ____
ROOT
ATOM      1  C   UNL     1       5.251   2.998  11.713  0.00  0.00    +0.000 C 
ATOM      2  C   UNL     1       5.821   3.674  12.925  0.00  0.00    +0.000 A 
ATOM      3  C   UNL     1       6.972   4.435  12.837  0.00  0.00    +0.000 A 
ATOM      4  C   UNL     1       7.433   5.067  13.990  0.00  0.00    +0.000 A 
ATOM      5  C   UNL     1       6.750   4.950  15.213  0.00  0.00    +0.000 A 
ATOM      6  C   UNL     1       5.596   4.157  15.208  0.00  0.00    +0.000 A 
ATOM      7  N   UNL     1       5.143   3.527  14.084  0.00  0.00    +0.000 NA
ENDROOT
BRANCH   4   8
ATOM      8  O   UNL     1       8.572   5.835  13.896  0.00  0.00    +0.000 OA
ATOM      9  H   UNL     1       9.310   5.279  13.580  0.00  0.00    +0.000 HD
ENDBRANCH   4   8
BRANCH   5  10
ATOM     10  C   UNL     1       7.196   5.657  16.454  0.00  0.00    +0.000 C 
ATOM     11  O   UNL     1       7.076   6.855  16.644  0.00  0.00    +0.000 OA
BRANCH  10  12
ATOM     12  O   UNL     1       7.776   4.871  17.391  0.00  0.00    +0.000 OA
ATOM     13  H   UNL     1       7.924   5.331  18.245  0.00  0.00    +0.000 HD
ENDBRANCH  10  12
ENDBRANCH   5  10
BRANCH   6  14
ATOM     14  C   UNL     1       4.673   3.990  16.335  0.00  0.00    +0.000 C 
ATOM     15  C   UNL     1       3.917   4.964  16.864  0.00  0.00    +0.000 C 
BRANCH  15  16
ATOM     16  C   UNL     1       3.073   4.671  18.028  0.00  0.00    +0.000 A 
ATOM     17  C   UNL     1       3.365   5.255  19.268  0.00  0.00    +0.000 A 
ATOM     18  C   UNL     1       2.631   4.903  20.406  0.00  0.00    +0.000 A 
ATOM     19  C   UNL     1       1.602   3.967  20.313  0.00  0.00    +0.000 A 
ATOM     20  C   UNL     1       1.307   3.399  19.075  0.00  0.00    +0.000 A 
ATOM     21  C   UNL     1       2.027   3.747  17.936  0.00  0.00    +0.000 A 
BRANCH  20  22
ATOM     22  O   UNL     1       0.316   2.470  18.948  0.00  0.00    +0.000 OA
ATOM     23  H   UNL     1      -0.518   2.929  18.755  0.00  0.00    +0.000 HD
ENDBRANCH  20  22
ENDBRANCH  15  16
ENDBRANCH   6  14
TORSDOF 6
ENDMDL
MODEL 6
REMARK VINA RESULT:      -7.2      4.011      6.574
REMARK  Name = 
REMARK  7 active torsions:
REMARK  status: ('A' for Active; 'I' for Inactive)
REMARK    1  A    between atoms: C_1  and  C_2
REMARK    2  A    between atoms: C_4  and  O_5
REMARK    3  A    between atoms: C_6  and  C_7
REMARK    4  A    between atoms: C_7  and  O_9
REMARK    5  A    between atoms: C_10  and  C_11
REMARK    6  A    between atoms: C_12  and  C_13
REMARK    7  A    between atoms: C_17  and  O_18
REMARK                            x       y       z     vdW  Elec       q    Type
REMARK                         _______ _______ _______ _____ _____    ______ ____
ROOT
ATOM      1  C   UNL     1       5.776   6.011  17.380  0.00  0.00    +0.000 C 
ATOM      2  C   UNL     1       4.782   5.349  18.288  0.00  0.00    +0.000 A 
ATOM      3  C   UNL     1       4.872   3.999  18.573  0.00  0.00    +0.000 A 
ATOM      4  C   UNL     1       3.941   3.449  19.450  0.00  0.00    +0.000 A 
ATOM      5  C   UNL     1       2.939   4.235  20.045  0.00  0.00    +0.000 A 
ATOM      6  C   UNL     1       2.925   5.591  19.697  0.00  0.00    +0.000 A 
ATOM      7  N   UNL     1       3.828   6.137  18.829  0.00  0.00    +0.000 NA
ENDROOT
BRANCH   4   8
ATOM      8  O   UNL     1       4.041   2.106  19.743  0.00  0.00    +0.000 OA
ATOM      9  H   UNL     1       4.949   1.802  19.553  0.00  0.00    +0.000 HD
ENDBRANCH   4   8
BRANCH   5  10
ATOM     10  C   UNL     1       1.958   3.679  21.029  0.00  0.00    +0.000 C 
ATOM     11  O   UNL     1       2.250   3.289  22.146  0.00  0.00    +0.000 OA
BRANCH  10  12
ATOM     12  O   UNL     1       0.678   3.615  20.594  0.00  0.00    +0.000 OA
ATOM     13  H   UNL     1       0.020   3.665  21.320  0.00  0.00    +0.000 HD
ENDBRANCH  10  12
ENDBRANCH   5  10
BRANCH   6  14
ATOM     14  C   UNL     1       2.046   6.610  20.280  0.00  0.00    +0.000 C 
ATOM     15  C   UNL     1       1.920   7.869  19.830  0.00  0.00    +0.000 C 
BRANCH  15  16
ATOM     16  C   UNL     1       1.042   8.804  20.541  0.00  0.00    +0.000 A 
ATOM     17  C   UNL     1       0.342   9.787  19.826  0.00  0.00    +0.000 A 
ATOM     18  C   UNL     1      -0.416  10.748  20.503  0.00  0.00    +0.000 A 
ATOM     19  C   UNL     1      -0.481  10.734  21.896  0.00  0.00    +0.000 A 
ATOM     20  C   UNL     1       0.204   9.747  22.601  0.00  0.00    +0.000 A 
ATOM     21  C   UNL     1       0.957   8.782  21.937  0.00  0.00    +0.000 A 
BRANCH  20  22
ATOM     22  O   UNL     1       0.175   9.710  23.964  0.00  0.00    +0.000 OA
ATOM     23  H   UNL     1       1.086   9.751  24.297  0.00  0.00    +0.000 HD
ENDBRANCH  20  22
ENDBRANCH  15  16
ENDBRANCH   6  14
TORSDOF 6
ENDMDL
MODEL 7
REMARK VINA RESULT:      -7.1      0.600      1.026
REMARK  Name = 
REMARK  7 active torsions:
REMARK  status: ('A' for Active; 'I' for Inactive)
REMARK    1  A    between atoms: C_1  and  C_2
REMARK    2  A    between atoms: C_4  and  O_5
REMARK    3  A    between atoms: C_6  and  C_7
REMARK    4  A    between atoms: C_7  and  O_9
REMARK    5  A    between atoms: C_10  and  C_11
REMARK    6  A    between atoms: C_12  and  C_13
REMARK    7  A    between atoms: C_17  and  O_18
REMARK                            x       y       z     vdW  Elec       q    Type
REMARK                         _______ _______ _______ _____ _____    ______ ____
ROOT
ATOM      1  C   UNL     1       5.089   3.077  11.791  0.00  0.00    +0.000 C 
ATOM      2  C   UNL     1       5.707   3.735  12.989  0.00  0.00    +0.000 A 
ATOM      3  C   UNL     1       6.880   4.458  12.875  0.00  0.00    +0.000 A 
ATOM      4  C   UNL     1       7.385   5.076  14.017  0.00  0.00    +0.000 A 
ATOM      5  C   UNL     1       6.726   4.982  15.255  0.00  0.00    +0.000 A 
ATOM      6  C   UNL     1       5.546   4.228  15.275  0.00  0.00    +0.000 A 
ATOM      7  N   UNL     1       5.049   3.611  14.162  0.00  0.00    +0.000 NA
ENDROOT
BRANCH   4   8
ATOM      8  O   UNL     1       8.546   5.807  13.897  0.00  0.00    +0.000 OA
ATOM      9  H   UNL     1       9.170   5.537  14.599  0.00  0.00    +0.000 HD
ENDBRANCH   4   8
BRANCH   5  10
ATOM     10  C   UNL     1       7.222   5.676  16.484  0.00  0.00    +0.000 C 
ATOM     11  O   UNL     1       7.730   5.110  17.436  0.00  0.00    +0.000 OA
BRANCH  10  12
ATOM     12  O   UNL     1       7.061   7.021  16.493  0.00  0.00    +0.000 OA
ATOM     13  H   UNL     1       7.887   7.508  16.698  0.00  0.00    +0.000 HD
ENDBRANCH  10  12
ENDBRANCH   5  10
BRANCH   6  14
ATOM     14  C   UNL     1       4.643   4.091  16.422  0.00  0.00    +0.000 C 
ATOM     15  C   UNL     1       4.004   5.106  17.025  0.00  0.00    +0.000 C 
BRANCH  15  16
ATOM     16  C   UNL     1       3.167   4.835  18.200  0.00  0.00    +0.000 A 
ATOM     17  C   UNL     1       2.476   3.620  18.301  0.00  0.00    +0.000 A 
ATOM     18  C   UNL     1       1.596   3.394  19.365  0.00  0.00    +0.000 A 
ATOM     19  C   UNL     1       1.401   4.378  20.333  0.00  0.00    +0.000 A 
ATOM     20  C   UNL     1       2.100   5.579  20.235  0.00  0.00    +0.000 A 
ATOM     21  C   UNL     1       2.983   5.812  19.183  0.00  0.00    +0.000 A 
BRANCH  20  22
ATOM     22  O   UNL     1       1.925   6.570  21.156  0.00  0.00    +0.000 OA
ATOM     23  H   UNL     1       0.975   6.667  21.332  0.00  0.00    +0.000 HD
ENDBRANCH  20  22
ENDBRANCH  15  16
ENDBRANCH   6  14
TORSDOF 6
ENDMDL
MODEL 8
REMARK VINA RESULT:      -7.1      2.698      6.974
REMARK  Name = 
REMARK  7 active torsions:
REMARK  status: ('A' for Active; 'I' for Inactive)
REMARK    1  A    between atoms: C_1  and  C_2
REMARK    2  A    between atoms: C_4  and  O_5
REMARK    3  A    between atoms: C_6  and  C_7
REMARK    4  A    between atoms: C_7  and  O_9
REMARK    5  A    between atoms: C_10  and  C_11
REMARK    6  A    between atoms: C_12  and  C_13
REMARK    7  A    between atoms: C_17  and  O_18
REMARK                            x       y       z     vdW  Elec       q    Type
REMARK                         _______ _______ _______ _____ _____    ______ ____
ROOT
ATOM      1  C   UNL     1       2.228   7.580  19.261  0.00  0.00    +0.000 C 
ATOM      2  C   UNL     1       2.712   6.160  19.260  0.00  0.00    +0.000 A 
ATOM      3  C   UNL     1       2.357   5.290  20.274  0.00  0.00    +0.000 A 
ATOM      4  C   UNL     1       2.809   3.975  20.200  0.00  0.00    +0.000 A 
ATOM      5  C   UNL     1       3.595   3.528  19.123  0.00  0.00    +0.000 A 
ATOM      6  C   UNL     1       3.905   4.480  18.144  0.00  0.00    +0.000 A 
ATOM      7  N   UNL     1       3.475   5.775  18.215  0.00  0.00    +0.000 NA
ENDROOT
BRANCH   4   8
ATOM      8  O   UNL     1       2.443   3.107  21.204  0.00  0.00    +0.000 OA
ATOM      9  H   UNL     1       3.142   3.089  21.886  0.00  0.00    +0.000 HD
ENDBRANCH   4   8
BRANCH   5  10
ATOM     10  C   UNL     1       4.051   2.109  18.995  0.00  0.00    +0.000 C 
ATOM     11  O   UNL     1       3.606   1.314  18.185  0.00  0.00    +0.000 OA
BRANCH  10  12
ATOM     12  O   UNL     1       5.014   1.730  19.867  0.00  0.00    +0.000 OA
ATOM     13  H   UNL     1       5.256   2.434  20.506  0.00  0.00    +0.000 HD
ENDBRANCH  10  12
ENDBRANCH   5  10
BRANCH   6  14
ATOM     14  C   UNL     1       4.612   4.209  16.888  0.00  0.00    +0.000 C 
ATOM     15  C   UNL     1       5.265   5.125  16.157  0.00  0.00    +0.000 C 
BRANCH  15  16
ATOM     16  C   UNL     1       5.887   4.728  14.889  0.00  0.00    +0.000 A 
ATOM     17  C   UNL     1       7.137   5.249  14.529  0.00  0.00    +0.000 A 
ATOM     18  C   UNL     1       7.691   4.959  13.278  0.00  0.00    +0.000 A 
ATOM     19  C   UNL     1       7.001   4.146  12.379  0.00  0.00    +0.000 A 
ATOM     20  C   UNL     1       5.765   3.619  12.746  0.00  0.00    +0.000 A 
ATOM     21  C   UNL     1       5.207   3.898  13.992  0.00  0.00    +0.000 A 
BRANCH  20  22
ATOM     22  O   UNL     1       5.054   2.832  11.889  0.00  0.00    +0.000 OA
ATOM     23  H   UNL     1       5.532   1.995  11.766  0.00  0.00    +0.000 HD
ENDBRANCH  20  22
ENDBRANCH  15  16
ENDBRANCH   6  14
TORSDOF 6
ENDMDL
MODEL 9
REMARK VINA RESULT:      -7.0      1.302      1.581
REMARK  Name = 
REMARK  7 active torsions:
REMARK  status: ('A' for Active; 'I' for Inactive)
REMARK    1  A    between atoms: C_1  and  C_2
REMARK    2  A    between atoms: C_4  and  O_5
REMARK    3  A    between atoms: C_6  and  C_7
REMARK    4  A    between atoms: C_7  and  O_9
REMARK    5  A    between atoms: C_10  and  C_11
REMARK    6  A    between atoms: C_12  and  C_13
REMARK    7  A    between atoms: C_17  and  O_18
REMARK                            x       y       z     vdW  Elec       q    Type
REMARK                         _______ _______ _______ _____ _____    ______ ____
ROOT
ATOM      1  C   UNL     1       5.004   3.047  11.816  0.00  0.00    +0.000 C 
ATOM      2  C   UNL     1       5.679   3.708  12.981  0.00  0.00    +0.000 A 
ATOM      3  C   UNL     1       6.848   4.427  12.808  0.00  0.00    +0.000 A 
ATOM      4  C   UNL     1       7.410   5.047  13.921  0.00  0.00    +0.000 A 
ATOM      5  C   UNL     1       6.810   4.962  15.189  0.00  0.00    +0.000 A 
ATOM      6  C   UNL     1       5.630   4.211  15.269  0.00  0.00    +0.000 A 
ATOM      7  N   UNL     1       5.078   3.591  14.184  0.00  0.00    +0.000 NA
ENDROOT
BRANCH   4   8
ATOM      8  O   UNL     1       8.566   5.774  13.743  0.00  0.00    +0.000 OA
ATOM      9  H   UNL     1       9.184   5.580  14.474  0.00  0.00    +0.000 HD
ENDBRANCH   4   8
BRANCH   5  10
ATOM     10  C   UNL     1       7.366   5.659  16.390  0.00  0.00    +0.000 C 
ATOM     11  O   UNL     1       7.481   6.868  16.492  0.00  0.00    +0.000 OA
BRANCH  10  12
ATOM     12  O   UNL     1       7.762   4.847  17.398  0.00  0.00    +0.000 OA
ATOM     13  H   UNL     1       7.736   3.895  17.162  0.00  0.00    +0.000 HD
ENDBRANCH  10  12
ENDBRANCH   5  10
BRANCH   6  14
ATOM     14  C   UNL     1       4.783   4.083  16.459  0.00  0.00    +0.000 C 
ATOM     15  C   UNL     1       4.410   2.922  17.019  0.00  0.00    +0.000 C 
BRANCH  15  16
ATOM     16  C   UNL     1       3.514   2.935  18.181  0.00  0.00    +0.000 A 
ATOM     17  C   UNL     1       4.044   3.076  19.471  0.00  0.00    +0.000 A 
ATOM     18  C   UNL     1       3.210   2.986  20.591  0.00  0.00    +0.000 A 
ATOM     19  C   UNL     1       1.844   2.756  20.430  0.00  0.00    +0.000 A 
ATOM     20  C   UNL     1       1.320   2.630  19.146  0.00  0.00    +0.000 A 
ATOM     21  C   UNL     1       2.141   2.724  18.024  0.00  0.00    +0.000 A 
BRANCH  20  22
ATOM     22  O   UNL     1      -0.008   2.391  18.949  0.00  0.00    +0.000 OA
ATOM     23  H   UNL     1      -0.280   1.656  19.522  0.00  0.00    +0.000 HD
ENDBRANCH  20  22
ENDBRANCH  15  16
ENDBRANCH   6  14
TORSDOF 6
ENDMDL
