MODEL 1
REMARK VINA RESULT:      -8.0      0.000      0.000
REMARK  Name = 
REMARK  12 active torsions:
REMARK  status: ('A' for Active; 'I' for Inactive)
REMARK    1  A    between atoms: C_1  and  C_2
REMARK    2  A    between atoms: C_2  and  C_3
REMARK    3  A    between atoms: C_2  and  C_4
REMARK    4  A    between atoms: C_2  and  C_5
REMARK    5  A    between atoms: C_8  and  C_9
REMARK    6  A    between atoms: C_9  and  C_11
REMARK    7  A    between atoms: C_11  and  C_12
REMARK    8  A    between atoms: C_12  and  N_13
REMARK    9  A    between atoms: C_16  and  C_17
REMARK   10  A    between atoms: C_17  and  O_18
REMARK   11  A    between atoms: C_17  and  C_19
REMARK   12  A    between atoms: C_17  and  C_25
REMARK                            x       y       z     vdW  Elec       q    Type
REMARK                         _______ _______ _______ _____ _____    ______ ____
ROOT
ATOM      1  N   UNL     1       2.366  14.543  19.751  0.00  0.00    +0.000 NA
ATOM      2  C   UNL     1       1.609  14.178  18.542  0.00  0.00    +0.000 C 
ATOM      3  C   UNL     1       0.102  14.158  18.767  0.00  0.00    +0.000 C 
ATOM      4  C   UNL     1      -0.326  13.208  19.897  0.00  0.00    +0.000 C 
ATOM      5  C   UNL     1       0.474  13.647  21.148  0.00  0.00    +0.000 C 
ATOM      6  C   UNL     1       1.988  13.763  20.935  0.00  0.00    +0.000 C 
ENDROOT
BRANCH   1   7
ATOM      7  C   UNL     1       3.827  14.417  19.523  0.00  0.00    +0.000 C 
BRANCH   7   8
ATOM      8  C   UNL     1       4.234  15.104  18.223  0.00  0.00    +0.000 C 
BRANCH   8   9
ATOM      9  C   UNL     1       5.498  15.923  18.345  0.00  0.00    +0.000 C 
ATOM     10  O   UNL     1       5.494  17.121  18.612  0.00  0.00    +0.000 OA
BRANCH   9  14
ATOM     11  C   UNL     1       9.274  13.829  17.946  0.00  0.00    +0.000 A 
ATOM     12  C   UNL     1       9.202  15.167  18.380  0.00  0.00    +0.000 A 
ATOM     13  C   UNL     1       7.980  15.841  18.495  0.00  0.00    +0.000 A 
ATOM     14  C   UNL     1       6.791  15.202  18.155  0.00  0.00    +0.000 A 
ATOM     15  C   UNL     1       6.850  13.888  17.668  0.00  0.00    +0.000 A 
ATOM     16  C   UNL     1       8.071  13.220  17.561  0.00  0.00    +0.000 A 
BRANCH  11  18
ATOM     17  C   UNL     1      11.439  13.478  16.645  0.00  0.00    +0.000 C 
ATOM     18  C   UNL     1      10.617  13.078  17.894  0.00  0.00    +0.000 C 
ATOM     19  C   UNL     1      10.348  11.563  17.853  0.00  0.00    +0.000 C 
ATOM     20  C   UNL     1      11.517  13.377  19.117  0.00  0.00    +0.000 C 
ENDBRANCH  11  18
ENDBRANCH   9  14
ENDBRANCH   8   9
ENDBRANCH   7   8
ENDBRANCH   1   7
BRANCH   4  21
ATOM     21  C   UNL     1      -0.229  11.663  19.545  0.00  0.00    +0.000 C 
BRANCH  21  22
ATOM     22  C   UNL     1      -0.157  10.832  20.859  0.00  0.00    +0.000 A 
ATOM     23  C   UNL     1      -1.050  11.079  21.923  0.00  0.00    +0.000 A 
ATOM     24  C   UNL     1      -0.940  10.416  23.149  0.00  0.00    +0.000 A 
ATOM     25  C   UNL     1       0.086   9.505  23.357  0.00  0.00    +0.000 A 
ATOM     26  C   UNL     1       0.976   9.227  22.327  0.00  0.00    +0.000 A 
ATOM     27  C   UNL     1       0.838   9.860  21.087  0.00  0.00    +0.000 A 
ENDBRANCH  21  22
BRANCH  21  28
ATOM     28  C   UNL     1      -1.375  11.193  18.610  0.00  0.00    +0.000 A 
ATOM     29  C   UNL     1      -2.663  11.764  18.699  0.00  0.00    +0.000 A 
ATOM     30  C   UNL     1      -3.716  11.346  17.878  0.00  0.00    +0.000 A 
ATOM     31  C   UNL     1      -3.504  10.356  16.928  0.00  0.00    +0.000 A 
ATOM     32  C   UNL     1      -2.250   9.766  16.821  0.00  0.00    +0.000 A 
ATOM     33  C   UNL     1      -1.205  10.166  17.663  0.00  0.00    +0.000 A 
ENDBRANCH  21  28
BRANCH  21  34
ATOM     34  O   UNL     1       0.977  11.461  18.795  0.00  0.00    +0.000 OA
ATOM     35  H   UNL     1       1.431  10.689  19.150  0.00  0.00    +0.000 HD
ENDBRANCH  21  34
ENDBRANCH   4  21
TORSDOF 9
ENDMDL
MODEL 2
REMARK VINA RESULT:      -7.9      5.530     10.886
REMARK  Name = 
REMARK  12 active torsions:
REMARK  status: ('A' for Active; 'I' for Inactive)
REMARK    1  A    between atoms: C_1  and  C_2
REMARK    2  A    between atoms: C_2  and  C_3
REMARK    3  A    between atoms: C_2  and  C_4
REMARK    4  A    between atoms: C_2  and  C_5
REMARK    5  A    between atoms: C_8  and  C_9
REMARK    6  A    between atoms: C_9  and  C_11
REMARK    7  A    between atoms: C_11  and  C_12
REMARK    8  A    between atoms: C_12  and  N_13
REMARK    9  A    between atoms: C_16  and  C_17
REMARK   10  A    between atoms: C_17  and  O_18
REMARK   11  A    between atoms: C_17  and  C_19
REMARK   12  A    between atoms: C_17  and  C_25
REMARK                            x       y       z     vdW  Elec       q    Type
REMARK                         _______ _______ _______ _____ _____    ______ ____
ROOT
ATOM      1  N   UNL     1       9.398  10.101  18.684  0.00  0.00    +0.000 NA
ATOM      2  C   UNL     1       9.949  11.144  17.803  0.00  0.00    +0.000 C 
ATOM      3  C   UNL     1      11.045  11.966  18.470  0.00  0.00    +0.000 C 
ATOM      4  C   UNL     1      10.587  12.641  19.772  0.00  0.00    +0.000 C 
ATOM      5  C   UNL     1      10.042  11.503  20.671  0.00  0.00    +0.000 C 
ATOM      6  C   UNL     1       8.997  10.600  20.004  0.00  0.00    +0.000 C 
ENDROOT
BRANCH   1   7
ATOM      7  C   UNL     1       8.245   9.418  18.044  0.00  0.00    +0.000 C 
BRANCH   7   8
ATOM      8  C   UNL     1       8.223   7.936  18.406  0.00  0.00    +0.000 C 
BRANCH   8   9
ATOM      9  C   UNL     1       7.483   7.082  17.404  0.00  0.00    +0.000 C 
ATOM     10  O   UNL     1       7.881   6.903  16.257  0.00  0.00    +0.000 OA
BRANCH   9  14
ATOM     11  C   UNL     1       3.865   5.225  18.908  0.00  0.00    +0.000 A 
ATOM     12  C   UNL     1       5.137   4.909  19.421  0.00  0.00    +0.000 A 
ATOM     13  C   UNL     1       6.303   5.504  18.922  0.00  0.00    +0.000 A 
ATOM     14  C   UNL     1       6.232   6.418  17.876  0.00  0.00    +0.000 A 
ATOM     15  C   UNL     1       4.978   6.702  17.315  0.00  0.00    +0.000 A 
ATOM     16  C   UNL     1       3.820   6.109  17.820  0.00  0.00    +0.000 A 
BRANCH  11  18
ATOM     17  C   UNL     1       2.900   3.338  20.325  0.00  0.00    +0.000 C 
ATOM     18  C   UNL     1       2.587   4.618  19.513  0.00  0.00    +0.000 C 
ATOM     19  C   UNL     1       1.607   4.265  18.379  0.00  0.00    +0.000 C 
ATOM     20  C   UNL     1       1.871   5.583  20.488  0.00  0.00    +0.000 C 
ENDBRANCH  11  18
ENDBRANCH   9  14
ENDBRANCH   8   9
ENDBRANCH   7   8
ENDBRANCH   1   7
BRANCH   4  21
ATOM     21  C   UNL     1       9.605  13.872  19.577  0.00  0.00    +0.000 C 
BRANCH  21  22
ATOM     22  C   UNL     1       9.000  14.281  20.952  0.00  0.00    +0.000 A 
ATOM     23  C   UNL     1       7.606  14.407  21.122  0.00  0.00    +0.000 A 
ATOM     24  C   UNL     1       7.045  14.870  22.316  0.00  0.00    +0.000 A 
ATOM     25  C   UNL     1       7.867  15.249  23.369  0.00  0.00    +0.000 A 
ATOM     26  C   UNL     1       9.245  15.127  23.241  0.00  0.00    +0.000 A 
ATOM     27  C   UNL     1       9.802  14.623  22.061  0.00  0.00    +0.000 A 
ENDBRANCH  21  22
BRANCH  21  28
ATOM     28  C   UNL     1      10.282  15.065  18.852  0.00  0.00    +0.000 A 
ATOM     29  C   UNL     1      10.626  14.981  17.485  0.00  0.00    +0.000 A 
ATOM     30  C   UNL     1      11.250  16.036  16.812  0.00  0.00    +0.000 A 
ATOM     31  C   UNL     1      11.533  17.217  17.486  0.00  0.00    +0.000 A 
ATOM     32  C   UNL     1      11.217  17.329  18.835  0.00  0.00    +0.000 A 
ATOM     33  C   UNL     1      10.617  16.262  19.513  0.00  0.00    +0.000 A 
ENDBRANCH  21  28
BRANCH  21  34
ATOM     34  O   UNL     1       8.546  13.453  18.705  0.00  0.00    +0.000 OA
ATOM     35  H   UNL     1       8.916  13.293  17.830  0.00  0.00    +0.000 HD
ENDBRANCH  21  34
ENDBRANCH   4  21
TORSDOF 9
ENDMDL
MODEL 3
REMARK VINA RESULT:      -7.9      6.194     10.480
REMARK  Name = 
REMARK  12 active torsions:
REMARK  status: ('A' for Active; 'I' for Inactive)
REMARK    1  A    between atoms: C_1  and  C_2
REMARK    2  A    between atoms: C_2  and  C_3
REMARK    3  A    between atoms: C_2  and  C_4
REMARK    4  A    between atoms: C_2  and  C_5
REMARK    5  A    between atoms: C_8  and  C_9
REMARK    6  A    between atoms: C_9  and  C_11
REMARK    7  A    between atoms: C_11  and  C_12
REMARK    8  A    between atoms: C_12  and  N_13
REMARK    9  A    between atoms: C_16  and  C_17
REMARK   10  A    between atoms: C_17  and  O_18
REMARK   11  A    between atoms: C_17  and  C_19
REMARK   12  A    between atoms: C_17  and  C_25
REMARK                            x       y       z     vdW  Elec       q    Type
REMARK                         _______ _______ _______ _____ _____    ______ ____
ROOT
ATOM      1  N   UNL     1       2.575   4.151  19.142  0.00  0.00    +0.000 NA
ATOM      2  C   UNL     1       2.453   3.991  17.683  0.00  0.00    +0.000 C 
ATOM      3  C   UNL     1       3.567   3.143  17.083  0.00  0.00    +0.000 C 
ATOM      4  C   UNL     1       4.971   3.693  17.382  0.00  0.00    +0.000 C 
ATOM      5  C   UNL     1       5.059   3.817  18.923  0.00  0.00    +0.000 C 
ATOM      6  C   UNL     1       3.906   4.592  19.573  0.00  0.00    +0.000 C 
ENDROOT
BRANCH   1   7
ATOM      7  C   UNL     1       1.551   5.092  19.663  0.00  0.00    +0.000 C 
BRANCH   7   8
ATOM      8  C   UNL     1       2.210   6.327  20.271  0.00  0.00    +0.000 C 
BRANCH   8   9
ATOM      9  C   UNL     1       2.085   7.561  19.410  0.00  0.00    +0.000 C 
ATOM     10  O   UNL     1       2.615   7.662  18.308  0.00  0.00    +0.000 OA
BRANCH   9  14
ATOM     11  C   UNL     1      -0.235  10.833  21.057  0.00  0.00    +0.000 A 
ATOM     12  C   UNL     1       0.062   9.677  21.803  0.00  0.00    +0.000 A 
ATOM     13  C   UNL     1       0.801   8.618  21.261  0.00  0.00    +0.000 A 
ATOM     14  C   UNL     1       1.248   8.676  19.944  0.00  0.00    +0.000 A 
ATOM     15  C   UNL     1       0.913   9.796  19.169  0.00  0.00    +0.000 A 
ATOM     16  C   UNL     1       0.180  10.850  19.718  0.00  0.00    +0.000 A 
BRANCH  11  18
ATOM     17  C   UNL     1      -0.072  13.261  21.820  0.00  0.00    +0.000 C 
ATOM     18  C   UNL     1      -0.986  12.019  21.688  0.00  0.00    +0.000 C 
ATOM     19  C   UNL     1      -1.487  11.615  23.087  0.00  0.00    +0.000 C 
ATOM     20  C   UNL     1      -2.206  12.469  20.848  0.00  0.00    +0.000 C 
ENDBRANCH  11  18
ENDBRANCH   9  14
ENDBRANCH   8   9
ENDBRANCH   7   8
ENDBRANCH   1   7
BRANCH   4  21
ATOM     21  C   UNL     1       5.361   5.004  16.578  0.00  0.00    +0.000 C 
BRANCH  21  22
ATOM     22  C   UNL     1       6.379   5.841  17.406  0.00  0.00    +0.000 A 
ATOM     23  C   UNL     1       6.543   7.222  17.170  0.00  0.00    +0.000 A 
ATOM     24  C   UNL     1       7.520   7.974  17.829  0.00  0.00    +0.000 A 
ATOM     25  C   UNL     1       8.384   7.358  18.725  0.00  0.00    +0.000 A 
ATOM     26  C   UNL     1       8.243   6.002  18.991  0.00  0.00    +0.000 A 
ATOM     27  C   UNL     1       7.237   5.260  18.362  0.00  0.00    +0.000 A 
ENDBRANCH  21  22
BRANCH  21  28
ATOM     28  C   UNL     1       5.876   4.694  15.147  0.00  0.00    +0.000 A 
ATOM     29  C   UNL     1       5.100   3.933  14.246  0.00  0.00    +0.000 A 
ATOM     30  C   UNL     1       5.548   3.628  12.957  0.00  0.00    +0.000 A 
ATOM     31  C   UNL     1       6.783   4.093  12.524  0.00  0.00    +0.000 A 
ATOM     32  C   UNL     1       7.577   4.837  13.390  0.00  0.00    +0.000 A 
ATOM     33  C   UNL     1       7.138   5.118  14.689  0.00  0.00    +0.000 A 
ENDBRANCH  21  28
BRANCH  21  34
ATOM     34  O   UNL     1       4.164   5.773  16.389  0.00  0.00    +0.000 OA
ATOM     35  H   UNL     1       4.378   6.704  16.514  0.00  0.00    +0.000 HD
ENDBRANCH  21  34
ENDBRANCH   4  21
TORSDOF 9
ENDMDL
MODEL 4
REMARK VINA RESULT:      -7.8      0.909      1.615
REMARK  Name = 
REMARK  12 active torsions:
REMARK  status: ('A' for Active; 'I' for Inactive)
REMARK    1  A    between atoms: C_1  and  C_2
REMARK    2  A    between atoms: C_2  and  C_3
REMARK    3  A    between atoms: C_2  and  C_4
REMARK    4  A    between atoms: C_2  and  C_5
REMARK    5  A    between atoms: C_8  and  C_9
REMARK    6  A    between atoms: C_9  and  C_11
REMARK    7  A    between atoms: C_11  and  C_12
REMARK    8  A    between atoms: C_12  and  N_13
REMARK    9  A    between atoms: C_16  and  C_17
REMARK   10  A    between atoms: C_17  and  O_18
REMARK   11  A    between atoms: C_17  and  C_19
REMARK   12  A    between atoms: C_17  and  C_25
REMARK                            x       y       z     vdW  Elec       q    Type
REMARK                         _______ _______ _______ _____ _____    ______ ____
ROOT
ATOM      1  N   UNL     1       2.464  14.725  19.881  0.00  0.00    +0.000 NA
ATOM      2  C   UNL     1       1.750  14.328  18.656  0.00  0.00    +0.000 C 
ATOM      3  C   UNL     1       0.237  14.303  18.832  0.00  0.00    +0.000 C 
ATOM      4  C   UNL     1      -0.224  13.377  19.969  0.00  0.00    +0.000 C 
ATOM      5  C   UNL     1       0.532  13.851  21.235  0.00  0.00    +0.000 C 
ATOM      6  C   UNL     1       2.052  13.971  21.070  0.00  0.00    +0.000 C 
ENDROOT
BRANCH   1   7
ATOM      7  C   UNL     1       3.933  14.603  19.704  0.00  0.00    +0.000 C 
BRANCH   7   8
ATOM      8  C   UNL     1       4.634  15.905  20.081  0.00  0.00    +0.000 C 
BRANCH   8   9
ATOM      9  C   UNL     1       5.880  16.174  19.271  0.00  0.00    +0.000 C 
ATOM     10  O   UNL     1       6.083  17.237  18.691  0.00  0.00    +0.000 OA
BRANCH   9  14
ATOM     11  C   UNL     1       8.939  13.109  19.044  0.00  0.00    +0.000 A 
ATOM     12  C   UNL     1       8.212  13.525  17.913  0.00  0.00    +0.000 A 
ATOM     13  C   UNL     1       7.216  14.508  17.996  0.00  0.00    +0.000 A 
ATOM     14  C   UNL     1       6.902  15.087  19.221  0.00  0.00    +0.000 A 
ATOM     15  C   UNL     1       7.578  14.644  20.367  0.00  0.00    +0.000 A 
ATOM     16  C   UNL     1       8.573  13.668  20.277  0.00  0.00    +0.000 A 
BRANCH  11  18
ATOM     17  C   UNL     1      10.878  12.273  17.615  0.00  0.00    +0.000 C 
ATOM     18  C   UNL     1      10.079  12.082  18.927  0.00  0.00    +0.000 C 
ATOM     19  C   UNL     1       9.485  10.661  18.949  0.00  0.00    +0.000 C 
ATOM     20  C   UNL     1      11.107  12.195  20.078  0.00  0.00    +0.000 C 
ENDBRANCH  11  18
ENDBRANCH   9  14
ENDBRANCH   8   9
ENDBRANCH   7   8
ENDBRANCH   1   7
BRANCH   4  21
ATOM     21  C   UNL     1      -0.107  11.826  19.657  0.00  0.00    +0.000 C 
BRANCH  21  22
ATOM     22  C   UNL     1      -0.022  11.029  20.992  0.00  0.00    +0.000 A 
ATOM     23  C   UNL     1       0.991  10.071  21.200  0.00  0.00    +0.000 A 
ATOM     24  C   UNL     1       1.028   9.272  22.347  0.00  0.00    +0.000 A 
ATOM     25  C   UNL     1       0.033   9.389  23.309  0.00  0.00    +0.000 A 
ATOM     26  C   UNL     1      -0.973  10.332  23.142  0.00  0.00    +0.000 A 
ATOM     27  C   UNL     1      -0.985  11.160  22.014  0.00  0.00    +0.000 A 
ENDBRANCH  21  22
BRANCH  21  28
ATOM     28  C   UNL     1      -1.247  11.316  18.736  0.00  0.00    +0.000 A 
ATOM     29  C   UNL     1      -1.028  10.253  17.832  0.00  0.00    +0.000 A 
ATOM     30  C   UNL     1      -2.035   9.786  16.982  0.00  0.00    +0.000 A 
ATOM     31  C   UNL     1      -3.300  10.357  17.024  0.00  0.00    +0.000 A 
ATOM     32  C   UNL     1      -3.546  11.412  17.896  0.00  0.00    +0.000 A 
ATOM     33  C   UNL     1      -2.529  11.896  18.727  0.00  0.00    +0.000 A 
ENDBRANCH  21  28
BRANCH  21  34
ATOM     34  O   UNL     1       1.101  11.621  18.910  0.00  0.00    +0.000 OA
ATOM     35  H   UNL     1       1.752  12.269  19.200  0.00  0.00    +0.000 HD
ENDBRANCH  21  34
ENDBRANCH   4  21
TORSDOF 9
ENDMDL
MODEL 5
REMARK VINA RESULT:      -7.8      5.799     10.987
REMARK  Name = 
REMARK  12 active torsions:
REMARK  status: ('A' for Active; 'I' for Inactive)
REMARK    1  A    between atoms: C_1  and  C_2
REMARK    2  A    between atoms: C_2  and  C_3
REMARK    3  A    between atoms: C_2  and  C_4
REMARK    4  A    between atoms: C_2  and  C_5
REMARK    5  A    between atoms: C_8  and  C_9
REMARK    6  A    between atoms: C_9  and  C_11
REMARK    7  A    between atoms: C_11  and  C_12
REMARK    8  A    between atoms: C_12  and  N_13
REMARK    9  A    between atoms: C_16  and  C_17
REMARK   10  A    between atoms: C_17  and  O_18
REMARK   11  A    between atoms: C_17  and  C_19
REMARK   12  A    between atoms: C_17  and  C_25
REMARK                            x       y       z     vdW  Elec       q    Type
REMARK                         _______ _______ _______ _____ _____    ______ ____
ROOT
ATOM      1  N   UNL     1       9.655  10.312  18.627  0.00  0.00    +0.000 NA
ATOM      2  C   UNL     1      10.269  11.413  17.865  0.00  0.00    +0.000 C 
ATOM      3  C   UNL     1      11.329  12.166  18.658  0.00  0.00    +0.000 C 
ATOM      4  C   UNL     1      10.796  12.745  19.979  0.00  0.00    +0.000 C 
ATOM      5  C   UNL     1      10.187  11.550  20.752  0.00  0.00    +0.000 C 
ATOM      6  C   UNL     1       9.178  10.715  19.955  0.00  0.00    +0.000 C 
ENDROOT
BRANCH   1   7
ATOM      7  C   UNL     1       8.538   9.696  17.868  0.00  0.00    +0.000 C 
BRANCH   7   8
ATOM      8  C   UNL     1       8.150   8.350  18.471  0.00  0.00    +0.000 C 
BRANCH   8   9
ATOM      9  C   UNL     1       7.547   7.393  17.470  0.00  0.00    +0.000 C 
ATOM     10  O   UNL     1       8.026   7.202  16.356  0.00  0.00    +0.000 OA
BRANCH   9  14
ATOM     11  C   UNL     1       4.034   5.268  18.863  0.00  0.00    +0.000 A 
ATOM     12  C   UNL     1       5.327   4.960  19.327  0.00  0.00    +0.000 A 
ATOM     13  C   UNL     1       6.459   5.643  18.863  0.00  0.00    +0.000 A 
ATOM     14  C   UNL     1       6.332   6.640  17.902  0.00  0.00    +0.000 A 
ATOM     15  C   UNL     1       5.058   6.921  17.388  0.00  0.00    +0.000 A 
ATOM     16  C   UNL     1       3.933   6.240  17.858  0.00  0.00    +0.000 A 
BRANCH  11  18
ATOM     17  C   UNL     1       2.061   5.449  20.469  0.00  0.00    +0.000 C 
ATOM     18  C   UNL     1       2.791   4.560  19.434  0.00  0.00    +0.000 C 
ATOM     19  C   UNL     1       3.224   3.249  20.115  0.00  0.00    +0.000 C 
ATOM     20  C   UNL     1       1.746   4.218  18.345  0.00  0.00    +0.000 C 
ENDBRANCH  11  18
ENDBRANCH   9  14
ENDBRANCH   8   9
ENDBRANCH   7   8
ENDBRANCH   1   7
BRANCH   4  21
ATOM     21  C   UNL     1       9.839  14.001  19.820  0.00  0.00    +0.000 C 
BRANCH  21  22
ATOM     22  C   UNL     1       9.325  14.446  21.220  0.00  0.00    +0.000 A 
ATOM     23  C   UNL     1      10.121  15.250  22.062  0.00  0.00    +0.000 A 
ATOM     24  C   UNL     1       9.724  15.578  23.362  0.00  0.00    +0.000 A 
ATOM     25  C   UNL     1       8.529  15.086  23.869  0.00  0.00    +0.000 A 
ATOM     26  C   UNL     1       7.713  14.302  23.063  0.00  0.00    +0.000 A 
ATOM     27  C   UNL     1       8.092  14.011  21.748  0.00  0.00    +0.000 A 
ENDBRANCH  21  22
BRANCH  21  28
ATOM     28  C   UNL     1      10.507  15.164  19.039  0.00  0.00    +0.000 A 
ATOM     29  C   UNL     1       9.895  15.711  17.890  0.00  0.00    +0.000 A 
ATOM     30  C   UNL     1      10.484  16.749  17.161  0.00  0.00    +0.000 A 
ATOM     31  C   UNL     1      11.697  17.284  17.572  0.00  0.00    +0.000 A 
ATOM     32  C   UNL     1      12.331  16.762  18.694  0.00  0.00    +0.000 A 
ATOM     33  C   UNL     1      11.753  15.705  19.406  0.00  0.00    +0.000 A 
ENDBRANCH  21  28
BRANCH  21  34
ATOM     34  O   UNL     1       8.721  13.599  19.015  0.00  0.00    +0.000 OA
ATOM     35  H   UNL     1       9.049  13.063  18.285  0.00  0.00    +0.000 HD
ENDBRANCH  21  34
ENDBRANCH   4  21
TORSDOF 9
ENDMDL
MODEL 6
REMARK VINA RESULT:      -7.8      4.877      6.693
REMARK  Name = 
REMARK  12 active torsions:
REMARK  status: ('A' for Active; 'I' for Inactive)
REMARK    1  A    between atoms: C_1  and  C_2
REMARK    2  A    between atoms: C_2  and  C_3
REMARK    3  A    between atoms: C_2  and  C_4
REMARK    4  A    between atoms: C_2  and  C_5
REMARK    5  A    between atoms: C_8  and  C_9
REMARK    6  A    between atoms: C_9  and  C_11
REMARK    7  A    between atoms: C_11  and  C_12
REMARK    8  A    between atoms: C_12  and  N_13
REMARK    9  A    between atoms: C_16  and  C_17
REMARK   10  A    between atoms: C_17  and  O_18
REMARK   11  A    between atoms: C_17  and  C_19
REMARK   12  A    between atoms: C_17  and  C_25
REMARK                            x       y       z     vdW  Elec       q    Type
REMARK                         _______ _______ _______ _____ _____    ______ ____
ROOT
ATOM      1  N   UNL     1       6.678   6.790  17.130  0.00  0.00    +0.000 NA
ATOM      2  C   UNL     1       6.284   5.480  17.676  0.00  0.00    +0.000 C 
ATOM      3  C   UNL     1       4.985   4.953  17.080  0.00  0.00    +0.000 C 
ATOM      4  C   UNL     1       3.802   5.917  17.264  0.00  0.00    +0.000 C 
ATOM      5  C   UNL     1       4.254   7.266  16.653  0.00  0.00    +0.000 C 
ATOM      6  C   UNL     1       5.602   7.786  17.166  0.00  0.00    +0.000 C 
ENDROOT
BRANCH   1   7
ATOM      7  C   UNL     1       7.870   7.325  17.834  0.00  0.00    +0.000 C 
BRANCH   7   8
ATOM      8  C   UNL     1       7.986   8.833  17.634  0.00  0.00    +0.000 C 
BRANCH   8   9
ATOM      9  C   UNL     1       8.783   9.524  18.714  0.00  0.00    +0.000 C 
ATOM     10  O   UNL     1       9.113   8.970  19.759  0.00  0.00    +0.000 OA
BRANCH   9  14
ATOM     11  C   UNL     1       9.868  13.668  18.042  0.00  0.00    +0.000 A 
ATOM     12  C   UNL     1       8.677  13.115  17.533  0.00  0.00    +0.000 A 
ATOM     13  C   UNL     1       8.339  11.772  17.744  0.00  0.00    +0.000 A 
ATOM     14  C   UNL     1       9.196  10.935  18.452  0.00  0.00    +0.000 A 
ATOM     15  C   UNL     1      10.412  11.456  18.917  0.00  0.00    +0.000 A 
ATOM     16  C   UNL     1      10.741  12.797  18.708  0.00  0.00    +0.000 A 
BRANCH  11  18
ATOM     17  C   UNL     1       8.906  16.000  17.665  0.00  0.00    +0.000 C 
ATOM     18  C   UNL     1      10.192  15.163  17.864  0.00  0.00    +0.000 C 
ATOM     19  C   UNL     1      11.102  15.341  16.635  0.00  0.00    +0.000 C 
ATOM     20  C   UNL     1      10.913  15.767  19.093  0.00  0.00    +0.000 C 
ENDBRANCH  11  18
ENDBRANCH   9  14
ENDBRANCH   8   9
ENDBRANCH   7   8
ENDBRANCH   1   7
BRANCH   4  21
ATOM     21  C   UNL     1       3.236   6.005  18.744  0.00  0.00    +0.000 C 
BRANCH  21  22
ATOM     22  C   UNL     1       2.444   7.333  18.922  0.00  0.00    +0.000 A 
ATOM     23  C   UNL     1       1.998   7.745  20.195  0.00  0.00    +0.000 A 
ATOM     24  C   UNL     1       1.198   8.880  20.366  0.00  0.00    +0.000 A 
ATOM     25  C   UNL     1       0.797   9.621  19.263  0.00  0.00    +0.000 A 
ATOM     26  C   UNL     1       1.228   9.251  17.995  0.00  0.00    +0.000 A 
ATOM     27  C   UNL     1       2.063   8.140  17.830  0.00  0.00    +0.000 A 
ENDBRANCH  21  22
BRANCH  21  28
ATOM     28  C   UNL     1       2.398   4.760  19.137  0.00  0.00    +0.000 A 
ATOM     29  C   UNL     1       2.428   4.252  20.454  0.00  0.00    +0.000 A 
ATOM     30  C   UNL     1       1.693   3.122  20.828  0.00  0.00    +0.000 A 
ATOM     31  C   UNL     1       0.889   2.478  19.898  0.00  0.00    +0.000 A 
ATOM     32  C   UNL     1       0.844   2.947  18.589  0.00  0.00    +0.000 A 
ATOM     33  C   UNL     1       1.602   4.061  18.210  0.00  0.00    +0.000 A 
ENDBRANCH  21  28
BRANCH  21  34
ATOM     34  O   UNL     1       4.357   6.004  19.641  0.00  0.00    +0.000 OA
ATOM     35  H   UNL     1       4.886   5.218  19.465  0.00  0.00    +0.000 HD
ENDBRANCH  21  34
ENDBRANCH   4  21
TORSDOF 9
ENDMDL
MODEL 7
REMARK VINA RESULT:      -7.8      1.169      1.614
REMARK  Name = 
REMARK  12 active torsions:
REMARK  status: ('A' for Active; 'I' for Inactive)
REMARK    1  A    between atoms: C_1  and  C_2
REMARK    2  A    between atoms: C_2  and  C_3
REMARK    3  A    between atoms: C_2  and  C_4
REMARK    4  A    between atoms: C_2  and  C_5
REMARK    5  A    between atoms: C_8  and  C_9
REMARK    6  A    between atoms: C_9  and  C_11
REMARK    7  A    between atoms: C_11  and  C_12
REMARK    8  A    between atoms: C_12  and  N_13
REMARK    9  A    between atoms: C_16  and  C_17
REMARK   10  A    between atoms: C_17  and  O_18
REMARK   11  A    between atoms: C_17  and  C_19
REMARK   12  A    between atoms: C_17  and  C_25
REMARK                            x       y       z     vdW  Elec       q    Type
REMARK                         _______ _______ _______ _____ _____    ______ ____
ROOT
ATOM      1  N   UNL     1       2.097  14.332  19.635  0.00  0.00    +0.000 NA
ATOM      2  C   UNL     1       0.950  14.337  18.712  0.00  0.00    +0.000 C 
ATOM      3  C   UNL     1      -0.358  13.946  19.387  0.00  0.00    +0.000 C 
ATOM      4  C   UNL     1      -0.301  12.566  20.060  0.00  0.00    +0.000 C 
ATOM      5  C   UNL     1       0.900  12.619  21.037  0.00  0.00    +0.000 C 
ATOM      6  C   UNL     1       2.218  13.093  20.411  0.00  0.00    +0.000 C 
ENDROOT
BRANCH   1   7
ATOM      7  C   UNL     1       3.367  14.584  18.908  0.00  0.00    +0.000 C 
BRANCH   7   8
ATOM      8  C   UNL     1       4.421  15.165  19.846  0.00  0.00    +0.000 C 
BRANCH   8   9
ATOM      9  C   UNL     1       5.641  15.692  19.127  0.00  0.00    +0.000 C 
ATOM     10  O   UNL     1       5.697  16.819  18.644  0.00  0.00    +0.000 OA
BRANCH   9  14
ATOM     11  C   UNL     1       9.001  12.954  18.986  0.00  0.00    +0.000 A 
ATOM     12  C   UNL     1       8.636  13.631  20.166  0.00  0.00    +0.000 A 
ATOM     13  C   UNL     1       7.557  14.523  20.201  0.00  0.00    +0.000 A 
ATOM     14  C   UNL     1       6.824  14.783  19.048  0.00  0.00    +0.000 A 
ATOM     15  C   UNL     1       7.209  14.162  17.851  0.00  0.00    +0.000 A 
ATOM     16  C   UNL     1       8.282  13.269  17.824  0.00  0.00    +0.000 A 
BRANCH  11  18
ATOM     17  C   UNL     1      10.932  11.964  17.648  0.00  0.00    +0.000 C 
ATOM     18  C   UNL     1      10.143  11.922  18.979  0.00  0.00    +0.000 C 
ATOM     19  C   UNL     1       9.554  10.513  19.168  0.00  0.00    +0.000 C 
ATOM     20  C   UNL     1      11.178  12.169  20.102  0.00  0.00    +0.000 C 
ENDBRANCH  11  18
ENDBRANCH   9  14
ENDBRANCH   8   9
ENDBRANCH   7   8
ENDBRANCH   1   7
BRANCH   4  21
ATOM     21  C   UNL     1      -0.300  11.334  19.060  0.00  0.00    +0.000 C 
BRANCH  21  22
ATOM     22  C   UNL     1       0.162  10.051  19.812  0.00  0.00    +0.000 A 
ATOM     23  C   UNL     1      -0.454   9.657  21.018  0.00  0.00    +0.000 A 
ATOM     24  C   UNL     1       0.009   8.569  21.763  0.00  0.00    +0.000 A 
ATOM     25  C   UNL     1       1.123   7.857  21.337  0.00  0.00    +0.000 A 
ATOM     26  C   UNL     1       1.747   8.210  20.146  0.00  0.00    +0.000 A 
ATOM     27  C   UNL     1       1.256   9.273  19.381  0.00  0.00    +0.000 A 
ENDBRANCH  21  22
BRANCH  21  28
ATOM     28  C   UNL     1      -1.666  11.142  18.351  0.00  0.00    +0.000 A 
ATOM     29  C   UNL     1      -1.784  10.307  17.218  0.00  0.00    +0.000 A 
ATOM     30  C   UNL     1      -3.001  10.130  16.552  0.00  0.00    +0.000 A 
ATOM     31  C   UNL     1      -4.144  10.770  17.013  0.00  0.00    +0.000 A 
ATOM     32  C   UNL     1      -4.061  11.607  18.120  0.00  0.00    +0.000 A 
ATOM     33  C   UNL     1      -2.836  11.804  18.768  0.00  0.00    +0.000 A 
ENDBRANCH  21  28
BRANCH  21  34
ATOM     34  O   UNL     1       0.633  11.624  18.010  0.00  0.00    +0.000 OA
ATOM     35  H   UNL     1       1.365  11.001  18.072  0.00  0.00    +0.000 HD
ENDBRANCH  21  34
ENDBRANCH   4  21
TORSDOF 9
ENDMDL
MODEL 8
REMARK VINA RESULT:      -7.7      6.024     10.409
REMARK  Name = 
REMARK  12 active torsions:
REMARK  status: ('A' for Active; 'I' for Inactive)
REMARK    1  A    between atoms: C_1  and  C_2
REMARK    2  A    between atoms: C_2  and  C_3
REMARK    3  A    between atoms: C_2  and  C_4
REMARK    4  A    between atoms: C_2  and  C_5
REMARK    5  A    between atoms: C_8  and  C_9
REMARK    6  A    between atoms: C_9  and  C_11
REMARK    7  A    between atoms: C_11  and  C_12
REMARK    8  A    between atoms: C_12  and  N_13
REMARK    9  A    between atoms: C_16  and  C_17
REMARK   10  A    between atoms: C_17  and  O_18
REMARK   11  A    between atoms: C_17  and  C_19
REMARK   12  A    between atoms: C_17  and  C_25
REMARK                            x       y       z     vdW  Elec       q    Type
REMARK                         _______ _______ _______ _____ _____    ______ ____
ROOT
ATOM      1  N   UNL     1       2.618   4.652  19.228  0.00  0.00    +0.000 NA
ATOM      2  C   UNL     1       2.433   4.469  17.779  0.00  0.00    +0.000 C 
ATOM      3  C   UNL     1       3.454   3.522  17.163  0.00  0.00    +0.000 C 
ATOM      4  C   UNL     1       4.907   3.964  17.402  0.00  0.00    +0.000 C 
ATOM      5  C   UNL     1       5.059   4.116  18.935  0.00  0.00    +0.000 C 
ATOM      6  C   UNL     1       3.994   4.994  19.603  0.00  0.00    +0.000 C 
ENDROOT
BRANCH   1   7
ATOM      7  C   UNL     1       1.691   5.683  19.758  0.00  0.00    +0.000 C 
BRANCH   7   8
ATOM      8  C   UNL     1       2.411   7.015  19.944  0.00  0.00    +0.000 C 
BRANCH   8   9
ATOM      9  C   UNL     1       1.823   8.137  19.121  0.00  0.00    +0.000 C 
ATOM     10  O   UNL     1       1.919   8.188  17.898  0.00  0.00    +0.000 OA
BRANCH   9  14
ATOM     11  C   UNL     1      -0.482  11.166  21.198  0.00  0.00    +0.000 A 
ATOM     12  C   UNL     1      -0.277  11.206  19.805  0.00  0.00    +0.000 A 
ATOM     13  C   UNL     1       0.479  10.230  19.143  0.00  0.00    +0.000 A 
ATOM     14  C   UNL     1       1.074   9.196  19.859  0.00  0.00    +0.000 A 
ATOM     15  C   UNL     1       0.927   9.173  21.254  0.00  0.00    +0.000 A 
ATOM     16  C   UNL     1       0.168  10.146  21.908  0.00  0.00    +0.000 A 
BRANCH  11  18
ATOM     17  C   UNL     1      -2.536  12.661  20.989  0.00  0.00    +0.000 C 
ATOM     18  C   UNL     1      -1.374  12.203  21.903  0.00  0.00    +0.000 C 
ATOM     19  C   UNL     1      -0.523  13.428  22.284  0.00  0.00    +0.000 C 
ATOM     20  C   UNL     1      -2.030  11.650  23.190  0.00  0.00    +0.000 C 
ENDBRANCH  11  18
ENDBRANCH   9  14
ENDBRANCH   8   9
ENDBRANCH   7   8
ENDBRANCH   1   7
BRANCH   4  21
ATOM     21  C   UNL     1       5.371   5.222  16.552  0.00  0.00    +0.000 C 
BRANCH  21  22
ATOM     22  C   UNL     1       6.403   6.052  17.370  0.00  0.00    +0.000 A 
ATOM     23  C   UNL     1       6.585   7.429  17.121  0.00  0.00    +0.000 A 
ATOM     24  C   UNL     1       7.575   8.172  17.771  0.00  0.00    +0.000 A 
ATOM     25  C   UNL     1       8.433   7.553  18.670  0.00  0.00    +0.000 A 
ATOM     26  C   UNL     1       8.274   6.201  18.948  0.00  0.00    +0.000 A 
ATOM     27  C   UNL     1       7.256   5.468  18.329  0.00  0.00    +0.000 A 
ENDBRANCH  21  22
BRANCH  21  28
ATOM     28  C   UNL     1       5.908   4.829  15.151  0.00  0.00    +0.000 A 
ATOM     29  C   UNL     1       5.138   4.026  14.279  0.00  0.00    +0.000 A 
ATOM     30  C   UNL     1       5.606   3.646  13.017  0.00  0.00    +0.000 A 
ATOM     31  C   UNL     1       6.852   4.075  12.581  0.00  0.00    +0.000 A 
ATOM     32  C   UNL     1       7.639   4.858  13.418  0.00  0.00    +0.000 A 
ATOM     33  C   UNL     1       7.181   5.214  14.691  0.00  0.00    +0.000 A 
ENDBRANCH  21  28
BRANCH  21  34
ATOM     34  O   UNL     1       4.213   6.030  16.300  0.00  0.00    +0.000 OA
ATOM     35  H   UNL     1       3.814   5.741  15.472  0.00  0.00    +0.000 HD
ENDBRANCH  21  34
ENDBRANCH   4  21
TORSDOF 9
ENDMDL
MODEL 9
REMARK VINA RESULT:      -7.7      5.093      9.436
REMARK  Name = 
REMARK  12 active torsions:
REMARK  status: ('A' for Active; 'I' for Inactive)
REMARK    1  A    between atoms: C_1  and  C_2
REMARK    2  A    between atoms: C_2  and  C_3
REMARK    3  A    between atoms: C_2  and  C_4
REMARK    4  A    between atoms: C_2  and  C_5
REMARK    5  A    between atoms: C_8  and  C_9
REMARK    6  A    between atoms: C_9  and  C_11
REMARK    7  A    between atoms: C_11  and  C_12
REMARK    8  A    between atoms: C_12  and  N_13
REMARK    9  A    between atoms: C_16  and  C_17
REMARK   10  A    between atoms: C_17  and  O_18
REMARK   11  A    between atoms: C_17  and  C_19
REMARK   12  A    between atoms: C_17  and  C_25
REMARK                            x       y       z     vdW  Elec       q    Type
REMARK                         _______ _______ _______ _____ _____    ______ ____
ROOT
ATOM      1  N   UNL     1       1.078  14.952  20.753  0.00  0.00    +0.000 NA
ATOM      2  C   UNL     1       1.299  13.542  21.114  0.00  0.00    +0.000 C 
ATOM      3  C   UNL     1       1.324  12.616  19.905  0.00  0.00    +0.000 C 
ATOM      4  C   UNL     1       0.042  12.691  19.060  0.00  0.00    +0.000 C 
ATOM      5  C   UNL     1      -0.131  14.184  18.685  0.00  0.00    +0.000 C 
ATOM      6  C   UNL     1      -0.075  15.156  19.869  0.00  0.00    +0.000 C 
ENDROOT
BRANCH   1   7
ATOM      7  C   UNL     1       0.925  15.795  21.965  0.00  0.00    +0.000 C 
BRANCH   7   8
ATOM      8  C   UNL     1      -0.544  16.118  22.219  0.00  0.00    +0.000 C 
BRANCH   8   9
ATOM      9  C   UNL     1      -1.132  15.365  23.389  0.00  0.00    +0.000 C 
ATOM     10  O   UNL     1      -0.530  15.198  24.446  0.00  0.00    +0.000 OA
BRANCH   9  14
ATOM     11  C   UNL     1      -5.135  13.817  22.774  0.00  0.00    +0.000 A 
ATOM     12  C   UNL     1      -4.694  15.010  22.170  0.00  0.00    +0.000 A 
ATOM     13  C   UNL     1      -3.403  15.511  22.383  0.00  0.00    +0.000 A 
ATOM     14  C   UNL     1      -2.521  14.843  23.228  0.00  0.00    +0.000 A 
ATOM     15  C   UNL     1      -2.964  13.684  23.881  0.00  0.00    +0.000 A 
ATOM     16  C   UNL     1      -4.250  13.187  23.661  0.00  0.00    +0.000 A 
BRANCH  11  18
ATOM     17  C   UNL     1      -7.119  12.516  23.709  0.00  0.00    +0.000 C 
ATOM     18  C   UNL     1      -6.531  13.240  22.474  0.00  0.00    +0.000 C 
ATOM     19  C   UNL     1      -6.426  12.239  21.309  0.00  0.00    +0.000 C 
ATOM     20  C   UNL     1      -7.557  14.331  22.085  0.00  0.00    +0.000 C 
ENDBRANCH  11  18
ENDBRANCH   9  14
ENDBRANCH   8   9
ENDBRANCH   7   8
ENDBRANCH   1   7
BRANCH   4  21
ATOM     21  C   UNL     1      -1.232  12.010  19.716  0.00  0.00    +0.000 C 
BRANCH  21  22
ATOM     22  C   UNL     1      -2.110  11.365  18.605  0.00  0.00    +0.000 A 
ATOM     23  C   UNL     1      -1.536  10.539  17.616  0.00  0.00    +0.000 A 
ATOM     24  C   UNL     1      -2.285  10.032  16.550  0.00  0.00    +0.000 A 
ATOM     25  C   UNL     1      -3.629  10.360  16.426  0.00  0.00    +0.000 A 
ATOM     26  C   UNL     1      -4.230  11.161  17.389  0.00  0.00    +0.000 A 
ATOM     27  C   UNL     1      -3.489  11.633  18.478  0.00  0.00    +0.000 A 
ENDBRANCH  21  22
BRANCH  21  28
ATOM     28  C   UNL     1      -0.859  11.001  20.834  0.00  0.00    +0.000 A 
ATOM     29  C   UNL     1      -0.260   9.761  20.520  0.00  0.00    +0.000 A 
ATOM     30  C   UNL     1       0.072   8.828  21.508  0.00  0.00    +0.000 A 
ATOM     31  C   UNL     1      -0.168   9.118  22.844  0.00  0.00    +0.000 A 
ATOM     32  C   UNL     1      -0.765  10.326  23.187  0.00  0.00    +0.000 A 
ATOM     33  C   UNL     1      -1.122  11.246  22.195  0.00  0.00    +0.000 A 
ENDBRANCH  21  28
BRANCH  21  34
ATOM     34  O   UNL     1      -1.987  13.038  20.373  0.00  0.00    +0.000 OA
ATOM     35  H   UNL     1      -2.569  13.450  19.726  0.00  0.00    +0.000 HD
ENDBRANCH  21  34
ENDBRANCH   4  21
TORSDOF 9
ENDMDL
