MODEL 1
REMARK VINA RESULT:      -8.1      0.000      0.000
REMARK  Name = 
REMARK  7 active torsions:
REMARK  status: ('A' for Active; 'I' for Inactive)
REMARK    1  A    between atoms: C_1  and  C_2
REMARK    2  A    between atoms: C_2  and  O_3
REMARK    3  A    between atoms: O_3  and  C_4
REMARK    4  A    between atoms: C_4  and  C_6
REMARK    5  A    between atoms: C_7  and  C_8
REMARK    6  A    between atoms: C_8  and  C_9
REMARK    7  A    between atoms: C_21  and  O_22
REMARK                            x       y       z     vdW  Elec       q    Type
REMARK                         _______ _______ _______ _____ _____    ______ ____
ROOT
ATOM      1  C   UNL     1       0.519  10.522  19.715  0.00  0.00    +0.000 A 
ATOM      2  C   UNL     1       1.080   9.666  18.768  0.00  0.00    +0.000 A 
ATOM      3  N   UNL     1       0.191   9.582  17.714  0.00  0.00    +0.000 N 
ATOM      4  C   UNL     1      -0.954  10.312  17.957  0.00  0.00    +0.000 A 
ATOM      5  C   UNL     1      -0.779  10.892  19.213  0.00  0.00    +0.000 A 
ATOM      6  C   UNL     1      -1.813  11.700  19.730  0.00  0.00    +0.000 A 
ATOM      7  C   UNL     1      -2.973  11.911  18.984  0.00  0.00    +0.000 A 
ATOM      8  C   UNL     1      -3.145  11.343  17.713  0.00  0.00    +0.000 A 
ATOM      9  C   UNL     1      -4.311  11.566  16.956  0.00  0.00    +0.000 A 
ATOM     10  C   UNL     1      -4.472  10.998  15.693  0.00  0.00    +0.000 A 
ATOM     11  C   UNL     1      -3.469  10.187  15.164  0.00  0.00    +0.000 A 
ATOM     12  C   UNL     1      -2.301   9.942  15.895  0.00  0.00    +0.000 A 
ATOM     13  C   UNL     1      -2.128  10.518  17.173  0.00  0.00    +0.000 A 
ATOM     14  H   UNL     1       0.345   9.040  16.873  0.00  0.00    +0.000 HD
ENDROOT
BRANCH   1  15
ATOM     15  C   UNL     1       1.096  11.004  20.974  0.00  0.00    +0.000 C 
ATOM     16  O   UNL     1       1.527  12.144  21.120  0.00  0.00    +0.000 OA
BRANCH  15  17
ATOM     17  O   UNL     1       1.198  10.037  21.930  0.00  0.00    +0.000 OA
BRANCH  17  19
ATOM     18  C   UNL     1      -0.857  10.533  23.142  0.00  0.00    +0.000 C 
ATOM     19  C   UNL     1      -0.040   9.491  22.406  0.00  0.00    +0.000 C 
ENDBRANCH  17  19
ENDBRANCH  15  17
ENDBRANCH   1  15
BRANCH   7  20
ATOM     20  O   UNL     1      -3.961  12.706  19.509  0.00  0.00    +0.000 OA
ATOM     21  H   UNL     1      -3.671  13.632  19.458  0.00  0.00    +0.000 HD
ENDBRANCH   7  20
BRANCH   2  22
ATOM     22  C   UNL     1       2.370   8.890  18.747  0.00  0.00    +0.000 C 
BRANCH  22  23
ATOM     23  C   UNL     1       2.142   7.429  19.077  0.00  0.00    +0.000 A 
ATOM     24  C   UNL     1       1.757   7.052  20.371  0.00  0.00    +0.000 A 
ATOM     25  C   UNL     1       1.698   5.705  20.732  0.00  0.00    +0.000 A 
ATOM     26  C   UNL     1       2.007   4.714  19.800  0.00  0.00    +0.000 A 
ATOM     27 CL   UNL     1       1.996   3.074  20.341  0.00  0.00    +0.000 Cl
ATOM     28  C   UNL     1       2.330   5.073  18.487  0.00  0.00    +0.000 A 
ATOM     29 CL   UNL     1       2.692   3.900  17.271  0.00  0.00    +0.000 Cl
ATOM     30  C   UNL     1       2.391   6.425  18.129  0.00  0.00    +0.000 A 
ENDBRANCH  22  23
ENDBRANCH   2  22
TORSDOF 6
ENDMDL
MODEL 2
REMARK VINA RESULT:      -8.1      3.194      7.025
REMARK  Name = 
REMARK  7 active torsions:
REMARK  status: ('A' for Active; 'I' for Inactive)
REMARK    1  A    between atoms: C_1  and  C_2
REMARK    2  A    between atoms: C_2  and  O_3
REMARK    3  A    between atoms: O_3  and  C_4
REMARK    4  A    between atoms: C_4  and  C_6
REMARK    5  A    between atoms: C_7  and  C_8
REMARK    6  A    between atoms: C_8  and  C_9
REMARK    7  A    between atoms: C_21  and  O_22
REMARK                            x       y       z     vdW  Elec       q    Type
REMARK                         _______ _______ _______ _____ _____    ______ ____
ROOT
ATOM      1  C   UNL     1       1.767   7.796  20.145  0.00  0.00    +0.000 A 
ATOM      2  C   UNL     1       2.046   8.184  18.835  0.00  0.00    +0.000 A 
ATOM      3  N   UNL     1       2.366   7.042  18.127  0.00  0.00    +0.000 N 
ATOM      4  C   UNL     1       2.353   5.924  18.937  0.00  0.00    +0.000 A 
ATOM      5  C   UNL     1       2.001   6.376  20.209  0.00  0.00    +0.000 A 
ATOM      6  C   UNL     1       1.917   5.436  21.256  0.00  0.00    +0.000 A 
ATOM      7  C   UNL     1       2.174   4.088  21.006  0.00  0.00    +0.000 A 
ATOM      8  C   UNL     1       2.512   3.627  19.725  0.00  0.00    +0.000 A 
ATOM      9  C   UNL     1       2.760   2.265  19.471  0.00  0.00    +0.000 A 
ATOM     10  C   UNL     1       3.093   1.817  18.194  0.00  0.00    +0.000 A 
ATOM     11  C   UNL     1       3.193   2.728  17.144  0.00  0.00    +0.000 A 
ATOM     12  C   UNL     1       2.958   4.089  17.365  0.00  0.00    +0.000 A 
ATOM     13  C   UNL     1       2.614   4.550  18.656  0.00  0.00    +0.000 A 
ATOM     14  H   UNL     1       2.599   7.020  17.143  0.00  0.00    +0.000 HD
ENDROOT
BRANCH   1  15
ATOM     15  C   UNL     1       1.299   8.616  21.267  0.00  0.00    +0.000 C 
ATOM     16  O   UNL     1       2.050   9.068  22.125  0.00  0.00    +0.000 OA
BRANCH  15  17
ATOM     17  O   UNL     1      -0.058   8.742  21.318  0.00  0.00    +0.000 OA
BRANCH  17  19
ATOM     18  C   UNL     1      -0.886  10.538  22.739  0.00  0.00    +0.000 C 
ATOM     19  C   UNL     1      -0.612   9.055  22.602  0.00  0.00    +0.000 C 
ENDBRANCH  17  19
ENDBRANCH  15  17
ENDBRANCH   1  15
BRANCH   7  20
ATOM     20  O   UNL     1       2.080   3.194  22.044  0.00  0.00    +0.000 OA
ATOM     21  H   UNL     1       2.064   3.691  22.879  0.00  0.00    +0.000 HD
ENDBRANCH   7  20
BRANCH   2  22
ATOM     22  C   UNL     1       2.066   9.532  18.165  0.00  0.00    +0.000 C 
BRANCH  22  23
ATOM     23  C   UNL     1       0.761  10.273  18.372  0.00  0.00    +0.000 A 
ATOM     24  C   UNL     1       0.736  11.461  19.114  0.00  0.00    +0.000 A 
ATOM     25  C   UNL     1      -0.476  12.067  19.448  0.00  0.00    +0.000 A 
ATOM     26  C   UNL     1      -1.683  11.503  19.029  0.00  0.00    +0.000 A 
ATOM     27 CL   UNL     1      -3.145  12.259  19.551  0.00  0.00    +0.000 Cl
ATOM     28  C   UNL     1      -1.671  10.353  18.233  0.00  0.00    +0.000 A 
ATOM     29 CL   UNL     1      -3.122   9.617  17.650  0.00  0.00    +0.000 Cl
ATOM     30  C   UNL     1      -0.453   9.746  17.902  0.00  0.00    +0.000 A 
ENDBRANCH  22  23
ENDBRANCH   2  22
TORSDOF 6
ENDMDL
MODEL 3
REMARK VINA RESULT:      -8.0      3.498      7.195
REMARK  Name = 
REMARK  7 active torsions:
REMARK  status: ('A' for Active; 'I' for Inactive)
REMARK    1  A    between atoms: C_1  and  C_2
REMARK    2  A    between atoms: C_2  and  O_3
REMARK    3  A    between atoms: O_3  and  C_4
REMARK    4  A    between atoms: C_4  and  C_6
REMARK    5  A    between atoms: C_7  and  C_8
REMARK    6  A    between atoms: C_8  and  C_9
REMARK    7  A    between atoms: C_21  and  O_22
REMARK                            x       y       z     vdW  Elec       q    Type
REMARK                         _______ _______ _______ _____ _____    ______ ____
ROOT
ATOM      1  C   UNL     1       1.207   8.233  20.236  0.00  0.00    +0.000 A 
ATOM      2  C   UNL     1       1.525   9.125  19.212  0.00  0.00    +0.000 A 
ATOM      3  N   UNL     1       2.357   8.461  18.333  0.00  0.00    +0.000 N 
ATOM      4  C   UNL     1       2.636   7.182  18.767  0.00  0.00    +0.000 A 
ATOM      5  C   UNL     1       1.944   7.025  19.968  0.00  0.00    +0.000 A 
ATOM      6  C   UNL     1       2.052   5.797  20.651  0.00  0.00    +0.000 A 
ATOM      7  C   UNL     1       2.833   4.769  20.120  0.00  0.00    +0.000 A 
ATOM      8  C   UNL     1       3.518   4.917  18.905  0.00  0.00    +0.000 A 
ATOM      9  C   UNL     1       4.296   3.876  18.363  0.00  0.00    +0.000 A 
ATOM     10  C   UNL     1       4.972   4.033  17.154  0.00  0.00    +0.000 A 
ATOM     11  C   UNL     1       4.888   5.241  16.465  0.00  0.00    +0.000 A 
ATOM     12  C   UNL     1       4.128   6.297  16.979  0.00  0.00    +0.000 A 
ATOM     13  C   UNL     1       3.435   6.144  18.202  0.00  0.00    +0.000 A 
ATOM     14  H   UNL     1       2.735   8.861  17.483  0.00  0.00    +0.000 HD
ENDROOT
BRANCH   1  15
ATOM     15  C   UNL     1       0.294   8.421  21.368  0.00  0.00    +0.000 C 
ATOM     16  O   UNL     1      -0.789   7.851  21.457  0.00  0.00    +0.000 OA
BRANCH  15  17
ATOM     17  O   UNL     1       0.720   9.362  22.257  0.00  0.00    +0.000 OA
BRANCH  17  19
ATOM     18  C   UNL     1      -1.039  10.863  23.026  0.00  0.00    +0.000 C 
ATOM     19  C   UNL     1      -0.176   9.657  23.337  0.00  0.00    +0.000 C 
ENDBRANCH  17  19
ENDBRANCH  15  17
ENDBRANCH   1  15
BRANCH   7  20
ATOM     20  O   UNL     1       2.918   3.582  20.804  0.00  0.00    +0.000 OA
ATOM     21  H   UNL     1       2.085   3.444  21.286  0.00  0.00    +0.000 HD
ENDBRANCH   7  20
BRANCH   2  22
ATOM     22  C   UNL     1       1.144  10.562  18.971  0.00  0.00    +0.000 C 
BRANCH  22  23
ATOM     23  C   UNL     1      -0.346  10.707  18.735  0.00  0.00    +0.000 A 
ATOM     24  C   UNL     1      -0.960  10.028  17.674  0.00  0.00    +0.000 A 
ATOM     25  C   UNL     1      -2.294  10.275  17.348  0.00  0.00    +0.000 A 
ATOM     26  C   UNL     1      -3.041  11.192  18.089  0.00  0.00    +0.000 A 
ATOM     27 CL   UNL     1      -4.658  11.510  17.575  0.00  0.00    +0.000 Cl
ATOM     28  C   UNL     1      -2.461  11.829  19.191  0.00  0.00    +0.000 A 
ATOM     29 CL   UNL     1      -3.332  12.951  20.175  0.00  0.00    +0.000 Cl
ATOM     30  C   UNL     1      -1.121  11.581  19.514  0.00  0.00    +0.000 A 
ENDBRANCH  22  23
ENDBRANCH   2  22
TORSDOF 6
ENDMDL
MODEL 4
REMARK VINA RESULT:      -7.8      3.083      6.837
REMARK  Name = 
REMARK  7 active torsions:
REMARK  status: ('A' for Active; 'I' for Inactive)
REMARK    1  A    between atoms: C_1  and  C_2
REMARK    2  A    between atoms: C_2  and  O_3
REMARK    3  A    between atoms: O_3  and  C_4
REMARK    4  A    between atoms: C_4  and  C_6
REMARK    5  A    between atoms: C_7  and  C_8
REMARK    6  A    between atoms: C_8  and  C_9
REMARK    7  A    between atoms: C_21  and  O_22
REMARK                            x       y       z     vdW  Elec       q    Type
REMARK                         _______ _______ _______ _____ _____    ______ ____
ROOT
ATOM      1  C   UNL     1       1.046   8.587  20.312  0.00  0.00    +0.000 A 
ATOM      2  C   UNL     1       1.380   9.514  19.325  0.00  0.00    +0.000 A 
ATOM      3  N   UNL     1       2.229   8.881  18.438  0.00  0.00    +0.000 N 
ATOM      4  C   UNL     1       2.502   7.587  18.834  0.00  0.00    +0.000 A 
ATOM      5  C   UNL     1       1.789   7.390  20.016  0.00  0.00    +0.000 A 
ATOM      6  C   UNL     1       1.887   6.139  20.660  0.00  0.00    +0.000 A 
ATOM      7  C   UNL     1       2.679   5.131  20.107  0.00  0.00    +0.000 A 
ATOM      8  C   UNL     1       3.385   5.320  18.911  0.00  0.00    +0.000 A 
ATOM      9  C   UNL     1       4.173   4.299  18.348  0.00  0.00    +0.000 A 
ATOM     10  C   UNL     1       4.870   4.497  17.157  0.00  0.00    +0.000 A 
ATOM     11  C   UNL     1       4.797   5.728  16.507  0.00  0.00    +0.000 A 
ATOM     12  C   UNL     1       4.026   6.765  17.044  0.00  0.00    +0.000 A 
ATOM     13  C   UNL     1       3.312   6.570  18.248  0.00  0.00    +0.000 A 
ATOM     14  H   UNL     1       2.621   9.310  17.609  0.00  0.00    +0.000 HD
ENDROOT
BRANCH   1  15
ATOM     15  C   UNL     1       0.113   8.735  21.433  0.00  0.00    +0.000 C 
ATOM     16  O   UNL     1      -0.851   7.997  21.606  0.00  0.00    +0.000 OA
BRANCH  15  17
ATOM     17  O   UNL     1       0.363   9.831  22.206  0.00  0.00    +0.000 OA
BRANCH  17  19
ATOM     18  C   UNL     1      -1.196  11.544  22.962  0.00  0.00    +0.000 C 
ATOM     19  C   UNL     1      -0.636  10.154  23.182  0.00  0.00    +0.000 C 
ENDBRANCH  17  19
ENDBRANCH  15  17
ENDBRANCH   1  15
BRANCH   7  20
ATOM     20  O   UNL     1       2.753   3.921  20.753  0.00  0.00    +0.000 OA
ATOM     21  H   UNL     1       3.425   3.986  21.452  0.00  0.00    +0.000 HD
ENDBRANCH   7  20
BRANCH   2  22
ATOM     22  C   UNL     1       1.002  10.958  19.126  0.00  0.00    +0.000 C 
BRANCH  22  23
ATOM     23  C   UNL     1      -0.443  11.095  18.691  0.00  0.00    +0.000 A 
ATOM     24  C   UNL     1      -1.329  11.889  19.434  0.00  0.00    +0.000 A 
ATOM     25  C   UNL     1      -2.693  11.899  19.139  0.00  0.00    +0.000 A 
ATOM     26  C   UNL     1      -3.191  11.129  18.087  0.00  0.00    +0.000 A 
ATOM     27 CL   UNL     1      -4.899  11.123  17.836  0.00  0.00    +0.000 Cl
ATOM     28  C   UNL     1      -2.310  10.383  17.297  0.00  0.00    +0.000 A 
ATOM     29 CL   UNL     1      -2.848   9.432  15.958  0.00  0.00    +0.000 Cl
ATOM     30  C   UNL     1      -0.942  10.373  17.596  0.00  0.00    +0.000 A 
ENDBRANCH  22  23
ENDBRANCH   2  22
TORSDOF 6
ENDMDL
MODEL 5
REMARK VINA RESULT:      -7.6      3.423      7.216
REMARK  Name = 
REMARK  7 active torsions:
REMARK  status: ('A' for Active; 'I' for Inactive)
REMARK    1  A    between atoms: C_1  and  C_2
REMARK    2  A    between atoms: C_2  and  O_3
REMARK    3  A    between atoms: O_3  and  C_4
REMARK    4  A    between atoms: C_4  and  C_6
REMARK    5  A    between atoms: C_7  and  C_8
REMARK    6  A    between atoms: C_8  and  C_9
REMARK    7  A    between atoms: C_21  and  O_22
REMARK                            x       y       z     vdW  Elec       q    Type
REMARK                         _______ _______ _______ _____ _____    ______ ____
ROOT
ATOM      1  C   UNL     1       1.668   7.780  20.289  0.00  0.00    +0.000 A 
ATOM      2  C   UNL     1       1.854   8.223  18.979  0.00  0.00    +0.000 A 
ATOM      3  N   UNL     1       2.201   7.123  18.220  0.00  0.00    +0.000 N 
ATOM      4  C   UNL     1       2.296   5.983  18.992  0.00  0.00    +0.000 A 
ATOM      5  C   UNL     1       1.987   6.375  20.294  0.00  0.00    +0.000 A 
ATOM      6  C   UNL     1       2.014   5.402  21.314  0.00  0.00    +0.000 A 
ATOM      7  C   UNL     1       2.335   4.079  21.007  0.00  0.00    +0.000 A 
ATOM      8  C   UNL     1       2.631   3.678  19.696  0.00  0.00    +0.000 A 
ATOM      9  C   UNL     1       2.943   2.340  19.385  0.00  0.00    +0.000 A 
ATOM     10  C   UNL     1       3.234   1.951  18.079  0.00  0.00    +0.000 A 
ATOM     11  C   UNL     1       3.224   2.897  17.055  0.00  0.00    +0.000 A 
ATOM     12  C   UNL     1       2.923   4.234  17.332  0.00  0.00    +0.000 A 
ATOM     13  C   UNL     1       2.622   4.636  18.653  0.00  0.00    +0.000 A 
ATOM     14  H   UNL     1       2.382   7.144  17.224  0.00  0.00    +0.000 HD
ENDROOT
BRANCH   1  15
ATOM     15  C   UNL     1       1.214   8.537  21.459  0.00  0.00    +0.000 C 
ATOM     16  O   UNL     1       1.979   8.975  22.313  0.00  0.00    +0.000 OA
BRANCH  15  17
ATOM     17  O   UNL     1      -0.143   8.619  21.559  0.00  0.00    +0.000 OA
BRANCH  17  19
ATOM     18  C   UNL     1      -0.769  10.739  22.585  0.00  0.00    +0.000 C 
ATOM     19  C   UNL     1      -0.650   9.238  22.749  0.00  0.00    +0.000 C 
ENDBRANCH  17  19
ENDBRANCH  15  17
ENDBRANCH   1  15
BRANCH   7  20
ATOM     20  O   UNL     1       2.349   3.151  22.018  0.00  0.00    +0.000 OA
ATOM     21  H   UNL     1       2.506   2.274  21.630  0.00  0.00    +0.000 HD
ENDBRANCH   7  20
BRANCH   2  22
ATOM     22  C   UNL     1       1.760   9.589  18.353  0.00  0.00    +0.000 C 
BRANCH  22  23
ATOM     23  C   UNL     1       0.334  10.100  18.354  0.00  0.00    +0.000 A 
ATOM     24  C   UNL     1      -0.638   9.476  17.560  0.00  0.00    +0.000 A 
ATOM     25  C   UNL     1      -1.912  10.030  17.427  0.00  0.00    +0.000 A 
ATOM     26  C   UNL     1      -2.240  11.208  18.101  0.00  0.00    +0.000 A 
ATOM     27 CL   UNL     1      -3.805  11.882  17.821  0.00  0.00    +0.000 Cl
ATOM     28  C   UNL     1      -1.302  11.807  18.948  0.00  0.00    +0.000 A 
ATOM     29 CL   UNL     1      -1.647  13.246  19.840  0.00  0.00    +0.000 Cl
ATOM     30  C   UNL     1      -0.023  11.249  19.077  0.00  0.00    +0.000 A 
ENDBRANCH  22  23
ENDBRANCH   2  22
TORSDOF 6
ENDMDL
MODEL 6
REMARK VINA RESULT:      -7.5      0.808      1.435
REMARK  Name = 
REMARK  7 active torsions:
REMARK  status: ('A' for Active; 'I' for Inactive)
REMARK    1  A    between atoms: C_1  and  C_2
REMARK    2  A    between atoms: C_2  and  O_3
REMARK    3  A    between atoms: O_3  and  C_4
REMARK    4  A    between atoms: C_4  and  C_6
REMARK    5  A    between atoms: C_7  and  C_8
REMARK    6  A    between atoms: C_8  and  C_9
REMARK    7  A    between atoms: C_21  and  O_22
REMARK                            x       y       z     vdW  Elec       q    Type
REMARK                         _______ _______ _______ _____ _____    ______ ____
ROOT
ATOM      1  C   UNL     1       0.508  10.543  19.646  0.00  0.00    +0.000 A 
ATOM      2  C   UNL     1       1.054   9.710  18.669  0.00  0.00    +0.000 A 
ATOM      3  N   UNL     1       0.143   9.641  17.634  0.00  0.00    +0.000 N 
ATOM      4  C   UNL     1      -1.001  10.358  17.916  0.00  0.00    +0.000 A 
ATOM      5  C   UNL     1      -0.803  10.913  19.180  0.00  0.00    +0.000 A 
ATOM      6  C   UNL     1      -1.830  11.704  19.736  0.00  0.00    +0.000 A 
ATOM      7  C   UNL     1      -3.008  11.922  19.019  0.00  0.00    +0.000 A 
ATOM      8  C   UNL     1      -3.204  11.378  17.742  0.00  0.00    +0.000 A 
ATOM      9  C   UNL     1      -4.388  11.608  17.014  0.00  0.00    +0.000 A 
ATOM     10  C   UNL     1      -4.573  11.065  15.744  0.00  0.00    +0.000 A 
ATOM     11  C   UNL     1      -3.576  10.271  15.178  0.00  0.00    +0.000 A 
ATOM     12  C   UNL     1      -2.391  10.020  15.877  0.00  0.00    +0.000 A 
ATOM     13  C   UNL     1      -2.194  10.572  17.163  0.00  0.00    +0.000 A 
ATOM     14  H   UNL     1       0.281   9.117  16.779  0.00  0.00    +0.000 HD
ENDROOT
BRANCH   1  15
ATOM     15  C   UNL     1       1.110  11.004  20.901  0.00  0.00    +0.000 C 
ATOM     16  O   UNL     1       0.897  10.468  21.984  0.00  0.00    +0.000 OA
BRANCH  15  17
ATOM     17  O   UNL     1       1.846  12.144  20.762  0.00  0.00    +0.000 OA
BRANCH  17  19
ATOM     18  C   UNL     1       1.087  14.242  19.785  0.00  0.00    +0.000 C 
ATOM     19  C   UNL     1       1.156  13.373  21.024  0.00  0.00    +0.000 C 
ENDBRANCH  17  19
ENDBRANCH  15  17
ENDBRANCH   1  15
BRANCH   7  20
ATOM     20  O   UNL     1      -3.989  12.699  19.582  0.00  0.00    +0.000 OA
ATOM     21  H   UNL     1      -3.691  12.983  20.463  0.00  0.00    +0.000 HD
ENDBRANCH   7  20
BRANCH   2  22
ATOM     22  C   UNL     1       2.348   8.944  18.605  0.00  0.00    +0.000 C 
BRANCH  22  23
ATOM     23  C   UNL     1       2.154   7.495  19.004  0.00  0.00    +0.000 A 
ATOM     24  C   UNL     1       1.815   7.168  20.324  0.00  0.00    +0.000 A 
ATOM     25  C   UNL     1       1.789   5.837  20.743  0.00  0.00    +0.000 A 
ATOM     26  C   UNL     1       2.084   4.811  19.844  0.00  0.00    +0.000 A 
ATOM     27 CL   UNL     1       2.116   3.196  20.454  0.00  0.00    +0.000 Cl
ATOM     28  C   UNL     1       2.360   5.118  18.508  0.00  0.00    +0.000 A 
ATOM     29 CL   UNL     1       2.701   3.900  17.331  0.00  0.00    +0.000 Cl
ATOM     30  C   UNL     1       2.388   6.455  18.091  0.00  0.00    +0.000 A 
ENDBRANCH  22  23
ENDBRANCH   2  22
TORSDOF 6
ENDMDL
MODEL 7
REMARK VINA RESULT:      -7.3      3.674      5.324
REMARK  Name = 
REMARK  7 active torsions:
REMARK  status: ('A' for Active; 'I' for Inactive)
REMARK    1  A    between atoms: C_1  and  C_2
REMARK    2  A    between atoms: C_2  and  O_3
REMARK    3  A    between atoms: O_3  and  C_4
REMARK    4  A    between atoms: C_4  and  C_6
REMARK    5  A    between atoms: C_7  and  C_8
REMARK    6  A    between atoms: C_8  and  C_9
REMARK    7  A    between atoms: C_21  and  O_22
REMARK                            x       y       z     vdW  Elec       q    Type
REMARK                         _______ _______ _______ _____ _____    ______ ____
ROOT
ATOM      1  C   UNL     1       1.642   6.663  20.078  0.00  0.00    +0.000 A 
ATOM      2  C   UNL     1       2.144   7.052  18.836  0.00  0.00    +0.000 A 
ATOM      3  N   UNL     1       1.954   8.416  18.726  0.00  0.00    +0.000 N 
ATOM      4  C   UNL     1       1.302   8.928  19.829  0.00  0.00    +0.000 A 
ATOM      5  C   UNL     1       1.078   7.844  20.679  0.00  0.00    +0.000 A 
ATOM      6  C   UNL     1       0.411   8.074  21.899  0.00  0.00    +0.000 A 
ATOM      7  C   UNL     1      -0.001   9.364  22.237  0.00  0.00    +0.000 A 
ATOM      8  C   UNL     1       0.237  10.458  21.393  0.00  0.00    +0.000 A 
ATOM      9  C   UNL     1      -0.168  11.761  21.740  0.00  0.00    +0.000 A 
ATOM     10  C   UNL     1       0.074  12.843  20.894  0.00  0.00    +0.000 A 
ATOM     11  C   UNL     1       0.723  12.640  19.677  0.00  0.00    +0.000 A 
ATOM     12  C   UNL     1       1.133  11.356  19.302  0.00  0.00    +0.000 A 
ATOM     13  C   UNL     1       0.896  10.255  20.155  0.00  0.00    +0.000 A 
ATOM     14  H   UNL     1       2.237   8.974  17.931  0.00  0.00    +0.000 HD
ENDROOT
BRANCH   1  15
ATOM     15  C   UNL     1       1.676   5.340  20.709  0.00  0.00    +0.000 C 
ATOM     16  O   UNL     1       2.535   5.005  21.518  0.00  0.00    +0.000 OA
BRANCH  15  17
ATOM     17  O   UNL     1       0.721   4.489  20.236  0.00  0.00    +0.000 OA
BRANCH  17  19
ATOM     18  C   UNL     1       0.928   2.536  18.794  0.00  0.00    +0.000 C 
ATOM     19  C   UNL     1       1.083   3.102  20.191  0.00  0.00    +0.000 C 
ENDBRANCH  17  19
ENDBRANCH  15  17
ENDBRANCH   1  15
BRANCH   7  20
ATOM     20  O   UNL     1      -0.644   9.560  23.434  0.00  0.00    +0.000 OA
ATOM     21  H   UNL     1      -1.180  10.368  23.367  0.00  0.00    +0.000 HD
ENDBRANCH   7  20
BRANCH   2  22
ATOM     22  C   UNL     1       2.775   6.272  17.714  0.00  0.00    +0.000 C 
BRANCH  22  23
ATOM     23  C   UNL     1       4.239   5.992  17.990  0.00  0.00    +0.000 A 
ATOM     24  C   UNL     1       4.608   4.894  18.780  0.00  0.00    +0.000 A 
ATOM     25  C   UNL     1       5.935   4.715  19.174  0.00  0.00    +0.000 A 
ATOM     26  C   UNL     1       6.916   5.622  18.770  0.00  0.00    +0.000 A 
ATOM     27 CL   UNL     1       8.520   5.386  19.366  0.00  0.00    +0.000 Cl
ATOM     28  C   UNL     1       6.574   6.686  17.929  0.00  0.00    +0.000 A 
ATOM     29 CL   UNL     1       7.739   7.828  17.361  0.00  0.00    +0.000 Cl
ATOM     30  C   UNL     1       5.241   6.864  17.537  0.00  0.00    +0.000 A 
ENDBRANCH  22  23
ENDBRANCH   2  22
TORSDOF 6
ENDMDL
MODEL 8
REMARK VINA RESULT:      -7.3      4.420      8.203
REMARK  Name = 
REMARK  7 active torsions:
REMARK  status: ('A' for Active; 'I' for Inactive)
REMARK    1  A    between atoms: C_1  and  C_2
REMARK    2  A    between atoms: C_2  and  O_3
REMARK    3  A    between atoms: O_3  and  C_4
REMARK    4  A    between atoms: C_4  and  C_6
REMARK    5  A    between atoms: C_7  and  C_8
REMARK    6  A    between atoms: C_8  and  C_9
REMARK    7  A    between atoms: C_21  and  O_22
REMARK                            x       y       z     vdW  Elec       q    Type
REMARK                         _______ _______ _______ _____ _____    ______ ____
ROOT
ATOM      1  C   UNL     1       4.118   6.755  17.232  0.00  0.00    +0.000 A 
ATOM      2  C   UNL     1       3.255   7.639  17.879  0.00  0.00    +0.000 A 
ATOM      3  N   UNL     1       2.498   6.898  18.765  0.00  0.00    +0.000 N 
ATOM      4  C   UNL     1       2.798   5.554  18.688  0.00  0.00    +0.000 A 
ATOM      5  C   UNL     1       3.795   5.439  17.719  0.00  0.00    +0.000 A 
ATOM      6  C   UNL     1       4.298   4.156  17.420  0.00  0.00    +0.000 A 
ATOM      7  C   UNL     1       3.803   3.039  18.095  0.00  0.00    +0.000 A 
ATOM      8  C   UNL     1       2.812   3.152  19.081  0.00  0.00    +0.000 A 
ATOM      9  C   UNL     1       2.323   2.026  19.769  0.00  0.00    +0.000 A 
ATOM     10  C   UNL     1       1.339   2.149  20.749  0.00  0.00    +0.000 A 
ATOM     11  C   UNL     1       0.819   3.406  21.055  0.00  0.00    +0.000 A 
ATOM     12  C   UNL     1       1.281   4.543  20.385  0.00  0.00    +0.000 A 
ATOM     13  C   UNL     1       2.282   4.427  19.394  0.00  0.00    +0.000 A 
ATOM     14  H   UNL     1       1.795   7.283  19.384  0.00  0.00    +0.000 HD
ENDROOT
BRANCH   1  15
ATOM     15  C   UNL     1       5.178   7.050  16.262  0.00  0.00    +0.000 C 
ATOM     16  O   UNL     1       5.046   6.885  15.053  0.00  0.00    +0.000 OA
BRANCH  15  17
ATOM     17  O   UNL     1       6.353   7.427  16.842  0.00  0.00    +0.000 OA
BRANCH  17  19
ATOM     18  C   UNL     1       7.578   6.192  18.547  0.00  0.00    +0.000 C 
ATOM     19  C   UNL     1       7.306   6.380  17.069  0.00  0.00    +0.000 C 
ENDBRANCH  17  19
ENDBRANCH  15  17
ENDBRANCH   1  15
BRANCH   7  20
ATOM     20  O   UNL     1       4.314   1.802  17.787  0.00  0.00    +0.000 OA
ATOM     21  H   UNL     1       3.580   1.166  17.753  0.00  0.00    +0.000 HD
ENDBRANCH   7  20
BRANCH   2  22
ATOM     22  C   UNL     1       3.044   9.124  17.745  0.00  0.00    +0.000 C 
BRANCH  22  23
ATOM     23  C   UNL     1       1.667   9.532  18.225  0.00  0.00    +0.000 A 
ATOM     24  C   UNL     1       0.541   9.285  17.426  0.00  0.00    +0.000 A 
ATOM     25  C   UNL     1      -0.709   9.795  17.780  0.00  0.00    +0.000 A 
ATOM     26  C   UNL     1      -0.856  10.547  18.947  0.00  0.00    +0.000 A 
ATOM     27 CL   UNL     1      -2.413  11.218  19.277  0.00  0.00    +0.000 Cl
ATOM     28  C   UNL     1       0.244  10.747  19.787  0.00  0.00    +0.000 A 
ATOM     29 CL   UNL     1       0.131  11.638  21.263  0.00  0.00    +0.000 Cl
ATOM     30  C   UNL     1       1.498  10.236  19.428  0.00  0.00    +0.000 A 
ENDBRANCH  22  23
ENDBRANCH   2  22
TORSDOF 6
ENDMDL
MODEL 9
REMARK VINA RESULT:      -7.2      4.253      8.428
REMARK  Name = 
REMARK  7 active torsions:
REMARK  status: ('A' for Active; 'I' for Inactive)
REMARK    1  A    between atoms: C_1  and  C_2
REMARK    2  A    between atoms: C_2  and  O_3
REMARK    3  A    between atoms: O_3  and  C_4
REMARK    4  A    between atoms: C_4  and  C_6
REMARK    5  A    between atoms: C_7  and  C_8
REMARK    6  A    between atoms: C_8  and  C_9
REMARK    7  A    between atoms: C_21  and  O_22
REMARK                            x       y       z     vdW  Elec       q    Type
REMARK                         _______ _______ _______ _____ _____    ______ ____
ROOT
ATOM      1  C   UNL     1       4.238   6.502  17.742  0.00  0.00    +0.000 A 
ATOM      2  C   UNL     1       3.076   7.231  17.991  0.00  0.00    +0.000 A 
ATOM      3  N   UNL     1       2.318   6.502  18.886  0.00  0.00    +0.000 N 
ATOM      4  C   UNL     1       2.918   5.298  19.195  0.00  0.00    +0.000 A 
ATOM      5  C   UNL     1       4.111   5.268  18.474  0.00  0.00    +0.000 A 
ATOM      6  C   UNL     1       4.940   4.134  18.592  0.00  0.00    +0.000 A 
ATOM      7  C   UNL     1       4.563   3.078  19.424  0.00  0.00    +0.000 A 
ATOM      8  C   UNL     1       3.372   3.112  20.163  0.00  0.00    +0.000 A 
ATOM      9  C   UNL     1       2.998   2.052  21.011  0.00  0.00    +0.000 A 
ATOM     10  C   UNL     1       1.813   2.095  21.743  0.00  0.00    +0.000 A 
ATOM     11  C   UNL     1       0.971   3.202  21.635  0.00  0.00    +0.000 A 
ATOM     12  C   UNL     1       1.312   4.268  20.797  0.00  0.00    +0.000 A 
ATOM     13  C   UNL     1       2.515   4.234  20.056  0.00  0.00    +0.000 A 
ATOM     14  H   UNL     1       1.424   6.797  19.259  0.00  0.00    +0.000 HD
ENDROOT
BRANCH   1  15
ATOM     15  C   UNL     1       5.401   6.875  16.930  0.00  0.00    +0.000 C 
ATOM     16  O   UNL     1       6.360   7.496  17.377  0.00  0.00    +0.000 OA
BRANCH  15  17
ATOM     17  O   UNL     1       5.267   6.553  15.611  0.00  0.00    +0.000 OA
BRANCH  17  19
ATOM     18  C   UNL     1       5.427   4.239  14.867  0.00  0.00    +0.000 C 
ATOM     19  C   UNL     1       6.156   5.543  15.118  0.00  0.00    +0.000 C 
ENDBRANCH  17  19
ENDBRANCH  15  17
ENDBRANCH   1  15
BRANCH   7  20
ATOM     20  O   UNL     1       5.391   1.988  19.524  0.00  0.00    +0.000 OA
ATOM     21  H   UNL     1       6.276   2.244  19.213  0.00  0.00    +0.000 HD
ENDBRANCH   7  20
BRANCH   2  22
ATOM     22  C   UNL     1       2.579   8.550  17.461  0.00  0.00    +0.000 C 
BRANCH  22  23
ATOM     23  C   UNL     1       1.509   9.139  18.358  0.00  0.00    +0.000 A 
ATOM     24  C   UNL     1       0.450   9.870  17.803  0.00  0.00    +0.000 A 
ATOM     25  C   UNL     1      -0.452  10.551  18.623  0.00  0.00    +0.000 A 
ATOM     26  C   UNL     1      -0.318  10.496  20.011  0.00  0.00    +0.000 A 
ATOM     27 CL   UNL     1      -1.417  11.432  20.959  0.00  0.00    +0.000 Cl
ATOM     28  C   UNL     1       0.695   9.718  20.580  0.00  0.00    +0.000 A 
ATOM     29 CL   UNL     1       0.901   9.575  22.290  0.00  0.00    +0.000 Cl
ATOM     30  C   UNL     1       1.599   9.038  19.755  0.00  0.00    +0.000 A 
ENDBRANCH  22  23
ENDBRANCH   2  22
TORSDOF 6
ENDMDL
