MODEL 1
REMARK VINA RESULT:      -7.1      0.000      0.000
REMARK  Name = 
REMARK  5 active torsions:
REMARK  status: ('A' for Active; 'I' for Inactive)
REMARK    1  A    between atoms: C_1  and  C_2
REMARK    2  A    between atoms: N_4  and  S_5
REMARK    3  A    between atoms: S_5  and  C_8
REMARK    4  A    between atoms: C_19  and  C_20
REMARK    5  A    between atoms: C_22  and  C_24
REMARK                            x       y       z     vdW  Elec       q    Type
REMARK                         _______ _______ _______ _____ _____    ______ ____
ROOT
ATOM      1  C   UNL     1      -2.293  10.452  17.860  0.00  0.00    +0.000 C 
ATOM      2  C   UNL     1      -1.510  10.399  19.174  0.00  0.00    +0.000 C 
ATOM      3  C   UNL     1       0.019  10.236  18.811  0.00  0.00    +0.000 C 
ATOM      4  N   UNL     1       0.917  10.157  20.012  0.00  0.00    +0.000 NA
ATOM      5  C   UNL     1       0.598  11.277  20.942  0.00  0.00    +0.000 C 
ATOM      6  C   UNL     1      -0.863  11.156  21.426  0.00  0.00    +0.000 C 
ATOM      7  C   UNL     1      -0.970  11.808  22.800  0.00  0.00    +0.000 C 
ATOM      8  N   UNL     1      -1.766  11.447  20.262  0.00  0.00    +0.000 N 
ATOM      9  C   UNL     1      -2.798  12.406  20.143  0.00  0.00    +0.000 C 
ATOM     10  O   UNL     1      -3.433  12.554  19.094  0.00  0.00    +0.000 OA
ENDROOT
BRANCH   9  11
ATOM     11  C   UNL     1      -3.166  13.346  21.329  0.00  0.00    +0.000 C 
ATOM     12  C   UNL     1      -3.070  14.845  21.040  0.00  0.00    +0.000 C 
ATOM     13  C   UNL     1      -4.382  15.578  20.771  0.00  0.00    +0.000 C 
ATOM     14  C   UNL     1      -5.560  15.178  21.648  0.00  0.00    +0.000 C 
ATOM     15  C   UNL     1      -5.686  13.691  21.935  0.00  0.00    +0.000 C 
ATOM     16  C   UNL     1      -4.382  12.947  22.170  0.00  0.00    +0.000 C 
ENDBRANCH   9  11
BRANCH   4  17
ATOM     17  S   UNL     1       1.072   8.624  20.774  0.00  0.00    +0.000 S 
ATOM     18  O   UNL     1       1.855   8.816  21.991  0.00  0.00    +0.000 OA
ATOM     19  O   UNL     1      -0.254   8.049  20.844  0.00  0.00    +0.000 OA
BRANCH  17  20
ATOM     20  C   UNL     1       2.065   7.615  19.694  0.00  0.00    +0.000 A 
ATOM     21  C   UNL     1       2.588   8.246  18.551  0.00  0.00    +0.000 A 
ATOM     22  C   UNL     1       3.223   7.497  17.567  0.00  0.00    +0.000 A 
ATOM     23  C   UNL     1       3.345   6.119  17.719  0.00  0.00    +0.000 A 
ATOM     24  C   UNL     1       2.843   5.468  18.856  0.00  0.00    +0.000 A 
ATOM     25  C   UNL     1       2.983   4.073  18.971  0.00  0.00    +0.000 A 
ATOM     26  C   UNL     1       2.489   3.386  20.077  0.00  0.00    +0.000 A 
ATOM     27  C   UNL     1       1.836   4.085  21.081  0.00  0.00    +0.000 A 
ATOM     28  C   UNL     1       1.676   5.469  20.973  0.00  0.00    +0.000 A 
ATOM     29  C   UNL     1       2.181   6.208  19.873  0.00  0.00    +0.000 A 
ENDBRANCH  17  20
ENDBRANCH   4  17
TORSDOF 3
ENDMDL
MODEL 2
REMARK VINA RESULT:      -6.7      8.153      9.609
REMARK  Name = 
REMARK  5 active torsions:
REMARK  status: ('A' for Active; 'I' for Inactive)
REMARK    1  A    between atoms: C_1  and  C_2
REMARK    2  A    between atoms: N_4  and  S_5
REMARK    3  A    between atoms: S_5  and  C_8
REMARK    4  A    between atoms: C_19  and  C_20
REMARK    5  A    between atoms: C_22  and  C_24
REMARK                            x       y       z     vdW  Elec       q    Type
REMARK                         _______ _______ _______ _____ _____    ______ ____
ROOT
ATOM      1  C   UNL     1       5.022  18.629  21.629  0.00  0.00    +0.000 C 
ATOM      2  C   UNL     1       5.506  17.500  20.717  0.00  0.00    +0.000 C 
ATOM      3  C   UNL     1       6.299  16.469  21.614  0.00  0.00    +0.000 C 
ATOM      4  N   UNL     1       6.849  15.301  20.845  0.00  0.00    +0.000 NA
ATOM      5  C   UNL     1       5.770  14.713  20.001  0.00  0.00    +0.000 C 
ATOM      6  C   UNL     1       5.269  15.763  18.986  0.00  0.00    +0.000 C 
ATOM      7  C   UNL     1       4.733  15.031  17.762  0.00  0.00    +0.000 C 
ATOM      8  N   UNL     1       4.531  16.829  19.743  0.00  0.00    +0.000 N 
ATOM      9  C   UNL     1       3.209  17.303  19.570  0.00  0.00    +0.000 C 
ATOM     10  O   UNL     1       2.724  18.168  20.307  0.00  0.00    +0.000 OA
ENDROOT
BRANCH   9  11
ATOM     11  C   UNL     1       2.288  16.733  18.452  0.00  0.00    +0.000 C 
ATOM     12  C   UNL     1       1.134  15.850  18.931  0.00  0.00    +0.000 C 
ATOM     13  C   UNL     1      -0.249  16.495  18.978  0.00  0.00    +0.000 C 
ATOM     14  C   UNL     1      -0.596  17.413  17.815  0.00  0.00    +0.000 C 
ATOM     15  C   UNL     1       0.530  18.312  17.332  0.00  0.00    +0.000 C 
ATOM     16  C   UNL     1       1.915  17.688  17.315  0.00  0.00    +0.000 C 
ENDBRANCH   9  11
BRANCH   4  17
ATOM     17  S   UNL     1       8.342  15.535  20.028  0.00  0.00    +0.000 S 
ATOM     18  O   UNL     1       8.035  15.953  18.663  0.00  0.00    +0.000 OA
ATOM     19  O   UNL     1       9.164  16.369  20.877  0.00  0.00    +0.000 OA
BRANCH  17  20
ATOM     20  C   UNL     1       9.111  13.934  19.901  0.00  0.00    +0.000 A 
ATOM     21  C   UNL     1       8.838  13.023  20.937  0.00  0.00    +0.000 A 
ATOM     22  C   UNL     1       9.530  11.820  21.011  0.00  0.00    +0.000 A 
ATOM     23  C   UNL     1      10.492  11.516  20.052  0.00  0.00    +0.000 A 
ATOM     24  C   UNL     1      10.773  12.402  19.001  0.00  0.00    +0.000 A 
ATOM     25  C   UNL     1      11.755  12.060  18.054  0.00  0.00    +0.000 A 
ATOM     26  C   UNL     1      12.073  12.916  17.002  0.00  0.00    +0.000 A 
ATOM     27  C   UNL     1      11.420  14.134  16.890  0.00  0.00    +0.000 A 
ATOM     28  C   UNL     1      10.453  14.494  17.833  0.00  0.00    +0.000 A 
ATOM     29  C   UNL     1      10.087  13.644  18.906  0.00  0.00    +0.000 A 
ENDBRANCH  17  20
ENDBRANCH   4  17
TORSDOF 3
ENDMDL
MODEL 3
REMARK VINA RESULT:      -6.4      3.107      3.980
REMARK  Name = 
REMARK  5 active torsions:
REMARK  status: ('A' for Active; 'I' for Inactive)
REMARK    1  A    between atoms: C_1  and  C_2
REMARK    2  A    between atoms: N_4  and  S_5
REMARK    3  A    between atoms: S_5  and  C_8
REMARK    4  A    between atoms: C_19  and  C_20
REMARK    5  A    between atoms: C_22  and  C_24
REMARK                            x       y       z     vdW  Elec       q    Type
REMARK                         _______ _______ _______ _____ _____    ______ ____
ROOT
ATOM      1  C   UNL     1      -2.668  11.317  18.395  0.00  0.00    +0.000 C 
ATOM      2  C   UNL     1      -1.955  12.286  19.340  0.00  0.00    +0.000 C 
ATOM      3  C   UNL     1      -0.899  13.094  18.486  0.00  0.00    +0.000 C 
ATOM      4  N   UNL     1      -0.106  14.085  19.290  0.00  0.00    +0.000 NA
ATOM      5  C   UNL     1      -1.037  14.916  20.106  0.00  0.00    +0.000 C 
ATOM      6  C   UNL     1      -1.819  14.016  21.087  0.00  0.00    +0.000 C 
ATOM      7  C   UNL     1      -2.202  14.851  22.303  0.00  0.00    +0.000 C 
ATOM      8  N   UNL     1      -2.769  13.171  20.290  0.00  0.00    +0.000 N 
ATOM      9  C   UNL     1      -4.173  13.038  20.410  0.00  0.00    +0.000 C 
ATOM     10  O   UNL     1      -4.828  12.324  19.644  0.00  0.00    +0.000 OA
ENDROOT
BRANCH   9  11
ATOM     11  C   UNL     1      -4.964  13.811  21.505  0.00  0.00    +0.000 C 
ATOM     12  C   UNL     1      -5.951  14.861  20.990  0.00  0.00    +0.000 C 
ATOM     13  C   UNL     1      -7.426  14.469  20.979  0.00  0.00    +0.000 C 
ATOM     14  C   UNL     1      -7.915  13.680  22.185  0.00  0.00    +0.000 C 
ATOM     15  C   UNL     1      -6.959  12.620  22.704  0.00  0.00    +0.000 C 
ATOM     16  C   UNL     1      -5.485  12.989  22.687  0.00  0.00    +0.000 C 
ENDBRANCH   9  11
BRANCH   4  17
ATOM     17  S   UNL     1       1.252  13.484  20.155  0.00  0.00    +0.000 S 
ATOM     18  O   UNL     1       2.450  14.037  19.532  0.00  0.00    +0.000 OA
ATOM     19  O   UNL     1       0.992  13.709  21.561  0.00  0.00    +0.000 OA
BRANCH  17  20
ATOM     20  C   UNL     1       1.303  11.727  19.869  0.00  0.00    +0.000 A 
ATOM     21  C   UNL     1       1.810  11.309  18.625  0.00  0.00    +0.000 A 
ATOM     22  C   UNL     1       1.725   9.974  18.248  0.00  0.00    +0.000 A 
ATOM     23  C   UNL     1       1.140   9.049  19.109  0.00  0.00    +0.000 A 
ATOM     24  C   UNL     1       0.639   9.439  20.360  0.00  0.00    +0.000 A 
ATOM     25  C   UNL     1       0.052   8.475  21.199  0.00  0.00    +0.000 A 
ATOM     26  C   UNL     1      -0.468   8.821  22.444  0.00  0.00    +0.000 A 
ATOM     27  C   UNL     1      -0.419  10.143  22.862  0.00  0.00    +0.000 A 
ATOM     28  C   UNL     1       0.148  11.114  22.032  0.00  0.00    +0.000 A 
ATOM     29  C   UNL     1       0.704  10.799  20.767  0.00  0.00    +0.000 A 
ENDBRANCH  17  20
ENDBRANCH   4  17
TORSDOF 3
ENDMDL
MODEL 4
REMARK VINA RESULT:      -6.4      2.071      8.837
REMARK  Name = 
REMARK  5 active torsions:
REMARK  status: ('A' for Active; 'I' for Inactive)
REMARK    1  A    between atoms: C_1  and  C_2
REMARK    2  A    between atoms: N_4  and  S_5
REMARK    3  A    between atoms: S_5  and  C_8
REMARK    4  A    between atoms: C_19  and  C_20
REMARK    5  A    between atoms: C_22  and  C_24
REMARK                            x       y       z     vdW  Elec       q    Type
REMARK                         _______ _______ _______ _____ _____    ______ ____
ROOT
ATOM      1  C   UNL     1       1.839  10.727  17.616  0.00  0.00    +0.000 C 
ATOM      2  C   UNL     1       1.464  10.196  19.001  0.00  0.00    +0.000 C 
ATOM      3  C   UNL     1      -0.007  10.679  19.315  0.00  0.00    +0.000 C 
ATOM      4  N   UNL     1      -0.510  10.239  20.661  0.00  0.00    +0.000 NA
ATOM      5  C   UNL     1      -0.271   8.777  20.823  0.00  0.00    +0.000 C 
ATOM      6  C   UNL     1       1.243   8.484  20.758  0.00  0.00    +0.000 C 
ATOM      7  C   UNL     1       1.524   7.223  21.567  0.00  0.00    +0.000 C 
ATOM      8  N   UNL     1       1.705   8.723  19.349  0.00  0.00    +0.000 N 
ATOM      9  C   UNL     1       2.378   7.850  18.463  0.00  0.00    +0.000 C 
ATOM     10  O   UNL     1       2.659   8.183  17.308  0.00  0.00    +0.000 OA
ENDROOT
BRANCH   9  11
ATOM     11  C   UNL     1       2.777   6.409  18.900  0.00  0.00    +0.000 C 
ATOM     12  C   UNL     1       1.678   5.353  18.776  0.00  0.00    +0.000 C 
ATOM     13  C   UNL     1       1.756   4.418  17.572  0.00  0.00    +0.000 C 
ATOM     14  C   UNL     1       3.147   3.928  17.198  0.00  0.00    +0.000 C 
ATOM     15  C   UNL     1       4.253   4.965  17.296  0.00  0.00    +0.000 C 
ATOM     16  C   UNL     1       4.164   5.921  18.473  0.00  0.00    +0.000 C 
ENDBRANCH   9  11
BRANCH   4  17
ATOM     17  S   UNL     1      -0.052  11.189  22.017  0.00  0.00    +0.000 S 
ATOM     18  O   UNL     1       0.016  10.300  23.173  0.00  0.00    +0.000 OA
ATOM     19  O   UNL     1       1.108  11.960  21.623  0.00  0.00    +0.000 OA
BRANCH  17  20
ATOM     20  C   UNL     1      -1.394  12.316  22.330  0.00  0.00    +0.000 A 
ATOM     21  C   UNL     1      -2.404  11.863  23.198  0.00  0.00    +0.000 A 
ATOM     22  C   UNL     1      -3.571  12.602  23.359  0.00  0.00    +0.000 A 
ATOM     23  C   UNL     1      -3.735  13.795  22.662  0.00  0.00    +0.000 A 
ATOM     24  C   UNL     1      -2.736  14.275  21.801  0.00  0.00    +0.000 A 
ATOM     25  C   UNL     1      -2.941  15.484  21.112  0.00  0.00    +0.000 A 
ATOM     26  C   UNL     1      -1.982  15.989  20.238  0.00  0.00    +0.000 A 
ATOM     27  C   UNL     1      -0.805  15.284  20.033  0.00  0.00    +0.000 A 
ATOM     28  C   UNL     1      -0.594  14.074  20.698  0.00  0.00    +0.000 A 
ATOM     29  C   UNL     1      -1.537  13.535  21.609  0.00  0.00    +0.000 A 
ENDBRANCH  17  20
ENDBRANCH   4  17
TORSDOF 3
ENDMDL
MODEL 5
REMARK VINA RESULT:      -6.3      8.816     10.925
REMARK  Name = 
REMARK  5 active torsions:
REMARK  status: ('A' for Active; 'I' for Inactive)
REMARK    1  A    between atoms: C_1  and  C_2
REMARK    2  A    between atoms: N_4  and  S_5
REMARK    3  A    between atoms: S_5  and  C_8
REMARK    4  A    between atoms: C_19  and  C_20
REMARK    5  A    between atoms: C_22  and  C_24
REMARK                            x       y       z     vdW  Elec       q    Type
REMARK                         _______ _______ _______ _____ _____    ______ ____
ROOT
ATOM      1  C   UNL     1       4.747  16.043  23.231  0.00  0.00    +0.000 C 
ATOM      2  C   UNL     1       5.976  15.384  22.602  0.00  0.00    +0.000 C 
ATOM      3  C   UNL     1       7.002  16.532  22.247  0.00  0.00    +0.000 C 
ATOM      4  N   UNL     1       8.265  16.032  21.604  0.00  0.00    +0.000 NA
ATOM      5  C   UNL     1       8.819  14.909  22.412  0.00  0.00    +0.000 C 
ATOM      6  C   UNL     1       7.807  13.744  22.452  0.00  0.00    +0.000 C 
ATOM      7  C   UNL     1       8.579  12.443  22.641  0.00  0.00    +0.000 C 
ATOM      8  N   UNL     1       6.631  14.175  23.279  0.00  0.00    +0.000 N 
ATOM      9  C   UNL     1       6.061  13.564  24.420  0.00  0.00    +0.000 C 
ATOM     10  O   UNL     1       5.108  14.067  25.022  0.00  0.00    +0.000 OA
ENDROOT
BRANCH   9  11
ATOM     11  C   UNL     1       6.632  12.231  24.989  0.00  0.00    +0.000 C 
ATOM     12  C   UNL     1       7.581  12.374  26.180  0.00  0.00    +0.000 C 
ATOM     13  C   UNL     1       7.001  12.075  27.560  0.00  0.00    +0.000 C 
ATOM     14  C   UNL     1       6.058  10.883  27.643  0.00  0.00    +0.000 C 
ATOM     15  C   UNL     1       5.094  10.731  26.479  0.00  0.00    +0.000 C 
ATOM     16  C   UNL     1       5.654  11.059  25.106  0.00  0.00    +0.000 C 
ENDBRANCH   9  11
BRANCH   4  17
ATOM     17  S   UNL     1       8.218  15.734  19.912  0.00  0.00    +0.000 S 
ATOM     18  O   UNL     1       7.265  14.653  19.682  0.00  0.00    +0.000 OA
ATOM     19  O   UNL     1       8.037  17.014  19.261  0.00  0.00    +0.000 OA
BRANCH  17  20
ATOM     20  C   UNL     1       9.818  15.097  19.461  0.00  0.00    +0.000 A 
ATOM     21  C   UNL     1      10.894  15.999  19.529  0.00  0.00    +0.000 A 
ATOM     22  C   UNL     1      12.141  15.639  19.030  0.00  0.00    +0.000 A 
ATOM     23  C   UNL     1      12.323  14.380  18.466  0.00  0.00    +0.000 A 
ATOM     24  C   UNL     1      11.268  13.457  18.399  0.00  0.00    +0.000 A 
ATOM     25  C   UNL     1      11.490  12.195  17.819  0.00  0.00    +0.000 A 
ATOM     26  C   UNL     1      10.468  11.254  17.722  0.00  0.00    +0.000 A 
ATOM     27  C   UNL     1       9.203  11.568  18.193  0.00  0.00    +0.000 A 
ATOM     28  C   UNL     1       8.962  12.824  18.758  0.00  0.00    +0.000 A 
ATOM     29  C   UNL     1       9.980  13.801  18.893  0.00  0.00    +0.000 A 
ENDBRANCH  17  20
ENDBRANCH   4  17
TORSDOF 3
ENDMDL
MODEL 6
REMARK VINA RESULT:      -6.3      2.234      8.757
REMARK  Name = 
REMARK  5 active torsions:
REMARK  status: ('A' for Active; 'I' for Inactive)
REMARK    1  A    between atoms: C_1  and  C_2
REMARK    2  A    between atoms: N_4  and  S_5
REMARK    3  A    between atoms: S_5  and  C_8
REMARK    4  A    between atoms: C_19  and  C_20
REMARK    5  A    between atoms: C_22  and  C_24
REMARK                            x       y       z     vdW  Elec       q    Type
REMARK                         _______ _______ _______ _____ _____    ______ ____
ROOT
ATOM      1  C   UNL     1       2.219  10.687  17.532  0.00  0.00    +0.000 C 
ATOM      2  C   UNL     1       1.652  10.322  18.906  0.00  0.00    +0.000 C 
ATOM      3  C   UNL     1       0.227  10.993  19.028  0.00  0.00    +0.000 C 
ATOM      4  N   UNL     1      -0.452  10.728  20.341  0.00  0.00    +0.000 NA
ATOM      5  C   UNL     1      -0.408   9.268  20.635  0.00  0.00    +0.000 C 
ATOM      6  C   UNL     1       1.059   8.801  20.750  0.00  0.00    +0.000 C 
ATOM      7  C   UNL     1       1.107   7.590  21.674  0.00  0.00    +0.000 C 
ATOM      8  N   UNL     1       1.679   8.866  19.384  0.00  0.00    +0.000 N 
ATOM      9  C   UNL     1       2.323   7.850  18.639  0.00  0.00    +0.000 C 
ATOM     10  O   UNL     1       2.751   8.050  17.498  0.00  0.00    +0.000 OA
ENDROOT
BRANCH   9  11
ATOM     11  C   UNL     1       2.502   6.416  19.219  0.00  0.00    +0.000 C 
ATOM     12  C   UNL     1       1.517   5.366  18.701  0.00  0.00    +0.000 C 
ATOM     13  C   UNL     1       2.037   4.406  17.634  0.00  0.00    +0.000 C 
ATOM     14  C   UNL     1       3.457   3.896  17.831  0.00  0.00    +0.000 C 
ATOM     15  C   UNL     1       4.457   4.926  18.329  0.00  0.00    +0.000 C 
ATOM     16  C   UNL     1       3.938   5.908  19.366  0.00  0.00    +0.000 C 
ENDBRANCH   9  11
BRANCH   4  17
ATOM     17  S   UNL     1      -0.013  11.732  21.666  0.00  0.00    +0.000 S 
ATOM     18  O   UNL     1      -0.312  10.998  22.891  0.00  0.00    +0.000 OA
ATOM     19  O   UNL     1       1.330  12.207  21.411  0.00  0.00    +0.000 OA
BRANCH  17  20
ATOM     20  C   UNL     1      -1.117  13.128  21.636  0.00  0.00    +0.000 A 
ATOM     21  C   UNL     1      -0.704  14.239  20.879  0.00  0.00    +0.000 A 
ATOM     22  C   UNL     1      -1.415  15.432  20.941  0.00  0.00    +0.000 A 
ATOM     23  C   UNL     1      -2.542  15.522  21.752  0.00  0.00    +0.000 A 
ATOM     24  C   UNL     1      -2.983  14.424  22.506  0.00  0.00    +0.000 A 
ATOM     25  C   UNL     1      -4.125  14.557  23.317  0.00  0.00    +0.000 A 
ATOM     26  C   UNL     1      -4.589  13.497  24.090  0.00  0.00    +0.000 A 
ATOM     27  C   UNL     1      -3.909  12.289  24.074  0.00  0.00    +0.000 A 
ATOM     28  C   UNL     1      -2.763  12.146  23.285  0.00  0.00    +0.000 A 
ATOM     29  C   UNL     1      -2.270  13.196  22.469  0.00  0.00    +0.000 A 
ENDBRANCH  17  20
ENDBRANCH   4  17
TORSDOF 3
ENDMDL
MODEL 7
REMARK VINA RESULT:      -6.2      5.610      8.733
REMARK  Name = 
REMARK  5 active torsions:
REMARK  status: ('A' for Active; 'I' for Inactive)
REMARK    1  A    between atoms: C_1  and  C_2
REMARK    2  A    between atoms: N_4  and  S_5
REMARK    3  A    between atoms: S_5  and  C_8
REMARK    4  A    between atoms: C_19  and  C_20
REMARK    5  A    between atoms: C_22  and  C_24
REMARK                            x       y       z     vdW  Elec       q    Type
REMARK                         _______ _______ _______ _____ _____    ______ ____
ROOT
ATOM      1  C   UNL     1       4.505  13.844  22.256  0.00  0.00    +0.000 C 
ATOM      2  C   UNL     1       3.717  14.104  20.970  0.00  0.00    +0.000 C 
ATOM      3  C   UNL     1       2.295  14.653  21.386  0.00  0.00    +0.000 C 
ATOM      4  N   UNL     1       1.397  14.945  20.217  0.00  0.00    +0.000 NA
ATOM      5  C   UNL     1       2.135  15.775  19.223  0.00  0.00    +0.000 C 
ATOM      6  C   UNL     1       3.364  14.999  18.703  0.00  0.00    +0.000 C 
ATOM      7  C   UNL     1       3.683  15.491  17.296  0.00  0.00    +0.000 C 
ATOM      8  N   UNL     1       4.358  14.893  19.823  0.00  0.00    +0.000 N 
ATOM      9  C   UNL     1       5.714  15.294  19.863  0.00  0.00    +0.000 C 
ATOM     10  O   UNL     1       6.399  15.175  20.884  0.00  0.00    +0.000 OA
ENDROOT
BRANCH   9  11
ATOM     11  C   UNL     1       6.403  15.931  18.621  0.00  0.00    +0.000 C 
ATOM     12  C   UNL     1       6.907  17.364  18.807  0.00  0.00    +0.000 C 
ATOM     13  C   UNL     1       8.405  17.540  19.042  0.00  0.00    +0.000 C 
ATOM     14  C   UNL     1       9.318  16.652  18.210  0.00  0.00    +0.000 C 
ATOM     15  C   UNL     1       8.848  15.220  18.026  0.00  0.00    +0.000 C 
ATOM     16  C   UNL     1       7.353  15.033  17.825  0.00  0.00    +0.000 C 
ENDBRANCH   9  11
BRANCH   4  17
ATOM     17  S   UNL     1       0.540  13.620  19.538  0.00  0.00    +0.000 S 
ATOM     18  O   UNL     1      -0.355  14.153  18.515  0.00  0.00    +0.000 OA
ATOM     19  O   UNL     1       1.520  12.612  19.195  0.00  0.00    +0.000 OA
BRANCH  17  20
ATOM     20  C   UNL     1      -0.503  12.972  20.828  0.00  0.00    +0.000 A 
ATOM     21  C   UNL     1      -1.498  13.833  21.322  0.00  0.00    +0.000 A 
ATOM     22  C   UNL     1      -2.239  13.477  22.443  0.00  0.00    +0.000 A 
ATOM     23  C   UNL     1      -1.996  12.260  23.073  0.00  0.00    +0.000 A 
ATOM     24  C   UNL     1      -1.017  11.377  22.592  0.00  0.00    +0.000 A 
ATOM     25  C   UNL     1      -0.799  10.158  23.259  0.00  0.00    +0.000 A 
ATOM     26  C   UNL     1       0.171   9.259  22.821  0.00  0.00    +0.000 A 
ATOM     27  C   UNL     1       0.945   9.573  21.715  0.00  0.00    +0.000 A 
ATOM     28  C   UNL     1       0.750  10.787  21.051  0.00  0.00    +0.000 A 
ATOM     29  C   UNL     1      -0.238  11.720  21.453  0.00  0.00    +0.000 A 
ENDBRANCH  17  20
ENDBRANCH   4  17
TORSDOF 3
ENDMDL
MODEL 8
REMARK VINA RESULT:      -6.2      1.439      1.754
REMARK  Name = 
REMARK  5 active torsions:
REMARK  status: ('A' for Active; 'I' for Inactive)
REMARK    1  A    between atoms: C_1  and  C_2
REMARK    2  A    between atoms: N_4  and  S_5
REMARK    3  A    between atoms: S_5  and  C_8
REMARK    4  A    between atoms: C_19  and  C_20
REMARK    5  A    between atoms: C_22  and  C_24
REMARK                            x       y       z     vdW  Elec       q    Type
REMARK                         _______ _______ _______ _____ _____    ______ ____
ROOT
ATOM      1  C   UNL     1      -3.028  10.875  17.419  0.00  0.00    +0.000 C 
ATOM      2  C   UNL     1      -2.396  11.034  18.803  0.00  0.00    +0.000 C 
ATOM      3  C   UNL     1      -0.854  11.304  18.595  0.00  0.00    +0.000 C 
ATOM      4  N   UNL     1      -0.093  11.470  19.880  0.00  0.00    +0.000 NA
ATOM      5  C   UNL     1      -0.801  12.452  20.749  0.00  0.00    +0.000 C 
ATOM      6  C   UNL     1      -2.212  11.928  21.091  0.00  0.00    +0.000 C 
ATOM      7  C   UNL     1      -2.632  12.517  22.432  0.00  0.00    +0.000 C 
ATOM      8  N   UNL     1      -3.039  11.963  19.838  0.00  0.00    +0.000 N 
ATOM      9  C   UNL     1      -4.279  12.600  19.597  0.00  0.00    +0.000 C 
ATOM     10  O   UNL     1      -4.823  12.571  18.488  0.00  0.00    +0.000 OA
ENDROOT
BRANCH   9  11
ATOM     11  C   UNL     1      -5.010  13.393  20.721  0.00  0.00    +0.000 C 
ATOM     12  C   UNL     1      -5.285  14.867  20.417  0.00  0.00    +0.000 C 
ATOM     13  C   UNL     1      -6.708  15.226  19.997  0.00  0.00    +0.000 C 
ATOM     14  C   UNL     1      -7.825  14.517  20.750  0.00  0.00    +0.000 C 
ATOM     15  C   UNL     1      -7.581  13.047  21.047  0.00  0.00    +0.000 C 
ATOM     16  C   UNL     1      -6.159  12.675  21.433  0.00  0.00    +0.000 C 
ENDBRANCH   9  11
BRANCH   4  17
ATOM     17  S   UNL     1       0.403  10.036  20.687  0.00  0.00    +0.000 S 
ATOM     18  O   UNL     1       1.224  10.435  21.827  0.00  0.00    +0.000 OA
ATOM     19  O   UNL     1      -0.783   9.232  20.890  0.00  0.00    +0.000 OA
BRANCH  17  20
ATOM     20  C   UNL     1       1.484   9.169  19.570  0.00  0.00    +0.000 A 
ATOM     21  C   UNL     1       1.870   9.860  18.408  0.00  0.00    +0.000 A 
ATOM     22  C   UNL     1       2.566   9.201  17.400  0.00  0.00    +0.000 A 
ATOM     23  C   UNL     1       2.884   7.854  17.547  0.00  0.00    +0.000 A 
ATOM     24  C   UNL     1       2.521   7.146  18.703  0.00  0.00    +0.000 A 
ATOM     25  C   UNL     1       2.858   5.785  18.813  0.00  0.00    +0.000 A 
ATOM     26  C   UNL     1       2.507   5.042  19.937  0.00  0.00    +0.000 A 
ATOM     27  C   UNL     1       1.802   5.649  20.965  0.00  0.00    +0.000 A 
ATOM     28  C   UNL     1       1.447   6.997  20.864  0.00  0.00    +0.000 A 
ATOM     29  C   UNL     1       1.801   7.792  19.745  0.00  0.00    +0.000 A 
ENDBRANCH  17  20
ENDBRANCH   4  17
TORSDOF 3
ENDMDL
MODEL 9
REMARK VINA RESULT:      -6.2      8.586     10.543
REMARK  Name = 
REMARK  5 active torsions:
REMARK  status: ('A' for Active; 'I' for Inactive)
REMARK    1  A    between atoms: C_1  and  C_2
REMARK    2  A    between atoms: N_4  and  S_5
REMARK    3  A    between atoms: S_5  and  C_8
REMARK    4  A    between atoms: C_19  and  C_20
REMARK    5  A    between atoms: C_22  and  C_24
REMARK                            x       y       z     vdW  Elec       q    Type
REMARK                         _______ _______ _______ _____ _____    ______ ____
ROOT
ATOM      1  C   UNL     1       4.012  15.210  20.833  0.00  0.00    +0.000 C 
ATOM      2  C   UNL     1       5.536  15.107  20.733  0.00  0.00    +0.000 C 
ATOM      3  C   UNL     1       6.074  16.498  20.213  0.00  0.00    +0.000 C 
ATOM      4  N   UNL     1       7.568  16.543  20.053  0.00  0.00    +0.000 NA
ATOM      5  C   UNL     1       8.213  16.034  21.297  0.00  0.00    +0.000 C 
ATOM      6  C   UNL     1       7.800  14.567  21.538  0.00  0.00    +0.000 C 
ATOM      7  C   UNL     1       8.911  13.877  22.321  0.00  0.00    +0.000 C 
ATOM      8  N   UNL     1       6.345  14.545  21.907  0.00  0.00    +0.000 N 
ATOM      9  C   UNL     1       5.716  14.001  23.051  0.00  0.00    +0.000 C 
ATOM     10  O   UNL     1       4.498  14.099  23.235  0.00  0.00    +0.000 OA
ENDROOT
BRANCH   9  11
ATOM     11  C   UNL     1       6.539  13.270  24.153  0.00  0.00    +0.000 C 
ATOM     12  C   UNL     1       6.478  13.895  25.548  0.00  0.00    +0.000 C 
ATOM     13  C   UNL     1       5.557  13.221  26.562  0.00  0.00    +0.000 C 
ATOM     14  C   UNL     1       5.555  11.700  26.552  0.00  0.00    +0.000 C 
ATOM     15  C   UNL     1       5.597  11.056  25.176  0.00  0.00    +0.000 C 
ATOM     16  C   UNL     1       6.484  11.740  24.150  0.00  0.00    +0.000 C 
ENDBRANCH   9  11
BRANCH   4  17
ATOM     17  S   UNL     1       8.220  15.898  18.600  0.00  0.00    +0.000 S 
ATOM     18  O   UNL     1       7.316  14.849  18.140  0.00  0.00    +0.000 OA
ATOM     19  O   UNL     1       8.530  17.021  17.740  0.00  0.00    +0.000 OA
BRANCH  17  20
ATOM     20  C   UNL     1       9.744  15.091  19.039  0.00  0.00    +0.000 A 
ATOM     21  C   UNL     1      10.811  15.926  19.414  0.00  0.00    +0.000 A 
ATOM     22  C   UNL     1      12.083  15.395  19.601  0.00  0.00    +0.000 A 
ATOM     23  C   UNL     1      12.296  14.032  19.421  0.00  0.00    +0.000 A 
ATOM     24  C   UNL     1      11.245  13.175  19.060  0.00  0.00    +0.000 A 
ATOM     25  C   UNL     1      11.501  11.804  18.884  0.00  0.00    +0.000 A 
ATOM     26  C   UNL     1      10.490  10.921  18.515  0.00  0.00    +0.000 A 
ATOM     27  C   UNL     1       9.206  11.402  18.304  0.00  0.00    +0.000 A 
ATOM     28  C   UNL     1       8.939  12.765  18.459  0.00  0.00    +0.000 A 
ATOM     29  C   UNL     1       9.937  13.692  18.853  0.00  0.00    +0.000 A 
ENDBRANCH  17  20
ENDBRANCH   4  17
TORSDOF 3
ENDMDL
