MODEL 1
REMARK VINA RESULT:      -8.9      0.000      0.000
REMARK  Name = 
REMARK  7 active torsions:
REMARK  status: ('A' for Active; 'I' for Inactive)
REMARK    1  A    between atoms: C_1  and  C_2
REMARK    2  A    between atoms: C_5  and  N_6
REMARK    3  A    between atoms: N_6  and  S_7
REMARK    4  A    between atoms: S_7  and  C_10
REMARK    5  A    between atoms: C_17  and  N_18
REMARK    6  A    between atoms: N_18  and  C_19
REMARK    7  A    between atoms: N_30  and  C_31
REMARK                            x       y       z     vdW  Elec       q    Type
REMARK                         _______ _______ _______ _____ _____    ______ ____
ROOT
ATOM      1  N   UNL     1      -0.010  10.824  18.887  0.00  0.00    +0.000 N 
ATOM      2  H   UNL     1       0.569  11.554  18.484  0.00  0.00    +0.000 HD
ENDROOT
BRANCH   1   3
ATOM      3  C   UNL     1      -1.310  10.876  18.290  0.00  0.00    +0.000 A 
ATOM      4  N   UNL     1      -1.502  10.310  17.077  0.00  0.00    +0.000 NA
ATOM      5  C   UNL     1      -2.727  10.364  16.556  0.00  0.00    +0.000 A 
ATOM      6  N   UNL     1      -3.784  10.928  17.133  0.00  0.00    +0.000 NA
ATOM      7  C   UNL     1      -3.562  11.476  18.343  0.00  0.00    +0.000 A 
ATOM      8  C   UNL     1      -4.567  12.109  19.031  0.00  0.00    +0.000 A 
ATOM      9  N   UNL     1      -4.437  12.692  20.240  0.00  0.00    +0.000 NA
ATOM     10  C   UNL     1      -3.231  12.657  20.817  0.00  0.00    +0.000 A 
ATOM     11  N   UNL     1      -3.049  13.315  22.002  0.00  0.00    +0.000 N 
ATOM     12  C   UNL     1      -4.190  13.862  22.736  0.00  0.00    +0.000 C 
ATOM     13  C   UNL     1      -3.753  15.164  23.448  0.00  0.00    +0.000 C 
ATOM     14  N   UNL     1      -2.560  14.978  24.310  0.00  0.00    +0.000 NA
ATOM     15  C   UNL     1      -2.150  16.252  24.895  0.00  0.00    +0.000 C 
ATOM     16  C   UNL     1      -1.456  14.403  23.505  0.00  0.00    +0.000 C 
ATOM     17  C   UNL     1      -1.852  13.083  22.804  0.00  0.00    +0.000 C 
ATOM     18  N   UNL     1      -2.176  12.072  20.229  0.00  0.00    +0.000 NA
ATOM     19  C   UNL     1      -2.345  11.491  19.011  0.00  0.00    +0.000 A 
ENDBRANCH   1   3
BRANCH   1  26
ATOM     20  C   UNL     1      -0.290   9.803  21.666  0.00  0.00    +0.000 C 
ATOM     21  C   UNL     1       0.580   9.160  20.617  0.00  0.00    +0.000 A 
ATOM     22  C   UNL     1       1.345   8.040  20.994  0.00  0.00    +0.000 A 
ATOM     23  C   UNL     1       2.171   7.384  20.076  0.00  0.00    +0.000 A 
ATOM     24  C   UNL     1       2.220   7.830  18.764  0.00  0.00    +0.000 A 
ATOM     25  C   UNL     1       1.491   8.953  18.385  0.00  0.00    +0.000 A 
ATOM     26  C   UNL     1       0.689   9.662  19.301  0.00  0.00    +0.000 A 
BRANCH  24  27
ATOM     27  N   UNL     1       3.014   7.148  17.787  0.00  0.00    +0.000 N 
ATOM     28  H   UNL     1       2.579   7.140  16.861  0.00  0.00    +0.000 HD
BRANCH  27  29
ATOM     29  S   UNL     1       3.496   5.559  18.128  0.00  0.00    +0.000 S 
ATOM     30  O   UNL     1       4.128   5.501  19.428  0.00  0.00    +0.000 OA
ATOM     31  O   UNL     1       2.325   4.758  17.836  0.00  0.00    +0.000 OA
BRANCH  29  32
ATOM     32  C   UNL     1       4.759   5.244  16.864  0.00  0.00    +0.000 C 
ATOM     33  C   UNL     1       5.257   6.557  16.237  0.00  0.00    +0.000 C 
ATOM     34  C   UNL     1       6.282   7.297  17.095  0.00  0.00    +0.000 C 
ATOM     35  C   UNL     1       7.459   6.401  17.452  0.00  0.00    +0.000 C 
ATOM     36  C   UNL     1       7.008   5.113  18.129  0.00  0.00    +0.000 C 
ATOM     37  C   UNL     1       5.926   4.371  17.342  0.00  0.00    +0.000 C 
ENDBRANCH  29  32
ENDBRANCH  27  29
ENDBRANCH  24  27
ENDBRANCH   1  26
TORSDOF 5
ENDMDL
MODEL 2
REMARK VINA RESULT:      -8.9      3.313      3.997
REMARK  Name = 
REMARK  7 active torsions:
REMARK  status: ('A' for Active; 'I' for Inactive)
REMARK    1  A    between atoms: C_1  and  C_2
REMARK    2  A    between atoms: C_5  and  N_6
REMARK    3  A    between atoms: N_6  and  S_7
REMARK    4  A    between atoms: S_7  and  C_10
REMARK    5  A    between atoms: C_17  and  N_18
REMARK    6  A    between atoms: N_18  and  C_19
REMARK    7  A    between atoms: N_30  and  C_31
REMARK                            x       y       z     vdW  Elec       q    Type
REMARK                         _______ _______ _______ _____ _____    ______ ____
ROOT
ATOM      1  N   UNL     1       1.712   9.898  18.623  0.00  0.00    +0.000 N 
ATOM      2  H   UNL     1       2.388  10.183  17.921  0.00  0.00    +0.000 HD
ENDROOT
BRANCH   1   3
ATOM      3  C   UNL     1       0.479  10.588  18.390  0.00  0.00    +0.000 A 
ATOM      4  N   UNL     1      -0.581   9.900  17.911  0.00  0.00    +0.000 NA
ATOM      5  C   UNL     1      -1.718  10.567  17.720  0.00  0.00    +0.000 A 
ATOM      6  N   UNL     1      -1.899  11.863  17.963  0.00  0.00    +0.000 NA
ATOM      7  C   UNL     1      -0.827  12.519  18.446  0.00  0.00    +0.000 A 
ATOM      8  C   UNL     1      -0.879  13.863  18.716  0.00  0.00    +0.000 A 
ATOM      9  N   UNL     1       0.143  14.603  19.193  0.00  0.00    +0.000 NA
ATOM     10  C   UNL     1       1.305  13.981  19.417  0.00  0.00    +0.000 A 
ATOM     11  N   UNL     1       2.382  14.723  19.816  0.00  0.00    +0.000 N 
ATOM     12  C   UNL     1       2.222  16.125  20.202  0.00  0.00    +0.000 C 
ATOM     13  C   UNL     1       3.490  16.909  19.786  0.00  0.00    +0.000 C 
ATOM     14  N   UNL     1       4.739  16.312  20.319  0.00  0.00    +0.000 NA
ATOM     15  C   UNL     1       5.903  17.048  19.835  0.00  0.00    +0.000 C 
ATOM     16  C   UNL     1       4.820  14.890  19.908  0.00  0.00    +0.000 C 
ATOM     17  C   UNL     1       3.581  14.071  20.336  0.00  0.00    +0.000 C 
ATOM     18  N   UNL     1       1.470  12.671  19.179  0.00  0.00    +0.000 NA
ATOM     19  C   UNL     1       0.416  11.955  18.702  0.00  0.00    +0.000 A 
ENDBRANCH   1   3
BRANCH   1  26
ATOM     20  C   UNL     1       0.652   9.134  21.294  0.00  0.00    +0.000 C 
ATOM     21  C   UNL     1       1.380   8.187  20.376  0.00  0.00    +0.000 A 
ATOM     22  C   UNL     1       1.617   6.877  20.835  0.00  0.00    +0.000 A 
ATOM     23  C   UNL     1       2.280   5.939  20.038  0.00  0.00    +0.000 A 
ATOM     24  C   UNL     1       2.691   6.297  18.763  0.00  0.00    +0.000 A 
ATOM     25  C   UNL     1       2.489   7.596  18.308  0.00  0.00    +0.000 A 
ATOM     26  C   UNL     1       1.867   8.576  19.108  0.00  0.00    +0.000 A 
BRANCH  24  27
ATOM     27  N   UNL     1       3.324   5.344  17.902  0.00  0.00    +0.000 N 
ATOM     28  H   UNL     1       2.669   4.653  17.529  0.00  0.00    +0.000 HD
BRANCH  27  29
ATOM     29  S   UNL     1       4.659   4.493  18.510  0.00  0.00    +0.000 S 
ATOM     30  O   UNL     1       5.117   5.102  19.739  0.00  0.00    +0.000 OA
ATOM     31  O   UNL     1       4.244   3.105  18.478  0.00  0.00    +0.000 OA
BRANCH  29  32
ATOM     32  C   UNL     1       5.920   4.762  17.233  0.00  0.00    +0.000 C 
ATOM     33  C   UNL     1       5.644   6.052  16.443  0.00  0.00    +0.000 C 
ATOM     34  C   UNL     1       6.086   7.323  17.167  0.00  0.00    +0.000 C 
ATOM     35  C   UNL     1       7.553   7.252  17.569  0.00  0.00    +0.000 C 
ATOM     36  C   UNL     1       7.854   6.014  18.404  0.00  0.00    +0.000 C 
ATOM     37  C   UNL     1       7.363   4.720  17.754  0.00  0.00    +0.000 C 
ENDBRANCH  29  32
ENDBRANCH  27  29
ENDBRANCH  24  27
ENDBRANCH   1  26
TORSDOF 5
ENDMDL
MODEL 3
REMARK VINA RESULT:      -8.6      2.163      2.996
REMARK  Name = 
REMARK  7 active torsions:
REMARK  status: ('A' for Active; 'I' for Inactive)
REMARK    1  A    between atoms: C_1  and  C_2
REMARK    2  A    between atoms: C_5  and  N_6
REMARK    3  A    between atoms: N_6  and  S_7
REMARK    4  A    between atoms: S_7  and  C_10
REMARK    5  A    between atoms: C_17  and  N_18
REMARK    6  A    between atoms: N_18  and  C_19
REMARK    7  A    between atoms: N_30  and  C_31
REMARK                            x       y       z     vdW  Elec       q    Type
REMARK                         _______ _______ _______ _____ _____    ______ ____
ROOT
ATOM      1  N   UNL     1       0.332  11.426  18.514  0.00  0.00    +0.000 N 
ATOM      2  H   UNL     1      -0.678  11.520  18.566  0.00  0.00    +0.000 HD
ENDROOT
BRANCH   1   3
ATOM      3  C   UNL     1       0.927  12.722  18.643  0.00  0.00    +0.000 A 
ATOM      4  N   UNL     1       2.165  12.932  18.140  0.00  0.00    +0.000 NA
ATOM      5  C   UNL     1       2.685  14.152  18.263  0.00  0.00    +0.000 A 
ATOM      6  N   UNL     1       2.084  15.189  18.840  0.00  0.00    +0.000 NA
ATOM      7  C   UNL     1       0.851  14.950  19.324  0.00  0.00    +0.000 A 
ATOM      8  C   UNL     1       0.136  15.932  19.962  0.00  0.00    +0.000 A 
ATOM      9  N   UNL     1      -1.099  15.784  20.484  0.00  0.00    +0.000 NA
ATOM     10  C   UNL     1      -1.675  14.583  20.378  0.00  0.00    +0.000 A 
ATOM     11  N   UNL     1      -2.889  14.380  20.974  0.00  0.00    +0.000 N 
ATOM     12  C   UNL     1      -3.646  15.502  21.530  0.00  0.00    +0.000 C 
ATOM     13  C   UNL     1      -4.417  15.018  22.781  0.00  0.00    +0.000 C 
ATOM     14  N   UNL     1      -5.270  13.835  22.512  0.00  0.00    +0.000 NA
ATOM     15  C   UNL     1      -5.914  13.380  23.741  0.00  0.00    +0.000 C 
ATOM     16  C   UNL     1      -4.442  12.752  21.932  0.00  0.00    +0.000 C 
ATOM     17  C   UNL     1      -3.681  13.194  20.661  0.00  0.00    +0.000 C 
ATOM     18  N   UNL     1      -1.063  13.548  19.781  0.00  0.00    +0.000 NA
ATOM     19  C   UNL     1       0.181  13.736  19.262  0.00  0.00    +0.000 A 
ENDBRANCH   1   3
BRANCH   1  26
ATOM     20  C   UNL     1      -0.372  10.472  21.240  0.00  0.00    +0.000 C 
ATOM     21  C   UNL     1       0.536   9.727  20.297  0.00  0.00    +0.000 A 
ATOM     22  C   UNL     1       1.127   8.535  20.757  0.00  0.00    +0.000 A 
ATOM     23  C   UNL     1       1.977   7.784  19.938  0.00  0.00    +0.000 A 
ATOM     24  C   UNL     1       2.223   8.208  18.641  0.00  0.00    +0.000 A 
ATOM     25  C   UNL     1       1.669   9.400  18.184  0.00  0.00    +0.000 A 
ATOM     26  C   UNL     1       0.849  10.201  19.003  0.00  0.00    +0.000 A 
BRANCH  24  27
ATOM     27  N   UNL     1       3.044   7.435  17.760  0.00  0.00    +0.000 N 
ATOM     28  H   UNL     1       2.724   7.469  16.789  0.00  0.00    +0.000 HD
BRANCH  27  29
ATOM     29  S   UNL     1       3.301   5.803  18.146  0.00  0.00    +0.000 S 
ATOM     30  O   UNL     1       3.930   5.695  19.443  0.00  0.00    +0.000 OA
ATOM     31  O   UNL     1       2.026   5.168  17.883  0.00  0.00    +0.000 OA
BRANCH  29  32
ATOM     32  C   UNL     1       4.495   5.278  16.885  0.00  0.00    +0.000 C 
ATOM     33  C   UNL     1       5.237   6.484  16.284  0.00  0.00    +0.000 C 
ATOM     34  C   UNL     1       6.373   7.006  17.162  0.00  0.00    +0.000 C 
ATOM     35  C   UNL     1       7.359   5.900  17.512  0.00  0.00    +0.000 C 
ATOM     36  C   UNL     1       6.668   4.708  18.163  0.00  0.00    +0.000 C 
ATOM     37  C   UNL     1       5.474   4.194  17.356  0.00  0.00    +0.000 C 
ENDBRANCH  29  32
ENDBRANCH  27  29
ENDBRANCH  24  27
ENDBRANCH   1  26
TORSDOF 5
ENDMDL
MODEL 4
REMARK VINA RESULT:      -8.6      2.045      2.727
REMARK  Name = 
REMARK  7 active torsions:
REMARK  status: ('A' for Active; 'I' for Inactive)
REMARK    1  A    between atoms: C_1  and  C_2
REMARK    2  A    between atoms: C_5  and  N_6
REMARK    3  A    between atoms: N_6  and  S_7
REMARK    4  A    between atoms: S_7  and  C_10
REMARK    5  A    between atoms: C_17  and  N_18
REMARK    6  A    between atoms: N_18  and  C_19
REMARK    7  A    between atoms: N_30  and  C_31
REMARK                            x       y       z     vdW  Elec       q    Type
REMARK                         _______ _______ _______ _____ _____    ______ ____
ROOT
ATOM      1  N   UNL     1      -1.012  11.153  19.737  0.00  0.00    +0.000 N 
ATOM      2  H   UNL     1      -0.642  12.099  19.729  0.00  0.00    +0.000 HD
ENDROOT
BRANCH   1   3
ATOM      3  C   UNL     1      -1.882  10.983  18.613  0.00  0.00    +0.000 A 
ATOM      4  N   UNL     1      -1.447  10.279  17.543  0.00  0.00    +0.000 NA
ATOM      5  C   UNL     1      -2.286  10.126  16.520  0.00  0.00    +0.000 A 
ATOM      6  N   UNL     1      -3.524  10.610  16.461  0.00  0.00    +0.000 NA
ATOM      7  C   UNL     1      -3.929  11.300  17.544  0.00  0.00    +0.000 A 
ATOM      8  C   UNL     1      -5.178  11.868  17.598  0.00  0.00    +0.000 A 
ATOM      9  N   UNL     1      -5.667  12.580  18.633  0.00  0.00    +0.000 NA
ATOM     10  C   UNL     1      -4.872  12.754  19.694  0.00  0.00    +0.000 A 
ATOM     11  N   UNL     1      -5.309  13.545  20.720  0.00  0.00    +0.000 N 
ATOM     12  C   UNL     1      -6.693  14.016  20.765  0.00  0.00    +0.000 C 
ATOM     13  C   UNL     1      -6.724  15.427  21.398  0.00  0.00    +0.000 C 
ATOM     14  N   UNL     1      -6.064  15.479  22.726  0.00  0.00    +0.000 NA
ATOM     15  C   UNL     1      -6.059  16.846  23.240  0.00  0.00    +0.000 C 
ATOM     16  C   UNL     1      -4.678  14.968  22.606  0.00  0.00    +0.000 C 
ATOM     17  C   UNL     1      -4.614  13.546  22.004  0.00  0.00    +0.000 C 
ATOM     18  N   UNL     1      -3.629  12.250  19.745  0.00  0.00    +0.000 NA
ATOM     19  C   UNL     1      -3.171  11.532  18.683  0.00  0.00    +0.000 A 
ENDBRANCH   1   3
BRANCH   1  26
ATOM     20  C   UNL     1      -0.918  10.755  22.682  0.00  0.00    +0.000 C 
ATOM     21  C   UNL     1      -0.086   9.971  21.701  0.00  0.00    +0.000 A 
ATOM     22  C   UNL     1       0.827   9.033  22.216  0.00  0.00    +0.000 A 
ATOM     23  C   UNL     1       1.631   8.263  21.369  0.00  0.00    +0.000 A 
ATOM     24  C   UNL     1       1.508   8.409  19.995  0.00  0.00    +0.000 A 
ATOM     25  C   UNL     1       0.630   9.354  19.474  0.00  0.00    +0.000 A 
ATOM     26  C   UNL     1      -0.156  10.177  20.304  0.00  0.00    +0.000 A 
BRANCH  24  27
ATOM     27  N   UNL     1       2.276   7.598  19.100  0.00  0.00    +0.000 N 
ATOM     28  H   UNL     1       1.924   7.626  18.141  0.00  0.00    +0.000 HD
BRANCH  27  29
ATOM     29  S   UNL     1       2.500   5.966  19.504  0.00  0.00    +0.000 S 
ATOM     30  O   UNL     1       3.846   5.757  19.991  0.00  0.00    +0.000 OA
ATOM     31  O   UNL     1       1.353   5.641  20.328  0.00  0.00    +0.000 OA
BRANCH  29  32
ATOM     32  C   UNL     1       2.334   5.131  17.902  0.00  0.00    +0.000 C 
ATOM     33  C   UNL     1       3.695   4.622  17.398  0.00  0.00    +0.000 C 
ATOM     34  C   UNL     1       4.142   3.314  18.049  0.00  0.00    +0.000 C 
ATOM     35  C   UNL     1       3.084   2.230  17.901  0.00  0.00    +0.000 C 
ATOM     36  C   UNL     1       1.732   2.677  18.443  0.00  0.00    +0.000 C 
ATOM     37  C   UNL     1       1.275   4.022  17.876  0.00  0.00    +0.000 C 
ENDBRANCH  29  32
ENDBRANCH  27  29
ENDBRANCH  24  27
ENDBRANCH   1  26
TORSDOF 5
ENDMDL
MODEL 5
REMARK VINA RESULT:      -8.5      3.753      4.637
REMARK  Name = 
REMARK  7 active torsions:
REMARK  status: ('A' for Active; 'I' for Inactive)
REMARK    1  A    between atoms: C_1  and  C_2
REMARK    2  A    between atoms: C_5  and  N_6
REMARK    3  A    between atoms: N_6  and  S_7
REMARK    4  A    between atoms: S_7  and  C_10
REMARK    5  A    between atoms: C_17  and  N_18
REMARK    6  A    between atoms: N_18  and  C_19
REMARK    7  A    between atoms: N_30  and  C_31
REMARK                            x       y       z     vdW  Elec       q    Type
REMARK                         _______ _______ _______ _____ _____    ______ ____
ROOT
ATOM      1  N   UNL     1       1.679  10.031  18.777  0.00  0.00    +0.000 N 
ATOM      2  H   UNL     1       2.389  10.326  18.114  0.00  0.00    +0.000 HD
ENDROOT
BRANCH   1   3
ATOM      3  C   UNL     1       0.468  10.748  18.514  0.00  0.00    +0.000 A 
ATOM      4  N   UNL     1      -0.599  10.081  18.017  0.00  0.00    +0.000 NA
ATOM      5  C   UNL     1      -1.715  10.773  17.798  0.00  0.00    +0.000 A 
ATOM      6  N   UNL     1      -1.871  12.074  18.028  0.00  0.00    +0.000 NA
ATOM      7  C   UNL     1      -0.793  12.708  18.528  0.00  0.00    +0.000 A 
ATOM      8  C   UNL     1      -0.820  14.056  18.788  0.00  0.00    +0.000 A 
ATOM      9  N   UNL     1       0.209  14.775  19.281  0.00  0.00    +0.000 NA
ATOM     10  C   UNL     1       1.352  14.128  19.533  0.00  0.00    +0.000 A 
ATOM     11  N   UNL     1       2.437  14.847  19.950  0.00  0.00    +0.000 N 
ATOM     12  C   UNL     1       2.303  16.256  20.322  0.00  0.00    +0.000 C 
ATOM     13  C   UNL     1       3.597  17.006  19.927  0.00  0.00    +0.000 C 
ATOM     14  N   UNL     1       4.820  16.384  20.490  0.00  0.00    +0.000 NA
ATOM     15  C   UNL     1       6.011  17.090  20.025  0.00  0.00    +0.000 C 
ATOM     16  C   UNL     1       4.876  14.958  20.090  0.00  0.00    +0.000 C 
ATOM     17  C   UNL     1       3.609  14.172  20.498  0.00  0.00    +0.000 C 
ATOM     18  N   UNL     1       1.490  12.812  19.308  0.00  0.00    +0.000 NA
ATOM     19  C   UNL     1       0.429  12.118  18.814  0.00  0.00    +0.000 A 
ENDBRANCH   1   3
BRANCH   1  26
ATOM     20  C   UNL     1       0.899   9.293  21.550  0.00  0.00    +0.000 C 
ATOM     21  C   UNL     1       1.436   8.314  20.539  0.00  0.00    +0.000 A 
ATOM     22  C   UNL     1       1.629   6.982  20.952  0.00  0.00    +0.000 A 
ATOM     23  C   UNL     1       2.120   6.014  20.070  0.00  0.00    +0.000 A 
ATOM     24  C   UNL     1       2.397   6.366  18.757  0.00  0.00    +0.000 A 
ATOM     25  C   UNL     1       2.238   7.685  18.344  0.00  0.00    +0.000 A 
ATOM     26  C   UNL     1       1.793   8.692  19.224  0.00  0.00    +0.000 A 
BRANCH  24  27
ATOM     27  N   UNL     1       2.848   5.387  17.815  0.00  0.00    +0.000 N 
ATOM     28  H   UNL     1       2.183   4.619  17.695  0.00  0.00    +0.000 HD
BRANCH  27  29
ATOM     29  S   UNL     1       4.375   4.693  18.064  0.00  0.00    +0.000 S 
ATOM     30  O   UNL     1       5.203   4.886  16.893  0.00  0.00    +0.000 OA
ATOM     31  O   UNL     1       4.790   5.196  19.358  0.00  0.00    +0.000 OA
BRANCH  29  32
ATOM     32  C   UNL     1       3.993   2.926  18.210  0.00  0.00    +0.000 C 
ATOM     33  C   UNL     1       4.144   2.443  19.662  0.00  0.00    +0.000 C 
ATOM     34  C   UNL     1       2.951   2.788  20.552  0.00  0.00    +0.000 C 
ATOM     35  C   UNL     1       1.647   2.275  19.957  0.00  0.00    +0.000 C 
ATOM     36  C   UNL     1       1.433   2.781  18.536  0.00  0.00    +0.000 C 
ATOM     37  C   UNL     1       2.634   2.524  17.622  0.00  0.00    +0.000 C 
ENDBRANCH  29  32
ENDBRANCH  27  29
ENDBRANCH  24  27
ENDBRANCH   1  26
TORSDOF 5
ENDMDL
MODEL 6
REMARK VINA RESULT:      -8.5      3.326      4.024
REMARK  Name = 
REMARK  7 active torsions:
REMARK  status: ('A' for Active; 'I' for Inactive)
REMARK    1  A    between atoms: C_1  and  C_2
REMARK    2  A    between atoms: C_5  and  N_6
REMARK    3  A    between atoms: N_6  and  S_7
REMARK    4  A    between atoms: S_7  and  C_10
REMARK    5  A    between atoms: C_17  and  N_18
REMARK    6  A    between atoms: N_18  and  C_19
REMARK    7  A    between atoms: N_30  and  C_31
REMARK                            x       y       z     vdW  Elec       q    Type
REMARK                         _______ _______ _______ _____ _____    ______ ____
ROOT
ATOM      1  N   UNL     1       1.682   9.901  18.882  0.00  0.00    +0.000 N 
ATOM      2  H   UNL     1       2.441  10.207  18.281  0.00  0.00    +0.000 HD
ENDROOT
BRANCH   1   3
ATOM      3  C   UNL     1       0.492  10.614  18.528  0.00  0.00    +0.000 A 
ATOM      4  N   UNL     1      -0.532   9.943  17.952  0.00  0.00    +0.000 NA
ATOM      5  C   UNL     1      -1.630  10.633  17.649  0.00  0.00    +0.000 A 
ATOM      6  N   UNL     1      -1.808  11.933  17.868  0.00  0.00    +0.000 NA
ATOM      7  C   UNL     1      -0.774  12.570  18.450  0.00  0.00    +0.000 A 
ATOM      8  C   UNL     1      -0.824  13.917  18.708  0.00  0.00    +0.000 A 
ATOM      9  N   UNL     1       0.161  14.639  19.278  0.00  0.00    +0.000 NA
ATOM     10  C   UNL     1       1.284  13.996  19.616  0.00  0.00    +0.000 A 
ATOM     11  N   UNL     1       2.332  14.718  20.114  0.00  0.00    +0.000 N 
ATOM     12  C   UNL     1       2.165  16.126  20.477  0.00  0.00    +0.000 C 
ATOM     13  C   UNL     1       3.482  16.881  20.182  0.00  0.00    +0.000 C 
ATOM     14  N   UNL     1       4.661  16.263  20.836  0.00  0.00    +0.000 NA
ATOM     15  C   UNL     1       5.882  16.973  20.463  0.00  0.00    +0.000 C 
ATOM     16  C   UNL     1       4.753  14.837  20.440  0.00  0.00    +0.000 C 
ATOM     17  C   UNL     1       3.462  14.046  20.750  0.00  0.00    +0.000 C 
ATOM     18  N   UNL     1       1.444  12.681  19.400  0.00  0.00    +0.000 NA
ATOM     19  C   UNL     1       0.426  11.983  18.827  0.00  0.00    +0.000 A 
ENDBRANCH   1   3
BRANCH   1  26
ATOM     20  C   UNL     1       0.947   9.180  21.671  0.00  0.00    +0.000 C 
ATOM     21  C   UNL     1       1.432   8.188  20.646  0.00  0.00    +0.000 A 
ATOM     22  C   UNL     1       1.596   6.850  21.052  0.00  0.00    +0.000 A 
ATOM     23  C   UNL     1       2.036   5.870  20.158  0.00  0.00    +0.000 A 
ATOM     24  C   UNL     1       2.293   6.216  18.839  0.00  0.00    +0.000 A 
ATOM     25  C   UNL     1       2.163   7.541  18.432  0.00  0.00    +0.000 A 
ATOM     26  C   UNL     1       1.768   8.558  19.324  0.00  0.00    +0.000 A 
BRANCH  24  27
ATOM     27  N   UNL     1       2.693   5.227  17.886  0.00  0.00    +0.000 N 
ATOM     28  H   UNL     1       2.014   4.467  17.797  0.00  0.00    +0.000 HD
BRANCH  27  29
ATOM     29  S   UNL     1       4.220   4.515  18.077  0.00  0.00    +0.000 S 
ATOM     30  O   UNL     1       4.487   4.285  19.480  0.00  0.00    +0.000 OA
ATOM     31  O   UNL     1       4.224   3.418  17.131  0.00  0.00    +0.000 OA
BRANCH  29  32
ATOM     32  C   UNL     1       5.343   5.811  17.485  0.00  0.00    +0.000 C 
ATOM     33  C   UNL     1       6.813   5.414  17.700  0.00  0.00    +0.000 C 
ATOM     34  C   UNL     1       7.349   4.449  16.644  0.00  0.00    +0.000 C 
ATOM     35  C   UNL     1       7.149   4.996  15.237  0.00  0.00    +0.000 C 
ATOM     36  C   UNL     1       5.692   5.349  14.967  0.00  0.00    +0.000 C 
ATOM     37  C   UNL     1       5.086   6.256  16.040  0.00  0.00    +0.000 C 
ENDBRANCH  29  32
ENDBRANCH  27  29
ENDBRANCH  24  27
ENDBRANCH   1  26
TORSDOF 5
ENDMDL
MODEL 7
REMARK VINA RESULT:      -8.5      2.599      3.763
REMARK  Name = 
REMARK  7 active torsions:
REMARK  status: ('A' for Active; 'I' for Inactive)
REMARK    1  A    between atoms: C_1  and  C_2
REMARK    2  A    between atoms: C_5  and  N_6
REMARK    3  A    between atoms: N_6  and  S_7
REMARK    4  A    between atoms: S_7  and  C_10
REMARK    5  A    between atoms: C_17  and  N_18
REMARK    6  A    between atoms: N_18  and  C_19
REMARK    7  A    between atoms: N_30  and  C_31
REMARK                            x       y       z     vdW  Elec       q    Type
REMARK                         _______ _______ _______ _____ _____    ______ ____
ROOT
ATOM      1  N   UNL     1       0.597  10.997  18.537  0.00  0.00    +0.000 N 
ATOM      2  H   UNL     1      -0.405  11.126  18.633  0.00  0.00    +0.000 HD
ENDROOT
BRANCH   1   3
ATOM      3  C   UNL     1       1.242  12.272  18.636  0.00  0.00    +0.000 A 
ATOM      4  N   UNL     1       2.503  12.411  18.167  0.00  0.00    +0.000 NA
ATOM      5  C   UNL     1       3.069  13.613  18.260  0.00  0.00    +0.000 A 
ATOM      6  N   UNL     1       2.494  14.695  18.777  0.00  0.00    +0.000 NA
ATOM      7  C   UNL     1       1.237  14.526  19.228  0.00  0.00    +0.000 A 
ATOM      8  C   UNL     1       0.544  15.561  19.804  0.00  0.00    +0.000 A 
ATOM      9  N   UNL     1      -0.712  15.484  20.290  0.00  0.00    +0.000 NA
ATOM     10  C   UNL     1      -1.334  14.304  20.211  0.00  0.00    +0.000 A 
ATOM     11  N   UNL     1      -2.573  14.174  20.774  0.00  0.00    +0.000 N 
ATOM     12  C   UNL     1      -3.300  15.347  21.261  0.00  0.00    +0.000 C 
ATOM     13  C   UNL     1      -4.130  14.945  22.503  0.00  0.00    +0.000 C 
ATOM     14  N   UNL     1      -5.023  13.787  22.251  0.00  0.00    +0.000 NA
ATOM     15  C   UNL     1      -5.724  13.408  23.475  0.00  0.00    +0.000 C 
ATOM     16  C   UNL     1      -4.222  12.649  21.741  0.00  0.00    +0.000 C 
ATOM     17  C   UNL     1      -3.404  13.010  20.481  0.00  0.00    +0.000 C 
ATOM     18  N   UNL     1      -0.746  13.222  19.675  0.00  0.00    +0.000 NA
ATOM     19  C   UNL     1       0.520  13.339  19.191  0.00  0.00    +0.000 A 
ENDBRANCH   1   3
BRANCH   1  26
ATOM     20  C   UNL     1      -0.091  10.031  21.264  0.00  0.00    +0.000 C 
ATOM     21  C   UNL     1       0.787   9.275  20.301  0.00  0.00    +0.000 A 
ATOM     22  C   UNL     1       1.357   8.066  20.741  0.00  0.00    +0.000 A 
ATOM     23  C   UNL     1       2.178   7.304  19.903  0.00  0.00    +0.000 A 
ATOM     24  C   UNL     1       2.416   7.736  18.607  0.00  0.00    +0.000 A 
ATOM     25  C   UNL     1       1.883   8.944  18.169  0.00  0.00    +0.000 A 
ATOM     26  C   UNL     1       1.093   9.755  19.007  0.00  0.00    +0.000 A 
BRANCH  24  27
ATOM     27  N   UNL     1       3.208   6.953  17.707  0.00  0.00    +0.000 N 
ATOM     28  H   UNL     1       2.687   6.659  16.877  0.00  0.00    +0.000 HD
BRANCH  27  29
ATOM     29  S   UNL     1       3.982   5.577  18.326  0.00  0.00    +0.000 S 
ATOM     30  O   UNL     1       5.355   5.536  17.872  0.00  0.00    +0.000 OA
ATOM     31  O   UNL     1       3.669   5.595  19.740  0.00  0.00    +0.000 OA
BRANCH  29  32
ATOM     32  C   UNL     1       3.076   4.218  17.536  0.00  0.00    +0.000 C 
ATOM     33  C   UNL     1       3.732   2.861  17.841  0.00  0.00    +0.000 C 
ATOM     34  C   UNL     1       3.385   2.308  19.223  0.00  0.00    +0.000 C 
ATOM     35  C   UNL     1       1.878   2.225  19.425  0.00  0.00    +0.000 C 
ATOM     36  C   UNL     1       1.198   3.567  19.187  0.00  0.00    +0.000 C 
ATOM     37  C   UNL     1       1.574   4.199  17.845  0.00  0.00    +0.000 C 
ENDBRANCH  29  32
ENDBRANCH  27  29
ENDBRANCH  24  27
ENDBRANCH   1  26
TORSDOF 5
ENDMDL
MODEL 8
REMARK VINA RESULT:      -8.5      1.210      1.676
REMARK  Name = 
REMARK  7 active torsions:
REMARK  status: ('A' for Active; 'I' for Inactive)
REMARK    1  A    between atoms: C_1  and  C_2
REMARK    2  A    between atoms: C_5  and  N_6
REMARK    3  A    between atoms: N_6  and  S_7
REMARK    4  A    between atoms: S_7  and  C_10
REMARK    5  A    between atoms: C_17  and  N_18
REMARK    6  A    between atoms: N_18  and  C_19
REMARK    7  A    between atoms: N_30  and  C_31
REMARK                            x       y       z     vdW  Elec       q    Type
REMARK                         _______ _______ _______ _____ _____    ______ ____
ROOT
ATOM      1  N   UNL     1      -0.442  11.123  19.058  0.00  0.00    +0.000 N 
ATOM      2  H   UNL     1       0.129  11.883  18.702  0.00  0.00    +0.000 HD
ENDROOT
BRANCH   1   3
ATOM      3  C   UNL     1      -1.613  10.998  18.243  0.00  0.00    +0.000 A 
ATOM      4  N   UNL     1      -1.531  10.330  17.070  0.00  0.00    +0.000 NA
ATOM      5  C   UNL     1      -2.641  10.219  16.343  0.00  0.00    +0.000 A 
ATOM      6  N   UNL     1      -3.832  10.711  16.676  0.00  0.00    +0.000 NA
ATOM      7  C   UNL     1      -3.882  11.364  17.852  0.00  0.00    +0.000 A 
ATOM      8  C   UNL     1      -5.047  11.936  18.298  0.00  0.00    +0.000 A 
ATOM      9  N   UNL     1      -5.190  12.614  19.455  0.00  0.00    +0.000 NA
ATOM     10  C   UNL     1      -4.110  12.745  20.233  0.00  0.00    +0.000 A 
ATOM     11  N   UNL     1      -4.205  13.501  21.368  0.00  0.00    +0.000 N 
ATOM     12  C   UNL     1      -5.504  13.977  21.843  0.00  0.00    +0.000 C 
ATOM     13  C   UNL     1      -5.321  15.365  22.502  0.00  0.00    +0.000 C 
ATOM     14  N   UNL     1      -4.291  15.366  23.569  0.00  0.00    +0.000 NA
ATOM     15  C   UNL     1      -4.110  16.714  24.102  0.00  0.00    +0.000 C 
ATOM     16  C   UNL     1      -3.013  14.852  23.021  0.00  0.00    +0.000 C 
ATOM     17  C   UNL     1      -3.156  13.452  22.382  0.00  0.00    +0.000 C 
ATOM     18  N   UNL     1      -2.918  12.232  19.890  0.00  0.00    +0.000 NA
ATOM     19  C   UNL     1      -2.812  11.551  18.717  0.00  0.00    +0.000 A 
ENDBRANCH   1   3
BRANCH   1  26
ATOM     20  C   UNL     1      -0.690  10.655  21.984  0.00  0.00    +0.000 C 
ATOM     21  C   UNL     1       0.181   9.832  21.072  0.00  0.00    +0.000 A 
ATOM     22  C   UNL     1       0.964   8.815  21.651  0.00  0.00    +0.000 A 
ATOM     23  C   UNL     1       1.793   8.005  20.870  0.00  0.00    +0.000 A 
ATOM     24  C   UNL     1       1.828   8.189  19.495  0.00  0.00    +0.000 A 
ATOM     25  C   UNL     1       1.081   9.210  18.914  0.00  0.00    +0.000 A 
ATOM     26  C   UNL     1       0.275  10.072  19.682  0.00  0.00    +0.000 A 
BRANCH  24  27
ATOM     27  N   UNL     1       2.624   7.342  18.662  0.00  0.00    +0.000 N 
ATOM     28  H   UNL     1       2.430   7.472  17.666  0.00  0.00    +0.000 HD
BRANCH  27  29
ATOM     29  S   UNL     1       2.589   5.674  18.965  0.00  0.00    +0.000 S 
ATOM     30  O   UNL     1       2.167   5.427  20.326  0.00  0.00    +0.000 OA
ATOM     31  O   UNL     1       1.852   5.122  17.846  0.00  0.00    +0.000 OA
BRANCH  29  32
ATOM     32  C   UNL     1       4.335   5.203  18.813  0.00  0.00    +0.000 C 
ATOM     33  C   UNL     1       4.479   3.726  18.408  0.00  0.00    +0.000 C 
ATOM     34  C   UNL     1       4.267   3.474  16.916  0.00  0.00    +0.000 C 
ATOM     35  C   UNL     1       5.184   4.346  16.069  0.00  0.00    +0.000 C 
ATOM     36  C   UNL     1       5.028   5.825  16.402  0.00  0.00    +0.000 C 
ATOM     37  C   UNL     1       5.158   6.119  17.898  0.00  0.00    +0.000 C 
ENDBRANCH  29  32
ENDBRANCH  27  29
ENDBRANCH  24  27
ENDBRANCH   1  26
TORSDOF 5
ENDMDL
MODEL 9
REMARK VINA RESULT:      -8.5      0.874      1.262
REMARK  Name = 
REMARK  7 active torsions:
REMARK  status: ('A' for Active; 'I' for Inactive)
REMARK    1  A    between atoms: C_1  and  C_2
REMARK    2  A    between atoms: C_5  and  N_6
REMARK    3  A    between atoms: N_6  and  S_7
REMARK    4  A    between atoms: S_7  and  C_10
REMARK    5  A    between atoms: C_17  and  N_18
REMARK    6  A    between atoms: N_18  and  C_19
REMARK    7  A    between atoms: N_30  and  C_31
REMARK                            x       y       z     vdW  Elec       q    Type
REMARK                         _______ _______ _______ _____ _____    ______ ____
ROOT
ATOM      1  N   UNL     1       0.291  10.460  18.843  0.00  0.00    +0.000 N 
ATOM      2  H   UNL     1       0.901  11.137  18.395  0.00  0.00    +0.000 HD
ENDROOT
BRANCH   1   3
ATOM      3  C   UNL     1      -1.022  10.573  18.283  0.00  0.00    +0.000 A 
ATOM      4  N   UNL     1      -1.306   9.926  17.130  0.00  0.00    +0.000 NA
ATOM      5  C   UNL     1      -2.540  10.040  16.643  0.00  0.00    +0.000 A 
ATOM      6  N   UNL     1      -3.525  10.739  17.200  0.00  0.00    +0.000 NA
ATOM      7  C   UNL     1      -3.213  11.366  18.351  0.00  0.00    +0.000 A 
ATOM      8  C   UNL     1      -4.136  12.137  19.011  0.00  0.00    +0.000 A 
ATOM      9  N   UNL     1      -3.914  12.806  20.161  0.00  0.00    +0.000 NA
ATOM     10  C   UNL     1      -2.695  12.717  20.703  0.00  0.00    +0.000 A 
ATOM     11  N   UNL     1      -2.415  13.454  21.820  0.00  0.00    +0.000 N 
ATOM     12  C   UNL     1      -3.479  14.156  22.538  0.00  0.00    +0.000 C 
ATOM     13  C   UNL     1      -2.909  15.471  23.121  0.00  0.00    +0.000 C 
ATOM     14  N   UNL     1      -1.704  15.257  23.959  0.00  0.00    +0.000 NA
ATOM     15  C   UNL     1      -1.170  16.536  24.420  0.00  0.00    +0.000 C 
ATOM     16  C   UNL     1      -0.683  14.524  23.175  0.00  0.00    +0.000 C 
ATOM     17  C   UNL     1      -1.212  13.189  22.603  0.00  0.00    +0.000 C 
ATOM     18  N   UNL     1      -1.714  11.997  20.136  0.00  0.00    +0.000 NA
ATOM     19  C   UNL     1      -1.976  11.332  18.978  0.00  0.00    +0.000 A 
ENDBRANCH   1   3
BRANCH   1  26
ATOM     20  C   UNL     1       0.255   9.699  21.717  0.00  0.00    +0.000 C 
ATOM     21  C   UNL     1       0.932   8.890  20.642  0.00  0.00    +0.000 A 
ATOM     22  C   UNL     1       1.634   7.734  21.032  0.00  0.00    +0.000 A 
ATOM     23  C   UNL     1       2.284   6.929  20.092  0.00  0.00    +0.000 A 
ATOM     24  C   UNL     1       2.215   7.260  18.747  0.00  0.00    +0.000 A 
ATOM     25  C   UNL     1       1.549   8.416  18.351  0.00  0.00    +0.000 A 
ATOM     26  C   UNL     1       0.928   9.272  19.281  0.00  0.00    +0.000 A 
BRANCH  24  27
ATOM     27  N   UNL     1       2.823   6.427  17.755  0.00  0.00    +0.000 N 
ATOM     28  H   UNL     1       2.173   5.744  17.361  0.00  0.00    +0.000 HD
BRANCH  27  29
ATOM     29  S   UNL     1       4.234   5.589  18.181  0.00  0.00    +0.000 S 
ATOM     30  O   UNL     1       4.519   5.781  19.586  0.00  0.00    +0.000 OA
ATOM     31  O   UNL     1       4.040   4.260  17.637  0.00  0.00    +0.000 OA
BRANCH  29  32
ATOM     32  C   UNL     1       5.513   6.442  17.217  0.00  0.00    +0.000 C 
ATOM     33  C   UNL     1       6.915   5.911  17.560  0.00  0.00    +0.000 C 
ATOM     34  C   UNL     1       7.257   4.590  16.871  0.00  0.00    +0.000 C 
ATOM     35  C   UNL     1       7.084   4.689  15.362  0.00  0.00    +0.000 C 
ATOM     36  C   UNL     1       5.685   5.159  14.980  0.00  0.00    +0.000 C 
ATOM     37  C   UNL     1       5.266   6.441  15.703  0.00  0.00    +0.000 C 
ENDBRANCH  29  32
ENDBRANCH  27  29
ENDBRANCH  24  27
ENDBRANCH   1  26
TORSDOF 5
ENDMDL
