MODEL 1
REMARK VINA RESULT:      -7.3      0.000      0.000
REMARK  Name = 
REMARK  16 active torsions:
REMARK  status: ('A' for Active; 'I' for Inactive)
REMARK    1  A    between atoms: C_1  and  C_2
REMARK    2  A    between atoms: C_2  and  C_3
REMARK    3  A    between atoms: C_2  and  C_4
REMARK    4  A    between atoms: C_4  and  N_5
REMARK    5  A    between atoms: C_4  and  C_27
REMARK    6  A    between atoms: C_6  and  C_8
REMARK    7  A    between atoms: C_8  and  C_9
REMARK    8  A    between atoms: C_8  and  N_10
REMARK    9  A    between atoms: C_11  and  C_13
REMARK   10  A    between atoms: C_13  and  N_14
REMARK   11  A    between atoms: C_13  and  C_23
REMARK   12  A    between atoms: C_15  and  C_17
REMARK   13  A    between atoms: C_23  and  C_24
REMARK   14  A    between atoms: C_23  and  C_25
REMARK   15  A    between atoms: C_23  and  C_26
REMARK   16  A    between atoms: C_27  and  C_29
REMARK                            x       y       z     vdW  Elec       q    Type
REMARK                         _______ _______ _______ _____ _____    ______ ____
ROOT
ATOM      1  N   UNL     1       1.648   8.844  19.334  0.00  0.00    +0.000 N 
ATOM      2  C   UNL     1       1.422   9.973  18.586  0.00  0.00    +0.000 C 
ATOM      3  O   UNL     1       1.661   9.972  17.378  0.00  0.00    +0.000 OA
ATOM      4  H   UNL     1       1.461   8.870  20.335  0.00  0.00    +0.000 HD
ENDROOT
BRANCH   1   5
ATOM      5  C   UNL     1       2.055   7.586  18.699  0.00  0.00    +0.000 C 
ATOM      6  C   UNL     1       3.382   7.750  17.967  0.00  0.00    +0.000 C 
BRANCH   5   8
ATOM      7  N   UNL     1       2.826   5.319  19.307  0.00  0.00    +0.000 N 
ATOM      8  C   UNL     1       2.124   6.431  19.736  0.00  0.00    +0.000 C 
ATOM      9  O   UNL     1       1.655   6.517  20.868  0.00  0.00    +0.000 OA
ATOM     10  H   UNL     1       3.366   5.422  18.447  0.00  0.00    +0.000 HD
BRANCH   7  11
ATOM     11  C   UNL     1       2.966   4.097  20.106  0.00  0.00    +0.000 C 
BRANCH  11  13
ATOM     12  C   UNL     1       1.416   2.612  21.522  0.00  0.00    +0.000 C 
ATOM     13  C   UNL     1       1.611   3.330  20.186  0.00  0.00    +0.000 C 
ATOM     14  C   UNL     1       1.369   2.365  19.019  0.00  0.00    +0.000 C 
ENDBRANCH  11  13
BRANCH  11  15
ATOM     15  C   UNL     1       4.094   3.228  19.531  0.00  0.00    +0.000 C 
ATOM     16  O   UNL     1       4.445   2.132  19.965  0.00  0.00    +0.000 OA
BRANCH  15  17
ATOM     17  C   UNL     1       4.755   3.717  18.242  0.00  0.00    +0.000 C 
ATOM     18  N   UNL     1       6.094   3.989  18.355  0.00  0.00    +0.000 N 
ATOM     19  O   UNL     1       4.133   3.845  17.203  0.00  0.00    +0.000 OA
ATOM     20  H   UNL     1       6.567   3.854  19.243  0.00  0.00    +0.000 HD
ATOM     21  H   UNL     1       6.617   4.285  17.545  0.00  0.00    +0.000 HD
ENDBRANCH  15  17
ENDBRANCH  11  15
ENDBRANCH   7  11
ENDBRANCH   5   8
ENDBRANCH   1   5
BRANCH   2  22
ATOM     22  C   UNL     1       0.865  11.200  19.352  0.00  0.00    +0.000 C 
BRANCH  22  23
ATOM     23  N   UNL     1       1.683  12.357  19.002  0.00  0.00    +0.000 N 
ATOM     24  C   UNL     1       2.274  13.162  19.951  0.00  0.00    +0.000 C 
ATOM     25  O   UNL     1       2.181  12.959  21.155  0.00  0.00    +0.000 OA
ATOM     26  H   UNL     1       2.058  12.386  18.063  0.00  0.00    +0.000 HD
BRANCH  24  27
ATOM     27  C   UNL     1       3.092  14.286  19.408  0.00  0.00    +0.000 A 
ATOM     28  C   UNL     1       3.981  15.004  20.224  0.00  0.00    +0.000 A 
ATOM     29  C   UNL     1       4.686  16.092  19.707  0.00  0.00    +0.000 A 
ATOM     30  C   UNL     1       4.520  16.457  18.373  0.00  0.00    +0.000 A 
ATOM     31  C   UNL     1       3.667  15.725  17.547  0.00  0.00    +0.000 A 
ATOM     32  C   UNL     1       2.957  14.635  18.061  0.00  0.00    +0.000 A 
ENDBRANCH  24  27
ENDBRANCH  22  23
BRANCH  22  33
ATOM     33  C   UNL     1      -0.656  11.470  19.084  0.00  0.00    +0.000 C 
ATOM     34  C   UNL     1      -0.795  12.652  18.110  0.00  0.00    +0.000 C 
ATOM     35  C   UNL     1      -1.296  10.238  18.408  0.00  0.00    +0.000 C 
ATOM     36  C   UNL     1      -1.474  11.774  20.357  0.00  0.00    +0.000 C 
ENDBRANCH  22  33
ENDBRANCH   2  22
TORSDOF 10
ENDMDL
MODEL 2
REMARK VINA RESULT:      -7.3      2.096      8.361
REMARK  Name = 
REMARK  16 active torsions:
REMARK  status: ('A' for Active; 'I' for Inactive)
REMARK    1  A    between atoms: C_1  and  C_2
REMARK    2  A    between atoms: C_2  and  C_3
REMARK    3  A    between atoms: C_2  and  C_4
REMARK    4  A    between atoms: C_4  and  N_5
REMARK    5  A    between atoms: C_4  and  C_27
REMARK    6  A    between atoms: C_6  and  C_8
REMARK    7  A    between atoms: C_8  and  C_9
REMARK    8  A    between atoms: C_8  and  N_10
REMARK    9  A    between atoms: C_11  and  C_13
REMARK   10  A    between atoms: C_13  and  N_14
REMARK   11  A    between atoms: C_13  and  C_23
REMARK   12  A    between atoms: C_15  and  C_17
REMARK   13  A    between atoms: C_23  and  C_24
REMARK   14  A    between atoms: C_23  and  C_25
REMARK   15  A    between atoms: C_23  and  C_26
REMARK   16  A    between atoms: C_27  and  C_29
REMARK                            x       y       z     vdW  Elec       q    Type
REMARK                         _______ _______ _______ _____ _____    ______ ____
ROOT
ATOM      1  N   UNL     1       2.117   6.812  20.235  0.00  0.00    +0.000 N 
ATOM      2  C   UNL     1       1.600   5.547  20.107  0.00  0.00    +0.000 C 
ATOM      3  O   UNL     1       0.450   5.308  20.479  0.00  0.00    +0.000 OA
ATOM      4  H   UNL     1       3.076   6.986  19.938  0.00  0.00    +0.000 HD
ENDROOT
BRANCH   1   5
ATOM      5  C   UNL     1       1.282   7.926  20.695  0.00  0.00    +0.000 C 
ATOM      6  C   UNL     1       1.774   8.459  22.036  0.00  0.00    +0.000 C 
BRANCH   5   8
ATOM      7  N   UNL     1       0.780  10.275  20.117  0.00  0.00    +0.000 N 
ATOM      8  C   UNL     1       1.218   9.056  19.631  0.00  0.00    +0.000 C 
ATOM      9  O   UNL     1       1.586   8.904  18.469  0.00  0.00    +0.000 OA
ATOM     10  H   UNL     1       0.710  10.365  21.131  0.00  0.00    +0.000 HD
BRANCH   7  11
ATOM     11  C   UNL     1       0.594  11.459  19.271  0.00  0.00    +0.000 C 
BRANCH  11  13
ATOM     12  C   UNL     1      -1.501  11.968  20.674  0.00  0.00    +0.000 C 
ATOM     13  C   UNL     1      -0.899  11.909  19.269  0.00  0.00    +0.000 C 
ATOM     14  C   UNL     1      -1.798  11.089  18.335  0.00  0.00    +0.000 C 
ENDBRANCH  11  13
BRANCH  11  15
ATOM     15  C   UNL     1       1.537  12.579  19.732  0.00  0.00    +0.000 C 
ATOM     16  O   UNL     1       1.928  12.757  20.885  0.00  0.00    +0.000 OA
BRANCH  15  17
ATOM     17  C   UNL     1       2.130  13.476  18.644  0.00  0.00    +0.000 C 
ATOM     18  N   UNL     1       2.551  12.810  17.522  0.00  0.00    +0.000 N 
ATOM     19  O   UNL     1       2.210  14.684  18.772  0.00  0.00    +0.000 OA
ATOM     20  H   UNL     1       2.451  11.801  17.462  0.00  0.00    +0.000 HD
ATOM     21  H   UNL     1       2.924  13.326  16.741  0.00  0.00    +0.000 HD
ENDBRANCH  15  17
ENDBRANCH  11  15
ENDBRANCH   7  11
ENDBRANCH   5   8
ENDBRANCH   1   5
BRANCH   2  22
ATOM     22  C   UNL     1       2.541   4.484  19.483  0.00  0.00    +0.000 C 
BRANCH  22  23
ATOM     23  N   UNL     1       3.869   5.076  19.360  0.00  0.00    +0.000 N 
ATOM     24  C   UNL     1       4.467   5.308  18.141  0.00  0.00    +0.000 C 
ATOM     25  O   UNL     1       3.927   5.059  17.070  0.00  0.00    +0.000 OA
ATOM     26  H   UNL     1       4.218   5.588  20.159  0.00  0.00    +0.000 HD
BRANCH  24  27
ATOM     27  C   UNL     1       5.818   5.939  18.208  0.00  0.00    +0.000 A 
ATOM     28  C   UNL     1       6.784   5.501  19.128  0.00  0.00    +0.000 A 
ATOM     29  C   UNL     1       8.017   6.151  19.214  0.00  0.00    +0.000 A 
ATOM     30  C   UNL     1       8.296   7.226  18.372  0.00  0.00    +0.000 A 
ATOM     31  C   UNL     1       7.355   7.640  17.429  0.00  0.00    +0.000 A 
ATOM     32  C   UNL     1       6.118   6.994  17.341  0.00  0.00    +0.000 A 
ENDBRANCH  24  27
ENDBRANCH  22  23
BRANCH  22  33
ATOM     33  C   UNL     1       2.584   3.137  20.284  0.00  0.00    +0.000 C 
ATOM     34  C   UNL     1       3.990   2.526  20.169  0.00  0.00    +0.000 C 
ATOM     35  C   UNL     1       2.319   3.408  21.781  0.00  0.00    +0.000 C 
ATOM     36  C   UNL     1       1.548   2.094  19.815  0.00  0.00    +0.000 C 
ENDBRANCH  22  33
ENDBRANCH   2  22
TORSDOF 10
ENDMDL
MODEL 3
REMARK VINA RESULT:      -7.3      0.769      1.267
REMARK  Name = 
REMARK  16 active torsions:
REMARK  status: ('A' for Active; 'I' for Inactive)
REMARK    1  A    between atoms: C_1  and  C_2
REMARK    2  A    between atoms: C_2  and  C_3
REMARK    3  A    between atoms: C_2  and  C_4
REMARK    4  A    between atoms: C_4  and  N_5
REMARK    5  A    between atoms: C_4  and  C_27
REMARK    6  A    between atoms: C_6  and  C_8
REMARK    7  A    between atoms: C_8  and  C_9
REMARK    8  A    between atoms: C_8  and  N_10
REMARK    9  A    between atoms: C_11  and  C_13
REMARK   10  A    between atoms: C_13  and  N_14
REMARK   11  A    between atoms: C_13  and  C_23
REMARK   12  A    between atoms: C_15  and  C_17
REMARK   13  A    between atoms: C_23  and  C_24
REMARK   14  A    between atoms: C_23  and  C_25
REMARK   15  A    between atoms: C_23  and  C_26
REMARK   16  A    between atoms: C_27  and  C_29
REMARK                            x       y       z     vdW  Elec       q    Type
REMARK                         _______ _______ _______ _____ _____    ______ ____
ROOT
ATOM      1  N   UNL     1       1.759   8.659  19.198  0.00  0.00    +0.000 N 
ATOM      2  C   UNL     1       1.490   9.828  18.529  0.00  0.00    +0.000 C 
ATOM      3  O   UNL     1       1.690   9.905  17.316  0.00  0.00    +0.000 OA
ATOM      4  H   UNL     1       1.604   8.620  20.204  0.00  0.00    +0.000 HD
ENDROOT
BRANCH   1   5
ATOM      5  C   UNL     1       2.166   7.451  18.474  0.00  0.00    +0.000 C 
ATOM      6  C   UNL     1       3.464   7.684  17.710  0.00  0.00    +0.000 C 
BRANCH   5   8
ATOM      7  N   UNL     1       2.960   5.151  18.900  0.00  0.00    +0.000 N 
ATOM      8  C   UNL     1       2.291   6.237  19.436  0.00  0.00    +0.000 C 
ATOM      9  O   UNL     1       1.889   6.256  20.596  0.00  0.00    +0.000 OA
ATOM     10  H   UNL     1       3.449   5.303  18.018  0.00  0.00    +0.000 HD
BRANCH   7  11
ATOM     11  C   UNL     1       3.141   3.883  19.617  0.00  0.00    +0.000 C 
BRANCH  11  13
ATOM     12  C   UNL     1       2.308   2.639  17.526  0.00  0.00    +0.000 C 
ATOM     13  C   UNL     1       2.196   2.784  19.045  0.00  0.00    +0.000 C 
ATOM     14  C   UNL     1       0.728   2.941  19.461  0.00  0.00    +0.000 C 
ENDBRANCH  11  13
BRANCH  11  15
ATOM     15  C   UNL     1       4.618   3.465  19.566  0.00  0.00    +0.000 C 
ATOM     16  O   UNL     1       5.096   2.460  20.090  0.00  0.00    +0.000 OA
BRANCH  15  17
ATOM     17  C   UNL     1       5.546   4.312  18.694  0.00  0.00    +0.000 C 
ATOM     18  N   UNL     1       6.478   5.038  19.390  0.00  0.00    +0.000 N 
ATOM     19  O   UNL     1       5.459   4.328  17.480  0.00  0.00    +0.000 OA
ATOM     20  H   UNL     1       6.516   4.979  20.404  0.00  0.00    +0.000 HD
ATOM     21  H   UNL     1       7.154   5.598  18.893  0.00  0.00    +0.000 HD
ENDBRANCH  15  17
ENDBRANCH  11  15
ENDBRANCH   7  11
ENDBRANCH   5   8
ENDBRANCH   1   5
BRANCH   2  22
ATOM     22  C   UNL     1       0.939  10.996  19.386  0.00  0.00    +0.000 C 
BRANCH  22  23
ATOM     23  N   UNL     1       1.715  12.190  19.071  0.00  0.00    +0.000 N 
ATOM     24  C   UNL     1       2.177  13.052  20.041  0.00  0.00    +0.000 C 
ATOM     25  O   UNL     1       1.994  12.874  21.239  0.00  0.00    +0.000 OA
ATOM     26  H   UNL     1       2.165  12.219  18.165  0.00  0.00    +0.000 HD
BRANCH  24  27
ATOM     27  C   UNL     1       2.971  14.210  19.534  0.00  0.00    +0.000 A 
ATOM     28  C   UNL     1       3.151  15.368  20.308  0.00  0.00    +0.000 A 
ATOM     29  C   UNL     1       3.844  16.461  19.785  0.00  0.00    +0.000 A 
ATOM     30  C   UNL     1       4.373  16.398  18.498  0.00  0.00    +0.000 A 
ATOM     31  C   UNL     1       4.231  15.236  17.739  0.00  0.00    +0.000 A 
ATOM     32  C   UNL     1       3.536  14.139  18.257  0.00  0.00    +0.000 A 
ENDBRANCH  24  27
ENDBRANCH  22  23
BRANCH  22  33
ATOM     33  C   UNL     1      -0.598  11.242  19.196  0.00  0.00    +0.000 C 
ATOM     34  C   UNL     1      -1.252   9.957  18.662  0.00  0.00    +0.000 C 
ATOM     35  C   UNL     1      -1.252  11.561  20.558  0.00  0.00    +0.000 C 
ATOM     36  C   UNL     1      -0.934  12.406  18.240  0.00  0.00    +0.000 C 
ENDBRANCH  22  33
ENDBRANCH   2  22
TORSDOF 10
ENDMDL
MODEL 4
REMARK VINA RESULT:      -7.3      2.134      8.320
REMARK  Name = 
REMARK  16 active torsions:
REMARK  status: ('A' for Active; 'I' for Inactive)
REMARK    1  A    between atoms: C_1  and  C_2
REMARK    2  A    between atoms: C_2  and  C_3
REMARK    3  A    between atoms: C_2  and  C_4
REMARK    4  A    between atoms: C_4  and  N_5
REMARK    5  A    between atoms: C_4  and  C_27
REMARK    6  A    between atoms: C_6  and  C_8
REMARK    7  A    between atoms: C_8  and  C_9
REMARK    8  A    between atoms: C_8  and  N_10
REMARK    9  A    between atoms: C_11  and  C_13
REMARK   10  A    between atoms: C_13  and  N_14
REMARK   11  A    between atoms: C_13  and  C_23
REMARK   12  A    between atoms: C_15  and  C_17
REMARK   13  A    between atoms: C_23  and  C_24
REMARK   14  A    between atoms: C_23  and  C_25
REMARK   15  A    between atoms: C_23  and  C_26
REMARK   16  A    between atoms: C_27  and  C_29
REMARK                            x       y       z     vdW  Elec       q    Type
REMARK                         _______ _______ _______ _____ _____    ______ ____
ROOT
ATOM      1  N   UNL     1       2.064   6.877  20.272  0.00  0.00    +0.000 N 
ATOM      2  C   UNL     1       1.570   5.603  20.141  0.00  0.00    +0.000 C 
ATOM      3  O   UNL     1       0.430   5.339  20.528  0.00  0.00    +0.000 OA
ATOM      4  H   UNL     1       3.015   7.071  19.962  0.00  0.00    +0.000 HD
ENDROOT
BRANCH   1   5
ATOM      5  C   UNL     1       1.215   7.971  20.755  0.00  0.00    +0.000 C 
ATOM      6  C   UNL     1       1.642   8.418  22.148  0.00  0.00    +0.000 C 
BRANCH   5   8
ATOM      7  N   UNL     1       0.603  10.307  20.235  0.00  0.00    +0.000 N 
ATOM      8  C   UNL     1       1.216   9.162  19.758  0.00  0.00    +0.000 C 
ATOM      9  O   UNL     1       1.769   9.120  18.662  0.00  0.00    +0.000 OA
ATOM     10  H   UNL     1       0.371  10.322  21.229  0.00  0.00    +0.000 HD
BRANCH   7  11
ATOM     11  C   UNL     1       0.444  11.528  19.438  0.00  0.00    +0.000 C 
BRANCH  11  13
ATOM     12  C   UNL     1      -1.445  11.977  21.123  0.00  0.00    +0.000 C 
ATOM     13  C   UNL     1      -0.950  12.177  19.690  0.00  0.00    +0.000 C 
ATOM     14  C   UNL     1      -2.029  11.751  18.686  0.00  0.00    +0.000 C 
ENDBRANCH  11  13
BRANCH  11  15
ATOM     15  C   UNL     1       1.599  12.496  19.736  0.00  0.00    +0.000 C 
ATOM     16  O   UNL     1       1.933  12.889  20.853  0.00  0.00    +0.000 OA
BRANCH  15  17
ATOM     17  C   UNL     1       2.475  12.913  18.554  0.00  0.00    +0.000 C 
ATOM     18  N   UNL     1       2.473  12.032  17.504  0.00  0.00    +0.000 N 
ATOM     19  O   UNL     1       3.115  13.948  18.555  0.00  0.00    +0.000 OA
ATOM     20  H   UNL     1       1.911  11.187  17.550  0.00  0.00    +0.000 HD
ATOM     21  H   UNL     1       2.997  12.243  16.668  0.00  0.00    +0.000 HD
ENDBRANCH  15  17
ENDBRANCH  11  15
ENDBRANCH   7  11
ENDBRANCH   5   8
ENDBRANCH   1   5
BRANCH   2  22
ATOM     22  C   UNL     1       2.520   4.563  19.493  0.00  0.00    +0.000 C 
BRANCH  22  23
ATOM     23  N   UNL     1       3.839   5.176  19.370  0.00  0.00    +0.000 N 
ATOM     24  C   UNL     1       4.453   5.374  18.154  0.00  0.00    +0.000 C 
ATOM     25  O   UNL     1       3.936   5.077  17.084  0.00  0.00    +0.000 OA
ATOM     26  H   UNL     1       4.165   5.723  20.156  0.00  0.00    +0.000 HD
BRANCH  24  27
ATOM     27  C   UNL     1       5.791   6.034  18.220  0.00  0.00    +0.000 A 
ATOM     28  C   UNL     1       6.128   7.092  17.360  0.00  0.00    +0.000 A 
ATOM     29  C   UNL     1       7.407   7.648  17.399  0.00  0.00    +0.000 A 
ATOM     30  C   UNL     1       8.349   7.163  18.305  0.00  0.00    +0.000 A 
ATOM     31  C   UNL     1       8.008   6.139  19.188  0.00  0.00    +0.000 A 
ATOM     32  C   UNL     1       6.728   5.577  19.152  0.00  0.00    +0.000 A 
ENDBRANCH  24  27
ENDBRANCH  22  23
BRANCH  22  33
ATOM     33  C   UNL     1       2.588   3.205  20.273  0.00  0.00    +0.000 C 
ATOM     34  C   UNL     1       2.204   3.447  21.742  0.00  0.00    +0.000 C 
ATOM     35  C   UNL     1       1.562   2.211  19.686  0.00  0.00    +0.000 C 
ATOM     36  C   UNL     1       3.971   2.521  20.225  0.00  0.00    +0.000 C 
ENDBRANCH  22  33
ENDBRANCH   2  22
TORSDOF 10
ENDMDL
MODEL 5
REMARK VINA RESULT:      -7.1      3.220      5.331
REMARK  Name = 
REMARK  16 active torsions:
REMARK  status: ('A' for Active; 'I' for Inactive)
REMARK    1  A    between atoms: C_1  and  C_2
REMARK    2  A    between atoms: C_2  and  C_3
REMARK    3  A    between atoms: C_2  and  C_4
REMARK    4  A    between atoms: C_4  and  N_5
REMARK    5  A    between atoms: C_4  and  C_27
REMARK    6  A    between atoms: C_6  and  C_8
REMARK    7  A    between atoms: C_8  and  C_9
REMARK    8  A    between atoms: C_8  and  N_10
REMARK    9  A    between atoms: C_11  and  C_13
REMARK   10  A    between atoms: C_13  and  N_14
REMARK   11  A    between atoms: C_13  and  C_23
REMARK   12  A    between atoms: C_15  and  C_17
REMARK   13  A    between atoms: C_23  and  C_24
REMARK   14  A    between atoms: C_23  and  C_25
REMARK   15  A    between atoms: C_23  and  C_26
REMARK   16  A    between atoms: C_27  and  C_29
REMARK                            x       y       z     vdW  Elec       q    Type
REMARK                         _______ _______ _______ _____ _____    ______ ____
ROOT
ATOM      1  N   UNL     1       0.239  10.111  20.770  0.00  0.00    +0.000 N 
ATOM      2  C   UNL     1       0.397  11.450  21.034  0.00  0.00    +0.000 C 
ATOM      3  O   UNL     1       1.475  11.874  21.451  0.00  0.00    +0.000 OA
ATOM      4  H   UNL     1      -0.666   9.777  20.442  0.00  0.00    +0.000 HD
ENDROOT
BRANCH   1   5
ATOM      5  C   UNL     1       1.373   9.185  20.856  0.00  0.00    +0.000 C 
ATOM      6  C   UNL     1       1.150   8.152  21.954  0.00  0.00    +0.000 C 
BRANCH   5   8
ATOM      7  N   UNL     1       2.204   7.240  19.581  0.00  0.00    +0.000 N 
ATOM      8  C   UNL     1       1.644   8.502  19.488  0.00  0.00    +0.000 C 
ATOM      9  O   UNL     1       1.329   9.005  18.413  0.00  0.00    +0.000 OA
ATOM     10  H   UNL     1       2.224   6.815  20.508  0.00  0.00    +0.000 HD
BRANCH   7  11
ATOM     11  C   UNL     1       2.591   6.443  18.411  0.00  0.00    +0.000 C 
BRANCH  11  13
ATOM     12  C   UNL     1       4.468   6.573  16.659  0.00  0.00    +0.000 C 
ATOM     13  C   UNL     1       4.123   6.551  18.149  0.00  0.00    +0.000 C 
ATOM     14  C   UNL     1       4.960   5.492  18.877  0.00  0.00    +0.000 C 
ENDBRANCH  11  13
BRANCH  11  15
ATOM     15  C   UNL     1       2.135   4.989  18.602  0.00  0.00    +0.000 C 
ATOM     16  O   UNL     1       2.149   4.115  17.737  0.00  0.00    +0.000 OA
BRANCH  15  17
ATOM     17  C   UNL     1       1.739   4.568  20.018  0.00  0.00    +0.000 C 
ATOM     18  N   UNL     1       0.567   3.862  20.097  0.00  0.00    +0.000 N 
ATOM     19  O   UNL     1       2.422   4.840  20.989  0.00  0.00    +0.000 OA
ATOM     20  H   UNL     1       0.041   3.652  19.253  0.00  0.00    +0.000 HD
ATOM     21  H   UNL     1       0.247   3.515  20.989  0.00  0.00    +0.000 HD
ENDBRANCH  15  17
ENDBRANCH  11  15
ENDBRANCH   7  11
ENDBRANCH   5   8
ENDBRANCH   1   5
BRANCH   2  22
ATOM     22  C   UNL     1      -0.840  12.348  20.777  0.00  0.00    +0.000 C 
BRANCH  22  23
ATOM     23  N   UNL     1      -1.632  11.730  19.717  0.00  0.00    +0.000 N 
ATOM     24  C   UNL     1      -1.522  12.105  18.397  0.00  0.00    +0.000 C 
ATOM     25  O   UNL     1      -0.741  12.962  18.005  0.00  0.00    +0.000 OA
ATOM     26  H   UNL     1      -2.038  10.826  19.917  0.00  0.00    +0.000 HD
BRANCH  24  27
ATOM     27  C   UNL     1      -2.395  11.349  17.450  0.00  0.00    +0.000 A 
ATOM     28  C   UNL     1      -1.887  10.302  16.664  0.00  0.00    +0.000 A 
ATOM     29  C   UNL     1      -2.709   9.655  15.740  0.00  0.00    +0.000 A 
ATOM     30  C   UNL     1      -4.043  10.037  15.609  0.00  0.00    +0.000 A 
ATOM     31  C   UNL     1      -4.563  11.049  16.415  0.00  0.00    +0.000 A 
ATOM     32  C   UNL     1      -3.743  11.703  17.340  0.00  0.00    +0.000 A 
ENDBRANCH  24  27
ENDBRANCH  22  23
BRANCH  22  33
ATOM     33  C   UNL     1      -1.702  12.610  22.060  0.00  0.00    +0.000 C 
ATOM     34  C   UNL     1      -1.171  13.863  22.777  0.00  0.00    +0.000 C 
ATOM     35  C   UNL     1      -3.166  12.893  21.661  0.00  0.00    +0.000 C 
ATOM     36  C   UNL     1      -1.715  11.434  23.059  0.00  0.00    +0.000 C 
ENDBRANCH  22  33
ENDBRANCH   2  22
TORSDOF 10
ENDMDL
MODEL 6
REMARK VINA RESULT:      -7.1      3.241      5.148
REMARK  Name = 
REMARK  16 active torsions:
REMARK  status: ('A' for Active; 'I' for Inactive)
REMARK    1  A    between atoms: C_1  and  C_2
REMARK    2  A    between atoms: C_2  and  C_3
REMARK    3  A    between atoms: C_2  and  C_4
REMARK    4  A    between atoms: C_4  and  N_5
REMARK    5  A    between atoms: C_4  and  C_27
REMARK    6  A    between atoms: C_6  and  C_8
REMARK    7  A    between atoms: C_8  and  C_9
REMARK    8  A    between atoms: C_8  and  N_10
REMARK    9  A    between atoms: C_11  and  C_13
REMARK   10  A    between atoms: C_13  and  N_14
REMARK   11  A    between atoms: C_13  and  C_23
REMARK   12  A    between atoms: C_15  and  C_17
REMARK   13  A    between atoms: C_23  and  C_24
REMARK   14  A    between atoms: C_23  and  C_25
REMARK   15  A    between atoms: C_23  and  C_26
REMARK   16  A    between atoms: C_27  and  C_29
REMARK                            x       y       z     vdW  Elec       q    Type
REMARK                         _______ _______ _______ _____ _____    ______ ____
ROOT
ATOM      1  N   UNL     1       0.685   9.489  20.137  0.00  0.00    +0.000 N 
ATOM      2  C   UNL     1       0.626  10.520  21.042  0.00  0.00    +0.000 C 
ATOM      3  O   UNL     1       1.323  10.490  22.058  0.00  0.00    +0.000 OA
ATOM      4  H   UNL     1       0.087   9.523  19.312  0.00  0.00    +0.000 HD
ENDROOT
BRANCH   1   5
ATOM      5  C   UNL     1       1.658   8.403  20.291  0.00  0.00    +0.000 C 
ATOM      6  C   UNL     1       1.187   7.392  21.330  0.00  0.00    +0.000 C 
BRANCH   5   8
ATOM      7  N   UNL     1       2.327   6.387  19.029  0.00  0.00    +0.000 N 
ATOM      8  C   UNL     1       1.949   7.714  18.929  0.00  0.00    +0.000 C 
ATOM      9  O   UNL     1       1.794   8.275  17.847  0.00  0.00    +0.000 OA
ATOM     10  H   UNL     1       2.214   5.946  19.942  0.00  0.00    +0.000 HD
BRANCH   7  11
ATOM     11  C   UNL     1       2.700   5.566  17.872  0.00  0.00    +0.000 C 
BRANCH  11  13
ATOM     12  C   UNL     1       5.009   5.602  19.003  0.00  0.00    +0.000 C 
ATOM     13  C   UNL     1       4.247   5.553  17.678  0.00  0.00    +0.000 C 
ATOM     14  C   UNL     1       4.767   6.632  16.720  0.00  0.00    +0.000 C 
ENDBRANCH  11  13
BRANCH  11  15
ATOM     15  C   UNL     1       2.121   4.153  18.030  0.00  0.00    +0.000 C 
ATOM     16  O   UNL     1       1.947   3.344  17.120  0.00  0.00    +0.000 OA
BRANCH  15  17
ATOM     17  C   UNL     1       1.848   3.674  19.457  0.00  0.00    +0.000 C 
ATOM     18  N   UNL     1       0.531   3.403  19.725  0.00  0.00    +0.000 N 
ATOM     19  O   UNL     1       2.738   3.542  20.278  0.00  0.00    +0.000 OA
ATOM     20  H   UNL     1      -0.170   3.518  19.000  0.00  0.00    +0.000 HD
ATOM     21  H   UNL     1       0.265   3.049  20.632  0.00  0.00    +0.000 HD
ENDBRANCH  15  17
ENDBRANCH  11  15
ENDBRANCH   7  11
ENDBRANCH   5   8
ENDBRANCH   1   5
BRANCH   2  22
ATOM     22  C   UNL     1      -0.348  11.676  20.700  0.00  0.00    +0.000 C 
BRANCH  22  23
ATOM     23  N   UNL     1      -1.229  11.220  19.630  0.00  0.00    +0.000 N 
ATOM     24  C   UNL     1      -1.357  11.895  18.437  0.00  0.00    +0.000 C 
ATOM     25  O   UNL     1      -0.729  12.912  18.171  0.00  0.00    +0.000 OA
ATOM     26  H   UNL     1      -1.513  10.249  19.653  0.00  0.00    +0.000 HD
BRANCH  24  27
ATOM     27  C   UNL     1      -2.288  11.270  17.451  0.00  0.00    +0.000 A 
ATOM     28  C   UNL     1      -3.623  11.689  17.340  0.00  0.00    +0.000 A 
ATOM     29  C   UNL     1      -4.490  11.044  16.456  0.00  0.00    +0.000 A 
ATOM     30  C   UNL     1      -4.024   9.993  15.668  0.00  0.00    +0.000 A 
ATOM     31  C   UNL     1      -2.688   9.599  15.746  0.00  0.00    +0.000 A 
ATOM     32  C   UNL     1      -1.817  10.240  16.632  0.00  0.00    +0.000 A 
ENDBRANCH  24  27
ENDBRANCH  22  23
BRANCH  22  33
ATOM     33  C   UNL     1      -1.163  12.194  21.935  0.00  0.00    +0.000 C 
ATOM     34  C   UNL     1      -2.587  12.561  21.482  0.00  0.00    +0.000 C 
ATOM     35  C   UNL     1      -1.289  11.074  22.989  0.00  0.00    +0.000 C 
ATOM     36  C   UNL     1      -0.534  13.418  22.635  0.00  0.00    +0.000 C 
ENDBRANCH  22  33
ENDBRANCH   2  22
TORSDOF 10
ENDMDL
MODEL 7
REMARK VINA RESULT:      -7.1      2.740      5.418
REMARK  Name = 
REMARK  16 active torsions:
REMARK  status: ('A' for Active; 'I' for Inactive)
REMARK    1  A    between atoms: C_1  and  C_2
REMARK    2  A    between atoms: C_2  and  C_3
REMARK    3  A    between atoms: C_2  and  C_4
REMARK    4  A    between atoms: C_4  and  N_5
REMARK    5  A    between atoms: C_4  and  C_27
REMARK    6  A    between atoms: C_6  and  C_8
REMARK    7  A    between atoms: C_8  and  C_9
REMARK    8  A    between atoms: C_8  and  N_10
REMARK    9  A    between atoms: C_11  and  C_13
REMARK   10  A    between atoms: C_13  and  N_14
REMARK   11  A    between atoms: C_13  and  C_23
REMARK   12  A    between atoms: C_15  and  C_17
REMARK   13  A    between atoms: C_23  and  C_24
REMARK   14  A    between atoms: C_23  and  C_25
REMARK   15  A    between atoms: C_23  and  C_26
REMARK   16  A    between atoms: C_27  and  C_29
REMARK                            x       y       z     vdW  Elec       q    Type
REMARK                         _______ _______ _______ _____ _____    ______ ____
ROOT
ATOM      1  N   UNL     1       0.829   9.812  19.756  0.00  0.00    +0.000 N 
ATOM      2  C   UNL     1       0.707  10.878  20.613  0.00  0.00    +0.000 C 
ATOM      3  O   UNL     1       1.270  10.857  21.708  0.00  0.00    +0.000 OA
ATOM      4  H   UNL     1       0.342   9.840  18.861  0.00  0.00    +0.000 HD
ENDROOT
BRANCH   1   5
ATOM      5  C   UNL     1       1.723   8.692  20.066  0.00  0.00    +0.000 C 
ATOM      6  C   UNL     1       1.148   7.829  21.183  0.00  0.00    +0.000 C 
BRANCH   5   8
ATOM      7  N   UNL     1       2.275   6.508  19.051  0.00  0.00    +0.000 N 
ATOM      8  C   UNL     1       2.020   7.844  18.798  0.00  0.00    +0.000 C 
ATOM      9  O   UNL     1       1.970   8.301  17.660  0.00  0.00    +0.000 OA
ATOM     10  H   UNL     1       2.077   6.175  19.995  0.00  0.00    +0.000 HD
BRANCH   7  11
ATOM     11  C   UNL     1       2.632   5.545  18.004  0.00  0.00    +0.000 C 
BRANCH  11  13
ATOM     12  C   UNL     1       4.904   5.589  19.209  0.00  0.00    +0.000 C 
ATOM     13  C   UNL     1       4.180   5.420  17.872  0.00  0.00    +0.000 C 
ATOM     14  C   UNL     1       4.794   6.341  16.810  0.00  0.00    +0.000 C 
ENDBRANCH  11  13
BRANCH  11  15
ATOM     15  C   UNL     1       1.963   4.193  18.293  0.00  0.00    +0.000 C 
ATOM     16  O   UNL     1       1.761   3.303  17.468  0.00  0.00    +0.000 OA
BRANCH  15  17
ATOM     17  C   UNL     1       1.625   3.887  19.753  0.00  0.00    +0.000 C 
ATOM     18  N   UNL     1       0.405   3.289  19.943  0.00  0.00    +0.000 N 
ATOM     19  O   UNL     1       2.387   4.152  20.664  0.00  0.00    +0.000 OA
ATOM     20  H   UNL     1      -0.188   3.079  19.146  0.00  0.00    +0.000 HD
ATOM     21  H   UNL     1       0.116   3.021  20.871  0.00  0.00    +0.000 HD
ENDBRANCH  15  17
ENDBRANCH  11  15
ENDBRANCH   7  11
ENDBRANCH   5   8
ENDBRANCH   1   5
BRANCH   2  22
ATOM     22  C   UNL     1      -0.161  12.062  20.113  0.00  0.00    +0.000 C 
BRANCH  22  23
ATOM     23  N   UNL     1      -1.200  12.308  21.108  0.00  0.00    +0.000 N 
ATOM     24  C   UNL     1      -2.537  12.369  20.784  0.00  0.00    +0.000 C 
ATOM     25  O   UNL     1      -2.960  12.200  19.647  0.00  0.00    +0.000 OA
ATOM     26  H   UNL     1      -0.959  12.135  22.075  0.00  0.00    +0.000 HD
BRANCH  24  27
ATOM     27  C   UNL     1      -3.457  12.609  21.934  0.00  0.00    +0.000 A 
ATOM     28  C   UNL     1      -3.071  12.318  23.253  0.00  0.00    +0.000 A 
ATOM     29  C   UNL     1      -3.974  12.491  24.303  0.00  0.00    +0.000 A 
ATOM     30  C   UNL     1      -5.257  12.970  24.045  0.00  0.00    +0.000 A 
ATOM     31  C   UNL     1      -5.633  13.298  22.743  0.00  0.00    +0.000 A 
ATOM     32  C   UNL     1      -4.733  13.124  21.687  0.00  0.00    +0.000 A 
ENDBRANCH  24  27
ENDBRANCH  22  23
BRANCH  22  33
ATOM     33  C   UNL     1       0.665  13.360  19.810  0.00  0.00    +0.000 C 
ATOM     34  C   UNL     1       0.946  14.098  21.130  0.00  0.00    +0.000 C 
ATOM     35  C   UNL     1       2.028  12.983  19.192  0.00  0.00    +0.000 C 
ATOM     36  C   UNL     1      -0.031  14.333  18.834  0.00  0.00    +0.000 C 
ENDBRANCH  22  33
ENDBRANCH   2  22
TORSDOF 10
ENDMDL
MODEL 8
REMARK VINA RESULT:      -7.1      2.127      8.426
REMARK  Name = 
REMARK  16 active torsions:
REMARK  status: ('A' for Active; 'I' for Inactive)
REMARK    1  A    between atoms: C_1  and  C_2
REMARK    2  A    between atoms: C_2  and  C_3
REMARK    3  A    between atoms: C_2  and  C_4
REMARK    4  A    between atoms: C_4  and  N_5
REMARK    5  A    between atoms: C_4  and  C_27
REMARK    6  A    between atoms: C_6  and  C_8
REMARK    7  A    between atoms: C_8  and  C_9
REMARK    8  A    between atoms: C_8  and  N_10
REMARK    9  A    between atoms: C_11  and  C_13
REMARK   10  A    between atoms: C_13  and  N_14
REMARK   11  A    between atoms: C_13  and  C_23
REMARK   12  A    between atoms: C_15  and  C_17
REMARK   13  A    between atoms: C_23  and  C_24
REMARK   14  A    between atoms: C_23  and  C_25
REMARK   15  A    between atoms: C_23  and  C_26
REMARK   16  A    between atoms: C_27  and  C_29
REMARK                            x       y       z     vdW  Elec       q    Type
REMARK                         _______ _______ _______ _____ _____    ______ ____
ROOT
ATOM      1  N   UNL     1       2.040   6.899  20.304  0.00  0.00    +0.000 N 
ATOM      2  C   UNL     1       1.527   5.634  20.157  0.00  0.00    +0.000 C 
ATOM      3  O   UNL     1       0.385   5.382  20.545  0.00  0.00    +0.000 OA
ATOM      4  H   UNL     1       2.993   7.084  19.993  0.00  0.00    +0.000 HD
ENDROOT
BRANCH   1   5
ATOM      5  C   UNL     1       1.207   7.999  20.802  0.00  0.00    +0.000 C 
ATOM      6  C   UNL     1       1.709   8.491  22.155  0.00  0.00    +0.000 C 
BRANCH   5   8
ATOM      7  N   UNL     1       0.803  10.387  20.318  0.00  0.00    +0.000 N 
ATOM      8  C   UNL     1       1.137   9.160  19.773  0.00  0.00    +0.000 C 
ATOM      9  O   UNL     1       1.417   9.021  18.585  0.00  0.00    +0.000 OA
ATOM     10  H   UNL     1       0.806  10.453  21.336  0.00  0.00    +0.000 HD
BRANCH   7  11
ATOM     11  C   UNL     1       0.627  11.603  19.516  0.00  0.00    +0.000 C 
BRANCH  11  13
ATOM     12  C   UNL     1      -0.846  13.706  19.375  0.00  0.00    +0.000 C 
ATOM     13  C   UNL     1      -0.781  12.226  19.754  0.00  0.00    +0.000 C 
ATOM     14  C   UNL     1      -1.329  12.011  21.171  0.00  0.00    +0.000 C 
ENDBRANCH  11  13
BRANCH  11  15
ATOM     15  C   UNL     1       1.760  12.594  19.822  0.00  0.00    +0.000 C 
ATOM     16  O   UNL     1       2.102  12.966  20.944  0.00  0.00    +0.000 OA
BRANCH  15  17
ATOM     17  C   UNL     1       2.607  13.064  18.638  0.00  0.00    +0.000 C 
ATOM     18  N   UNL     1       2.476  12.303  17.505  0.00  0.00    +0.000 N 
ATOM     19  O   UNL     1       3.330  14.041  18.706  0.00  0.00    +0.000 OA
ATOM     20  H   UNL     1       1.848  11.505  17.498  0.00  0.00    +0.000 HD
ATOM     21  H   UNL     1       2.972  12.561  16.666  0.00  0.00    +0.000 HD
ENDBRANCH  15  17
ENDBRANCH  11  15
ENDBRANCH   7  11
ENDBRANCH   5   8
ENDBRANCH   1   5
BRANCH   2  22
ATOM     22  C   UNL     1       2.461   4.590  19.494  0.00  0.00    +0.000 C 
BRANCH  22  23
ATOM     23  N   UNL     1       3.789   5.184  19.379  0.00  0.00    +0.000 N 
ATOM     24  C   UNL     1       4.417   5.368  18.167  0.00  0.00    +0.000 C 
ATOM     25  O   UNL     1       3.904   5.071  17.095  0.00  0.00    +0.000 OA
ATOM     26  H   UNL     1       4.116   5.731  20.164  0.00  0.00    +0.000 HD
BRANCH  24  27
ATOM     27  C   UNL     1       5.762   6.009  18.241  0.00  0.00    +0.000 A 
ATOM     28  C   UNL     1       6.115   7.068  17.389  0.00  0.00    +0.000 A 
ATOM     29  C   UNL     1       7.402   7.608  17.434  0.00  0.00    +0.000 A 
ATOM     30  C   UNL     1       8.334   7.105  18.340  0.00  0.00    +0.000 A 
ATOM     31  C   UNL     1       7.978   6.080  19.216  0.00  0.00    +0.000 A 
ATOM     32  C   UNL     1       6.691   5.534  19.172  0.00  0.00    +0.000 A 
ENDBRANCH  24  27
ENDBRANCH  22  23
BRANCH  22  33
ATOM     33  C   UNL     1       2.509   3.219  20.254  0.00  0.00    +0.000 C 
ATOM     34  C   UNL     1       3.908   2.602  20.094  0.00  0.00    +0.000 C 
ATOM     35  C   UNL     1       2.274   3.446  21.763  0.00  0.00    +0.000 C 
ATOM     36  C   UNL     1       1.456   2.198  19.773  0.00  0.00    +0.000 C 
ENDBRANCH  22  33
ENDBRANCH   2  22
TORSDOF 10
ENDMDL
MODEL 9
REMARK VINA RESULT:      -7.1      2.893      8.402
REMARK  Name = 
REMARK  16 active torsions:
REMARK  status: ('A' for Active; 'I' for Inactive)
REMARK    1  A    between atoms: C_1  and  C_2
REMARK    2  A    between atoms: C_2  and  C_3
REMARK    3  A    between atoms: C_2  and  C_4
REMARK    4  A    between atoms: C_4  and  N_5
REMARK    5  A    between atoms: C_4  and  C_27
REMARK    6  A    between atoms: C_6  and  C_8
REMARK    7  A    between atoms: C_8  and  C_9
REMARK    8  A    between atoms: C_8  and  N_10
REMARK    9  A    between atoms: C_11  and  C_13
REMARK   10  A    between atoms: C_13  and  N_14
REMARK   11  A    between atoms: C_13  and  C_23
REMARK   12  A    between atoms: C_15  and  C_17
REMARK   13  A    between atoms: C_23  and  C_24
REMARK   14  A    between atoms: C_23  and  C_25
REMARK   15  A    between atoms: C_23  and  C_26
REMARK   16  A    between atoms: C_27  and  C_29
REMARK                            x       y       z     vdW  Elec       q    Type
REMARK                         _______ _______ _______ _____ _____    ______ ____
ROOT
ATOM      1  N   UNL     1       2.094   6.853  20.211  0.00  0.00    +0.000 N 
ATOM      2  C   UNL     1       1.586   5.582  20.096  0.00  0.00    +0.000 C 
ATOM      3  O   UNL     1       0.435   5.342  20.461  0.00  0.00    +0.000 OA
ATOM      4  H   UNL     1       3.055   7.028  19.920  0.00  0.00    +0.000 HD
ENDROOT
BRANCH   1   5
ATOM      5  C   UNL     1       1.247   7.968  20.648  0.00  0.00    +0.000 C 
ATOM      6  C   UNL     1       1.830   8.642  21.885  0.00  0.00    +0.000 C 
BRANCH   5   8
ATOM      7  N   UNL     1      -0.159   9.692  19.575  0.00  0.00    +0.000 N 
ATOM      8  C   UNL     1       1.032   8.991  19.500  0.00  0.00    +0.000 C 
ATOM      9  O   UNL     1       1.872   9.213  18.632  0.00  0.00    +0.000 OA
ATOM     10  H   UNL     1      -0.689   9.604  20.443  0.00  0.00    +0.000 HD
BRANCH   7  11
ATOM     11  C   UNL     1      -0.586  10.665  18.563  0.00  0.00    +0.000 C 
BRANCH  11  13
ATOM     12  C   UNL     1      -2.224  10.052  16.678  0.00  0.00    +0.000 C 
ATOM     13  C   UNL     1      -2.070  10.423  18.153  0.00  0.00    +0.000 C 
ATOM     14  C   UNL     1      -3.016  11.574  18.518  0.00  0.00    +0.000 C 
ENDBRANCH  11  13
BRANCH  11  15
ATOM     15  C   UNL     1      -0.352  12.090  19.084  0.00  0.00    +0.000 C 
ATOM     16  O   UNL     1      -0.407  13.117  18.410  0.00  0.00    +0.000 OA
BRANCH  15  17
ATOM     17  C   UNL     1      -0.147  12.250  20.591  0.00  0.00    +0.000 C 
ATOM     18  N   UNL     1       1.079  12.747  20.951  0.00  0.00    +0.000 N 
ATOM     19  O   UNL     1      -1.013  11.962  21.398  0.00  0.00    +0.000 OA
ATOM     20  H   UNL     1       1.762  12.982  20.237  0.00  0.00    +0.000 HD
ATOM     21  H   UNL     1       1.288  12.916  21.923  0.00  0.00    +0.000 HD
ENDBRANCH  15  17
ENDBRANCH  11  15
ENDBRANCH   7  11
ENDBRANCH   5   8
ENDBRANCH   1   5
BRANCH   2  22
ATOM     22  C   UNL     1       2.539   4.517  19.496  0.00  0.00    +0.000 C 
BRANCH  22  23
ATOM     23  N   UNL     1       3.861   5.120  19.364  0.00  0.00    +0.000 N 
ATOM     24  C   UNL     1       4.489   5.271  18.147  0.00  0.00    +0.000 C 
ATOM     25  O   UNL     1       3.982   4.936  17.084  0.00  0.00    +0.000 OA
ATOM     26  H   UNL     1       4.182   5.695  20.132  0.00  0.00    +0.000 HD
BRANCH  24  27
ATOM     27  C   UNL     1       5.828   5.928  18.202  0.00  0.00    +0.000 A 
ATOM     28  C   UNL     1       6.814   5.503  19.108  0.00  0.00    +0.000 A 
ATOM     29  C   UNL     1       8.035   6.175  19.184  0.00  0.00    +0.000 A 
ATOM     30  C   UNL     1       8.284   7.261  18.346  0.00  0.00    +0.000 A 
ATOM     31  C   UNL     1       7.324   7.663  17.417  0.00  0.00    +0.000 A 
ATOM     32  C   UNL     1       6.098   6.994  17.339  0.00  0.00    +0.000 A 
ENDBRANCH  24  27
ENDBRANCH  22  23
BRANCH  22  33
ATOM     33  C   UNL     1       2.594   3.187  20.324  0.00  0.00    +0.000 C 
ATOM     34  C   UNL     1       1.600   2.178  19.725  0.00  0.00    +0.000 C 
ATOM     35  C   UNL     1       4.002   2.563  20.223  0.00  0.00    +0.000 C 
ATOM     36  C   UNL     1       2.276   3.368  21.824  0.00  0.00    +0.000 C 
ENDBRANCH  22  33
ENDBRANCH   2  22
TORSDOF 10
ENDMDL
