MODEL 1
REMARK VINA RESULT:      -9.3      0.000      0.000
REMARK  Name = 
REMARK  2 active torsions:
REMARK  status: ('A' for Active; 'I' for Inactive)
REMARK    1  A    between atoms: C_3  and  C_4
REMARK    2  A    between atoms: C_7  and  C_8
REMARK                            x       y       z     vdW  Elec       q    Type
REMARK                         _______ _______ _______ _____ _____    ______ ____
ROOT
ATOM      1  O   UNL     1       1.369   6.506  20.979  0.00  0.00    +0.000 OA
ATOM      2  C   UNL     1       1.946   6.092  19.982  0.00  0.00    +0.000 C 
ATOM      3  C   UNL     1       2.554   6.996  18.967  0.00  0.00    +0.000 C 
ATOM      4  C   UNL     1       3.360   6.455  18.025  0.00  0.00    +0.000 C 
ATOM      5  O   UNL     1       4.059   7.311  17.167  0.00  0.00    +0.000 OA
ATOM      6  C   UNL     1       5.101   6.663  16.428  0.00  0.00    +0.000 C 
ATOM      7  C   UNL     1       5.793   5.478  17.181  0.00  0.00    +0.000 C 
ATOM      8  C   UNL     1       5.324   4.218  16.514  0.00  0.00    +0.000 C 
ATOM      9  O   UNL     1       3.905   4.364  16.749  0.00  0.00    +0.000 OA
ATOM     10  C   UNL     1       3.833   4.996  18.069  0.00  0.00    +0.000 C 
ATOM     11  O   UNL     1       5.201   5.200  18.480  0.00  0.00    +0.000 OA
ATOM     12  C   UNL     1       2.936   4.091  18.880  0.00  0.00    +0.000 A 
ATOM     13  C   UNL     1       2.849   2.710  18.618  0.00  0.00    +0.000 A 
ATOM     14  C   UNL     1       1.775   1.951  19.094  0.00  0.00    +0.000 A 
ATOM     15  C   UNL     1       0.808   2.536  19.904  0.00  0.00    +0.000 A 
ATOM     16  C   UNL     1       0.931   3.871  20.258  0.00  0.00    +0.000 A 
ATOM     17  C   UNL     1       1.978   4.646  19.732  0.00  0.00    +0.000 A 
ENDROOT
BRANCH   3  18
ATOM     18  C   UNL     1       2.282   8.490  19.113  0.00  0.00    +0.000 C 
ATOM     19  C   UNL     1       1.673   9.109  17.836  0.00  0.00    +0.000 C 
ATOM     20  C   UNL     1       0.208   9.559  17.905  0.00  0.00    +0.000 C 
ATOM     21  C   UNL     1      -0.217  10.193  19.242  0.00  0.00    +0.000 C 
ATOM     22  C   UNL     1       0.084   9.160  20.344  0.00  0.00    +0.000 C 
ATOM     23  C   UNL     1       1.578   8.846  20.441  0.00  0.00    +0.000 C 
BRANCH  21  24
ATOM     24  C   UNL     1       0.385  11.551  19.589  0.00  0.00    +0.000 A 
ATOM     25  C   UNL     1       1.391  12.173  18.824  0.00  0.00    +0.000 A 
ATOM     26  C   UNL     1       2.065  13.300  19.294  0.00  0.00    +0.000 A 
ATOM     27  C   UNL     1       1.703  13.862  20.507  0.00  0.00    +0.000 A 
ATOM     28 CL   UNL     1       2.597  15.195  21.138  0.00  0.00    +0.000 Cl
ATOM     29  C   UNL     1       0.634  13.345  21.233  0.00  0.00    +0.000 A 
ATOM     30  C   UNL     1      -0.019  12.218  20.760  0.00  0.00    +0.000 A 
ENDBRANCH  21  24
ENDBRANCH   3  18
TORSDOF 2
ENDMDL
MODEL 2
REMARK VINA RESULT:      -8.6      2.205      4.269
REMARK  Name = 
REMARK  2 active torsions:
REMARK  status: ('A' for Active; 'I' for Inactive)
REMARK    1  A    between atoms: C_3  and  C_4
REMARK    2  A    between atoms: C_7  and  C_8
REMARK                            x       y       z     vdW  Elec       q    Type
REMARK                         _______ _______ _______ _____ _____    ______ ____
ROOT
ATOM      1  O   UNL     1       3.733   8.142  16.874  0.00  0.00    +0.000 OA
ATOM      2  C   UNL     1       3.827   7.160  17.598  0.00  0.00    +0.000 C 
ATOM      3  C   UNL     1       2.728   6.711  18.497  0.00  0.00    +0.000 C 
ATOM      4  C   UNL     1       2.833   5.499  19.087  0.00  0.00    +0.000 C 
ATOM      5  O   UNL     1       1.739   5.003  19.804  0.00  0.00    +0.000 OA
ATOM      6  C   UNL     1       1.839   3.609  20.119  0.00  0.00    +0.000 C 
ATOM      7  C   UNL     1       2.604   2.754  19.054  0.00  0.00    +0.000 C 
ATOM      8  C   UNL     1       3.928   2.399  19.665  0.00  0.00    +0.000 C 
ATOM      9  O   UNL     1       4.436   3.736  19.875  0.00  0.00    +0.000 OA
ATOM     10  C   UNL     1       3.928   4.487  18.724  0.00  0.00    +0.000 C 
ATOM     11  O   UNL     1       3.142   3.548  17.960  0.00  0.00    +0.000 OA
ATOM     12  C   UNL     1       5.154   5.115  18.103  0.00  0.00    +0.000 A 
ATOM     13  C   UNL     1       6.423   4.513  18.203  0.00  0.00    +0.000 A 
ATOM     14  C   UNL     1       7.590   5.246  17.970  0.00  0.00    +0.000 A 
ATOM     15  C   UNL     1       7.514   6.571  17.558  0.00  0.00    +0.000 A 
ATOM     16  C   UNL     1       6.272   7.152  17.354  0.00  0.00    +0.000 A 
ATOM     17  C   UNL     1       5.101   6.433  17.645  0.00  0.00    +0.000 A 
ENDROOT
BRANCH   3  18
ATOM     18  C   UNL     1       1.515   7.629  18.626  0.00  0.00    +0.000 C 
ATOM     19  C   UNL     1       1.262   8.075  20.082  0.00  0.00    +0.000 C 
ATOM     20  C   UNL     1       1.522   9.549  20.419  0.00  0.00    +0.000 C 
ATOM     21  C   UNL     1       1.124  10.549  19.319  0.00  0.00    +0.000 C 
ATOM     22  C   UNL     1       1.889  10.143  18.045  0.00  0.00    +0.000 C 
ATOM     23  C   UNL     1       1.492   8.747  17.561  0.00  0.00    +0.000 C 
BRANCH  21  24
ATOM     24  C   UNL     1      -0.366  10.710  19.032  0.00  0.00    +0.000 A 
ATOM     25  C   UNL     1      -1.020  10.085  17.952  0.00  0.00    +0.000 A 
ATOM     26  C   UNL     1      -2.323  10.432  17.597  0.00  0.00    +0.000 A 
ATOM     27  C   UNL     1      -3.017  11.363  18.352  0.00  0.00    +0.000 A 
ATOM     28 CL   UNL     1      -4.592  11.867  17.862  0.00  0.00    +0.000 Cl
ATOM     29  C   UNL     1      -2.444  11.912  19.496  0.00  0.00    +0.000 A 
ATOM     30  C   UNL     1      -1.145  11.567  19.830  0.00  0.00    +0.000 A 
ENDBRANCH  21  24
ENDBRANCH   3  18
TORSDOF 2
ENDMDL
MODEL 3
REMARK VINA RESULT:      -8.4      1.345      3.550
REMARK  Name = 
REMARK  2 active torsions:
REMARK  status: ('A' for Active; 'I' for Inactive)
REMARK    1  A    between atoms: C_3  and  C_4
REMARK    2  A    between atoms: C_7  and  C_8
REMARK                            x       y       z     vdW  Elec       q    Type
REMARK                         _______ _______ _______ _____ _____    ______ ____
ROOT
ATOM      1  O   UNL     1       3.236   8.492  16.943  0.00  0.00    +0.000 OA
ATOM      2  C   UNL     1       3.246   7.463  17.606  0.00  0.00    +0.000 C 
ATOM      3  C   UNL     1       2.575   7.350  18.930  0.00  0.00    +0.000 C 
ATOM      4  C   UNL     1       2.445   6.121  19.482  0.00  0.00    +0.000 C 
ATOM      5  O   UNL     1       1.680   5.985  20.645  0.00  0.00    +0.000 OA
ATOM      6  C   UNL     1       1.355   4.627  20.966  0.00  0.00    +0.000 C 
ATOM      7  C   UNL     1       1.174   3.690  19.725  0.00  0.00    +0.000 C 
ATOM      8  C   UNL     1       2.375   2.791  19.693  0.00  0.00    +0.000 C 
ATOM      9  O   UNL     1       3.400   3.803  19.568  0.00  0.00    +0.000 OA
ATOM     10  C   UNL     1       2.778   4.828  18.727  0.00  0.00    +0.000 C 
ATOM     11  O   UNL     1       1.440   4.356  18.460  0.00  0.00    +0.000 OA
ATOM     12  C   UNL     1       3.743   5.024  17.582  0.00  0.00    +0.000 A 
ATOM     13  C   UNL     1       4.580   3.984  17.135  0.00  0.00    +0.000 A 
ATOM     14  C   UNL     1       5.710   4.249  16.354  0.00  0.00    +0.000 A 
ATOM     15  C   UNL     1       5.985   5.548  15.940  0.00  0.00    +0.000 A 
ATOM     16  C   UNL     1       5.116   6.572  16.284  0.00  0.00    +0.000 A 
ATOM     17  C   UNL     1       4.015   6.313  17.117  0.00  0.00    +0.000 A 
ENDROOT
BRANCH   3  18
ATOM     18  C   UNL     1       2.007   8.630  19.536  0.00  0.00    +0.000 C 
ATOM     19  C   UNL     1       1.284   9.509  18.494  0.00  0.00    +0.000 C 
ATOM     20  C   UNL     1      -0.242   9.623  18.611  0.00  0.00    +0.000 C 
ATOM     21  C   UNL     1      -0.783   9.683  20.050  0.00  0.00    +0.000 C 
ATOM     22  C   UNL     1      -0.278   8.419  20.773  0.00  0.00    +0.000 C 
ATOM     23  C   UNL     1       1.249   8.382  20.859  0.00  0.00    +0.000 C 
BRANCH  21  24
ATOM     24  C   UNL     1      -0.467  10.937  20.860  0.00  0.00    +0.000 A 
ATOM     25  C   UNL     1      -0.995  11.186  22.141  0.00  0.00    +0.000 A 
ATOM     26  C   UNL     1      -0.860  12.434  22.749  0.00  0.00    +0.000 A 
ATOM     27  C   UNL     1      -0.143  13.435  22.114  0.00  0.00    +0.000 A 
ATOM     28 CL   UNL     1      -0.055  15.008  22.815  0.00  0.00    +0.000 Cl
ATOM     29  C   UNL     1       0.494  13.185  20.901  0.00  0.00    +0.000 A 
ATOM     30  C   UNL     1       0.342  11.944  20.304  0.00  0.00    +0.000 A 
ENDBRANCH  21  24
ENDBRANCH   3  18
TORSDOF 2
ENDMDL
MODEL 4
REMARK VINA RESULT:      -8.3      4.782      7.812
REMARK  Name = 
REMARK  2 active torsions:
REMARK  status: ('A' for Active; 'I' for Inactive)
REMARK    1  A    between atoms: C_3  and  C_4
REMARK    2  A    between atoms: C_7  and  C_8
REMARK                            x       y       z     vdW  Elec       q    Type
REMARK                         _______ _______ _______ _____ _____    ______ ____
ROOT
ATOM      1  O   UNL     1      -4.472  12.513  19.892  0.00  0.00    +0.000 OA
ATOM      2  C   UNL     1      -3.354  12.153  19.549  0.00  0.00    +0.000 C 
ATOM      3  C   UNL     1      -2.118  12.551  20.277  0.00  0.00    +0.000 C 
ATOM      4  C   UNL     1      -0.959  11.928  19.965  0.00  0.00    +0.000 C 
ATOM      5  O   UNL     1       0.172  12.181  20.749  0.00  0.00    +0.000 OA
ATOM      6  C   UNL     1       1.244  11.256  20.533  0.00  0.00    +0.000 C 
ATOM      7  C   UNL     1       0.786   9.805  20.159  0.00  0.00    +0.000 C 
ATOM      8  C   UNL     1       1.099   9.623  18.703  0.00  0.00    +0.000 C 
ATOM      9  O   UNL     1       0.284  10.691  18.170  0.00  0.00    +0.000 OA
ATOM     10  C   UNL     1      -0.891  10.703  19.044  0.00  0.00    +0.000 C 
ATOM     11  O   UNL     1      -0.656   9.676  20.030  0.00  0.00    +0.000 OA
ATOM     12  C   UNL     1      -2.069  10.584  18.106  0.00  0.00    +0.000 A 
ATOM     13  C   UNL     1      -1.963   9.917  16.870  0.00  0.00    +0.000 A 
ATOM     14  C   UNL     1      -2.906  10.120  15.857  0.00  0.00    +0.000 A 
ATOM     15  C   UNL     1      -4.013  10.930  16.083  0.00  0.00    +0.000 A 
ATOM     16  C   UNL     1      -4.189  11.514  17.328  0.00  0.00    +0.000 A 
ATOM     17  C   UNL     1      -3.212  11.356  18.325  0.00  0.00    +0.000 A 
ENDROOT
BRANCH   3  18
ATOM     18  C   UNL     1      -2.266  13.588  21.387  0.00  0.00    +0.000 C 
ATOM     19  C   UNL     1      -3.153  14.781  20.969  0.00  0.00    +0.000 C 
ATOM     20  C   UNL     1      -4.525  14.906  21.644  0.00  0.00    +0.000 C 
ATOM     21  C   UNL     1      -4.556  14.519  23.133  0.00  0.00    +0.000 C 
ATOM     22  C   UNL     1      -4.034  13.074  23.233  0.00  0.00    +0.000 C 
ATOM     23  C   UNL     1      -2.584  12.956  22.760  0.00  0.00    +0.000 C 
BRANCH  21  24
ATOM     24  C   UNL     1      -3.816  15.435  24.104  0.00  0.00    +0.000 A 
ATOM     25  C   UNL     1      -3.857  16.840  24.029  0.00  0.00    +0.000 A 
ATOM     26  C   UNL     1      -2.997  17.631  24.791  0.00  0.00    +0.000 A 
ATOM     27  C   UNL     1      -2.125  17.033  25.686  0.00  0.00    +0.000 A 
ATOM     28 CL   UNL     1      -0.993  17.998  26.559  0.00  0.00    +0.000 Cl
ATOM     29  C   UNL     1      -2.141  15.654  25.873  0.00  0.00    +0.000 A 
ATOM     30  C   UNL     1      -2.994  14.880  25.101  0.00  0.00    +0.000 A 
ENDBRANCH  21  24
ENDBRANCH   3  18
TORSDOF 2
ENDMDL
MODEL 5
REMARK VINA RESULT:      -8.2      5.288      8.228
REMARK  Name = 
REMARK  2 active torsions:
REMARK  status: ('A' for Active; 'I' for Inactive)
REMARK    1  A    between atoms: C_3  and  C_4
REMARK    2  A    between atoms: C_7  and  C_8
REMARK                            x       y       z     vdW  Elec       q    Type
REMARK                         _______ _______ _______ _____ _____    ______ ____
ROOT
ATOM      1  O   UNL     1      -5.232  11.999  19.081  0.00  0.00    +0.000 OA
ATOM      2  C   UNL     1      -4.028  11.823  18.949  0.00  0.00    +0.000 C 
ATOM      3  C   UNL     1      -3.022  12.380  19.894  0.00  0.00    +0.000 C 
ATOM      4  C   UNL     1      -1.742  11.951  19.799  0.00  0.00    +0.000 C 
ATOM      5  O   UNL     1      -0.826  12.347  20.779  0.00  0.00    +0.000 OA
ATOM      6  C   UNL     1       0.398  11.603  20.761  0.00  0.00    +0.000 C 
ATOM      7  C   UNL     1       0.246  10.112  20.305  0.00  0.00    +0.000 C 
ATOM      8  C   UNL     1       0.842  10.026  18.931  0.00  0.00    +0.000 C 
ATOM      9  O   UNL     1      -0.017  10.975  18.260  0.00  0.00    +0.000 OA
ATOM     10  C   UNL     1      -1.319  10.780  18.902  0.00  0.00    +0.000 C 
ATOM     11  O   UNL     1      -1.111   9.769  19.911  0.00  0.00    +0.000 OA
ATOM     12  C   UNL     1      -2.274  10.514  17.762  0.00  0.00    +0.000 A 
ATOM     13  C   UNL     1      -1.844   9.911  16.564  0.00  0.00    +0.000 A 
ATOM     14  C   UNL     1      -2.606  10.001  15.396  0.00  0.00    +0.000 A 
ATOM     15  C   UNL     1      -3.848  10.627  15.416  0.00  0.00    +0.000 A 
ATOM     16  C   UNL     1      -4.336  11.136  16.609  0.00  0.00    +0.000 A 
ATOM     17  C   UNL     1      -3.543  11.097  17.769  0.00  0.00    +0.000 A 
ENDROOT
BRANCH   3  18
ATOM     18  C   UNL     1      -3.528  13.347  20.961  0.00  0.00    +0.000 C 
ATOM     19  C   UNL     1      -3.620  12.694  22.357  0.00  0.00    +0.000 C 
ATOM     20  C   UNL     1      -2.618  13.165  23.419  0.00  0.00    +0.000 C 
ATOM     21  C   UNL     1      -2.294  14.670  23.388  0.00  0.00    +0.000 C 
ATOM     22  C   UNL     1      -1.772  14.987  21.973  0.00  0.00    +0.000 C 
ATOM     23  C   UNL     1      -2.831  14.725  20.901  0.00  0.00    +0.000 C 
BRANCH  21  24
ATOM     24  C   UNL     1      -3.412  15.629  23.785  0.00  0.00    +0.000 A 
ATOM     25  C   UNL     1      -4.724  15.213  24.078  0.00  0.00    +0.000 A 
ATOM     26  C   UNL     1      -5.762  16.134  24.218  0.00  0.00    +0.000 A 
ATOM     27  C   UNL     1      -5.494  17.490  24.130  0.00  0.00    +0.000 A 
ATOM     28 CL   UNL     1      -6.786  18.630  24.206  0.00  0.00    +0.000 Cl
ATOM     29  C   UNL     1      -4.188  17.942  23.960  0.00  0.00    +0.000 A 
ATOM     30  C   UNL     1      -3.169  17.015  23.811  0.00  0.00    +0.000 A 
ENDBRANCH  21  24
ENDBRANCH   3  18
TORSDOF 2
ENDMDL
MODEL 6
REMARK VINA RESULT:      -8.1      4.738     10.220
REMARK  Name = 
REMARK  2 active torsions:
REMARK  status: ('A' for Active; 'I' for Inactive)
REMARK    1  A    between atoms: C_3  and  C_4
REMARK    2  A    between atoms: C_7  and  C_8
REMARK                            x       y       z     vdW  Elec       q    Type
REMARK                         _______ _______ _______ _____ _____    ______ ____
ROOT
ATOM      1  O   UNL     1       1.448  15.152  18.546  0.00  0.00    +0.000 OA
ATOM      2  C   UNL     1       0.324  15.175  19.030  0.00  0.00    +0.000 C 
ATOM      3  C   UNL     1      -0.312  13.980  19.651  0.00  0.00    +0.000 C 
ATOM      4  C   UNL     1      -1.454  14.153  20.356  0.00  0.00    +0.000 C 
ATOM      5  O   UNL     1      -1.971  13.069  21.073  0.00  0.00    +0.000 OA
ATOM      6  C   UNL     1      -2.988  13.432  22.015  0.00  0.00    +0.000 C 
ATOM      7  C   UNL     1      -2.811  14.853  22.649  0.00  0.00    +0.000 C 
ATOM      8  C   UNL     1      -3.869  15.725  22.040  0.00  0.00    +0.000 C 
ATOM      9  O   UNL     1      -3.478  15.606  20.654  0.00  0.00    +0.000 OA
ATOM     10  C   UNL     1      -2.016  15.536  20.709  0.00  0.00    +0.000 C 
ATOM     11  O   UNL     1      -1.674  15.583  22.110  0.00  0.00    +0.000 OA
ATOM     12  C   UNL     1      -1.543  16.636  19.787  0.00  0.00    +0.000 A 
ATOM     13  C   UNL     1      -2.308  17.799  19.572  0.00  0.00    +0.000 A 
ATOM     14  C   UNL     1      -2.073  18.625  18.469  0.00  0.00    +0.000 A 
ATOM     15  C   UNL     1      -1.022  18.351  17.601  0.00  0.00    +0.000 A 
ATOM     16  C   UNL     1      -0.193  17.269  17.853  0.00  0.00    +0.000 A 
ATOM     17  C   UNL     1      -0.466  16.407  18.928  0.00  0.00    +0.000 A 
ENDROOT
BRANCH   3  18
ATOM     18  C   UNL     1       0.420  12.649  19.512  0.00  0.00    +0.000 C 
ATOM     19  C   UNL     1       0.949  12.119  20.862  0.00  0.00    +0.000 C 
ATOM     20  C   UNL     1       0.269  10.872  21.442  0.00  0.00    +0.000 C 
ATOM     21  C   UNL     1      -0.141   9.812  20.404  0.00  0.00    +0.000 C 
ATOM     22  C   UNL     1      -1.066  10.510  19.390  0.00  0.00    +0.000 C 
ATOM     23  C   UNL     1      -0.347  11.631  18.638  0.00  0.00    +0.000 C 
BRANCH  21  24
ATOM     24  C   UNL     1       0.983   9.064  19.693  0.00  0.00    +0.000 A 
ATOM     25  C   UNL     1       1.400   9.358  18.381  0.00  0.00    +0.000 A 
ATOM     26  C   UNL     1       2.271   8.513  17.693  0.00  0.00    +0.000 A 
ATOM     27  C   UNL     1       2.789   7.396  18.326  0.00  0.00    +0.000 A 
ATOM     28 CL   UNL     1       3.789   6.296  17.451  0.00  0.00    +0.000 Cl
ATOM     29  C   UNL     1       2.492   7.140  19.662  0.00  0.00    +0.000 A 
ATOM     30  C   UNL     1       1.616   7.982  20.329  0.00  0.00    +0.000 A 
ENDBRANCH  21  24
ENDBRANCH   3  18
TORSDOF 2
ENDMDL
MODEL 7
REMARK VINA RESULT:      -8.1      6.467      9.653
REMARK  Name = 
REMARK  2 active torsions:
REMARK  status: ('A' for Active; 'I' for Inactive)
REMARK    1  A    between atoms: C_3  and  C_4
REMARK    2  A    between atoms: C_7  and  C_8
REMARK                            x       y       z     vdW  Elec       q    Type
REMARK                         _______ _______ _______ _____ _____    ______ ____
ROOT
ATOM      1  O   UNL     1      -1.164  13.474  19.676  0.00  0.00    +0.000 OA
ATOM      2  C   UNL     1      -2.241  12.896  19.623  0.00  0.00    +0.000 C 
ATOM      3  C   UNL     1      -3.354  13.172  20.573  0.00  0.00    +0.000 C 
ATOM      4  C   UNL     1      -4.574  12.655  20.302  0.00  0.00    +0.000 C 
ATOM      5  O   UNL     1      -5.658  13.037  21.100  0.00  0.00    +0.000 OA
ATOM      6  C   UNL     1      -6.933  12.685  20.550  0.00  0.00    +0.000 C 
ATOM      7  C   UNL     1      -6.993  12.700  18.985  0.00  0.00    +0.000 C 
ATOM      8  C   UNL     1      -7.051  11.266  18.547  0.00  0.00    +0.000 C 
ATOM      9  O   UNL     1      -5.803  10.814  19.120  0.00  0.00    +0.000 OA
ATOM     10  C   UNL     1      -4.913  11.968  18.973  0.00  0.00    +0.000 C 
ATOM     11  O   UNL     1      -5.713  13.004  18.365  0.00  0.00    +0.000 OA
ATOM     12  C   UNL     1      -3.705  11.431  18.241  0.00  0.00    +0.000 A 
ATOM     13  C   UNL     1      -3.804  10.343  17.353  0.00  0.00    +0.000 A 
ATOM     14  C   UNL     1      -2.671   9.616  16.972  0.00  0.00    +0.000 A 
ATOM     15  C   UNL     1      -1.410  10.006  17.409  0.00  0.00    +0.000 A 
ATOM     16  C   UNL     1      -1.281  11.136  18.201  0.00  0.00    +0.000 A 
ATOM     17  C   UNL     1      -2.425  11.830  18.630  0.00  0.00    +0.000 A 
ENDROOT
BRANCH   3  18
ATOM     18  C   UNL     1      -3.051  14.090  21.753  0.00  0.00    +0.000 C 
ATOM     19  C   UNL     1      -3.897  15.381  21.731  0.00  0.00    +0.000 C 
ATOM     20  C   UNL     1      -4.979  15.529  22.810  0.00  0.00    +0.000 C 
ATOM     21  C   UNL     1      -4.593  14.987  24.198  0.00  0.00    +0.000 C 
ATOM     22  C   UNL     1      -4.214  13.505  24.012  0.00  0.00    +0.000 C 
ATOM     23  C   UNL     1      -2.997  13.337  23.101  0.00  0.00    +0.000 C 
BRANCH  21  24
ATOM     24  C   UNL     1      -3.505  15.737  24.959  0.00  0.00    +0.000 A 
ATOM     25  C   UNL     1      -3.378  17.139  24.951  0.00  0.00    +0.000 A 
ATOM     26  C   UNL     1      -2.247  17.767  25.473  0.00  0.00    +0.000 A 
ATOM     27  C   UNL     1      -1.253  17.009  26.069  0.00  0.00    +0.000 A 
ATOM     28 CL   UNL     1       0.190  17.768  26.628  0.00  0.00    +0.000 Cl
ATOM     29  C   UNL     1      -1.400  15.630  26.201  0.00  0.00    +0.000 A 
ATOM     30  C   UNL     1      -2.524  15.020  25.668  0.00  0.00    +0.000 A 
ENDBRANCH  21  24
ENDBRANCH   3  18
TORSDOF 2
ENDMDL
MODEL 8
REMARK VINA RESULT:      -8.0      6.670      9.889
REMARK  Name = 
REMARK  2 active torsions:
REMARK  status: ('A' for Active; 'I' for Inactive)
REMARK    1  A    between atoms: C_3  and  C_4
REMARK    2  A    between atoms: C_7  and  C_8
REMARK                            x       y       z     vdW  Elec       q    Type
REMARK                         _______ _______ _______ _____ _____    ______ ____
ROOT
ATOM      1  O   UNL     1      -1.132  13.525  19.729  0.00  0.00    +0.000 OA
ATOM      2  C   UNL     1      -2.247  13.024  19.793  0.00  0.00    +0.000 C 
ATOM      3  C   UNL     1      -3.240  13.393  20.838  0.00  0.00    +0.000 C 
ATOM      4  C   UNL     1      -4.513  12.959  20.698  0.00  0.00    +0.000 C 
ATOM      5  O   UNL     1      -5.486  13.430  21.587  0.00  0.00    +0.000 OA
ATOM      6  C   UNL     1      -6.829  13.159  21.170  0.00  0.00    +0.000 C 
ATOM      7  C   UNL     1      -7.041  13.153  19.619  0.00  0.00    +0.000 C 
ATOM      8  C   UNL     1      -7.239  11.720  19.222  0.00  0.00    +0.000 C 
ATOM      9  O   UNL     1      -5.975  11.190  19.683  0.00  0.00    +0.000 OA
ATOM     10  C   UNL     1      -5.027  12.276  19.424  0.00  0.00    +0.000 C 
ATOM     11  O   UNL     1      -5.809  13.355  18.872  0.00  0.00    +0.000 OA
ATOM     12  C   UNL     1      -3.935  11.642  18.593  0.00  0.00    +0.000 A 
ATOM     13  C   UNL     1      -4.194  10.550  17.744  0.00  0.00    +0.000 A 
ATOM     14  C   UNL     1      -3.156   9.739  17.274  0.00  0.00    +0.000 A 
ATOM     15  C   UNL     1      -1.835  10.046  17.578  0.00  0.00    +0.000 A 
ATOM     16  C   UNL     1      -1.552  11.177  18.328  0.00  0.00    +0.000 A 
ATOM     17  C   UNL     1      -2.598  11.957  18.848  0.00  0.00    +0.000 A 
ENDROOT
BRANCH   3  18
ATOM     18  C   UNL     1      -2.762  14.308  21.963  0.00  0.00    +0.000 C 
ATOM     19  C   UNL     1      -3.515  15.655  21.992  0.00  0.00    +0.000 C 
ATOM     20  C   UNL     1      -4.474  15.897  23.165  0.00  0.00    +0.000 C 
ATOM     21  C   UNL     1      -3.994  15.352  24.522  0.00  0.00    +0.000 C 
ATOM     22  C   UNL     1      -3.737  13.845  24.336  0.00  0.00    +0.000 C 
ATOM     23  C   UNL     1      -2.629  13.576  23.316  0.00  0.00    +0.000 C 
BRANCH  21  24
ATOM     24  C   UNL     1      -2.787  16.036  25.157  0.00  0.00    +0.000 A 
ATOM     25  C   UNL     1      -1.799  15.346  25.885  0.00  0.00    +0.000 A 
ATOM     26  C   UNL     1      -0.840  16.031  26.632  0.00  0.00    +0.000 A 
ATOM     27  C   UNL     1      -0.814  17.415  26.614  0.00  0.00    +0.000 A 
ATOM     28 CL   UNL     1       0.306  18.268  27.611  0.00  0.00    +0.000 Cl
ATOM     29  C   UNL     1      -1.701  18.128  25.812  0.00  0.00    +0.000 A 
ATOM     30  C   UNL     1      -2.655  17.435  25.084  0.00  0.00    +0.000 A 
ENDBRANCH  21  24
ENDBRANCH   3  18
TORSDOF 2
ENDMDL
MODEL 9
REMARK VINA RESULT:      -7.8      8.404     10.677
REMARK  Name = 
REMARK  2 active torsions:
REMARK  status: ('A' for Active; 'I' for Inactive)
REMARK    1  A    between atoms: C_3  and  C_4
REMARK    2  A    between atoms: C_7  and  C_8
REMARK                            x       y       z     vdW  Elec       q    Type
REMARK                         _______ _______ _______ _____ _____    ______ ____
ROOT
ATOM      1  O   UNL     1       9.122  10.383  21.921  0.00  0.00    +0.000 OA
ATOM      2  C   UNL     1       8.976  11.568  21.649  0.00  0.00    +0.000 C 
ATOM      3  C   UNL     1       8.406  12.552  22.609  0.00  0.00    +0.000 C 
ATOM      4  C   UNL     1       8.490  13.868  22.307  0.00  0.00    +0.000 C 
ATOM      5  O   UNL     1       8.101  14.805  23.271  0.00  0.00    +0.000 OA
ATOM      6  C   UNL     1       8.513  16.144  22.974  0.00  0.00    +0.000 C 
ATOM      7  C   UNL     1       9.868  16.251  22.196  0.00  0.00    +0.000 C 
ATOM      8  C   UNL     1       9.522  16.658  20.794  0.00  0.00    +0.000 C 
ATOM      9  O   UNL     1       8.685  15.534  20.441  0.00  0.00    +0.000 OA
ATOM     10  C   UNL     1       9.313  14.403  21.129  0.00  0.00    +0.000 C 
ATOM     11  O   UNL     1      10.433  14.956  21.850  0.00  0.00    +0.000 OA
ATOM     12  C   UNL     1       9.555  13.379  20.043  0.00  0.00    +0.000 A 
ATOM     13  C   UNL     1       9.775  13.760  18.706  0.00  0.00    +0.000 A 
ATOM     14  C   UNL     1       9.626  12.843  17.660  0.00  0.00    +0.000 A 
ATOM     15  C   UNL     1       9.332  11.512  17.933  0.00  0.00    +0.000 A 
ATOM     16  C   UNL     1       9.213  11.095  19.250  0.00  0.00    +0.000 A 
ATOM     17  C   UNL     1       9.304  12.029  20.295  0.00  0.00    +0.000 A 
ENDROOT
BRANCH   3  18
ATOM     18  C   UNL     1       7.831  12.003  23.912  0.00  0.00    +0.000 C 
ATOM     19  C   UNL     1       8.633  12.457  25.151  0.00  0.00    +0.000 C 
ATOM     20  C   UNL     1       7.953  13.453  26.101  0.00  0.00    +0.000 C 
ATOM     21  C   UNL     1       6.444  13.230  26.306  0.00  0.00    +0.000 C 
ATOM     22  C   UNL     1       5.789  13.279  24.913  0.00  0.00    +0.000 C 
ATOM     23  C   UNL     1       6.297  12.158  24.004  0.00  0.00    +0.000 C 
BRANCH  21  24
ATOM     24  C   UNL     1       6.024  11.974  27.063  0.00  0.00    +0.000 A 
ATOM     25  C   UNL     1       6.853  11.311  27.988  0.00  0.00    +0.000 A 
ATOM     26  C   UNL     1       6.519  10.053  28.487  0.00  0.00    +0.000 A 
ATOM     27  C   UNL     1       5.321   9.463  28.120  0.00  0.00    +0.000 A 
ATOM     28 CL   UNL     1       4.947   7.867  28.656  0.00  0.00    +0.000 Cl
ATOM     29  C   UNL     1       4.422  10.141  27.302  0.00  0.00    +0.000 A 
ATOM     30  C   UNL     1       4.772  11.386  26.804  0.00  0.00    +0.000 A 
ENDBRANCH  21  24
ENDBRANCH   3  18
TORSDOF 2
ENDMDL
