MODEL 1
REMARK VINA RESULT:      -8.3      0.000      0.000
REMARK  Name = 
REMARK  8 active torsions:
REMARK  status: ('A' for Active; 'I' for Inactive)
REMARK    1  A    between atoms: C_1  and  C_2
REMARK    2  A    between atoms: C_3  and  C_4
REMARK    3  A    between atoms: N_6  and  C_7
REMARK    4  A    between atoms: N_6  and  C_8
REMARK    5  A    between atoms: C_13  and  N_14
REMARK    6  A    between atoms: C_17  and  O_18
REMARK    7  A    between atoms: O_18  and  C_19
REMARK    8  A    between atoms: C_19  and  C_20
REMARK                            x       y       z     vdW  Elec       q    Type
REMARK                         _______ _______ _______ _____ _____    ______ ____
ROOT
ATOM      1  N   UNL     1       0.485  10.015  20.038  0.00  0.00    +0.000 N 
ATOM      2  C   UNL     1      -0.465  10.584  19.201  0.00  0.00    +0.000 A 
ATOM      3  C   UNL     1      -1.210  11.626  19.575  0.00  0.00    +0.000 A 
ATOM      4  C   UNL     1      -1.096  12.160  20.908  0.00  0.00    +0.000 A 
ATOM      5  C   UNL     1      -0.223  11.621  21.766  0.00  0.00    +0.000 A 
ATOM      6  C   UNL     1       0.639  10.474  21.364  0.00  0.00    +0.000 A 
ATOM      7  O   UNL     1       1.439  10.043  22.196  0.00  0.00    +0.000 OA
ENDROOT
BRANCH   1  15
ATOM      8  C   UNL     1       2.023   4.961  21.134  0.00  0.00    +0.000 C 
ATOM      9  C   UNL     1       2.590   5.556  19.896  0.00  0.00    +0.000 A 
ATOM     10  C   UNL     1       3.490   5.060  18.952  0.00  0.00    +0.000 A 
ATOM     11  N   UNL     1       3.667   5.992  17.943  0.00  0.00    +0.000 NA
ATOM     12  C   UNL     1       2.952   7.037  18.284  0.00  0.00    +0.000 A 
ATOM     13  C   UNL     1       2.796   8.295  17.657  0.00  0.00    +0.000 A 
ATOM     14  C   UNL     1       2.011   9.230  18.221  0.00  0.00    +0.000 A 
ATOM     15  C   UNL     1       1.274   8.999  19.480  0.00  0.00    +0.000 A 
ATOM     16  C   UNL     1       1.453   7.795  20.065  0.00  0.00    +0.000 A 
ATOM     17  N   UNL     1       2.276   6.834  19.476  0.00  0.00    +0.000 N 
BRANCH  10  18
ATOM     18  C   UNL     1       4.111   3.721  18.968  0.00  0.00    +0.000 C 
ATOM     19  O   UNL     1       5.270   3.594  19.367  0.00  0.00    +0.000 OA
ATOM     20  N   UNL     1       3.386   2.609  18.516  0.00  0.00    +0.000 N 
ATOM     21  C   UNL     1       2.058   2.615  17.918  0.00  0.00    +0.000 C 
ATOM     22  C   UNL     1       4.028   1.307  18.570  0.00  0.00    +0.000 C 
ENDBRANCH  10  18
ENDBRANCH   1  15
BRANCH   4  23
ATOM     23  O   UNL     1      -1.895  13.214  21.306  0.00  0.00    +0.000 OA
BRANCH  23  24
ATOM     24  C   UNL     1      -2.003  13.434  22.714  0.00  0.00    +0.000 C 
BRANCH  24  25
ATOM     25  C   UNL     1      -3.427  13.231  23.150  0.00  0.00    +0.000 A 
ATOM     26  C   UNL     1      -3.722  12.478  24.297  0.00  0.00    +0.000 A 
ATOM     27  C   UNL     1      -5.046  12.299  24.692  0.00  0.00    +0.000 A 
ATOM     28  C   UNL     1      -6.069  12.874  23.945  0.00  0.00    +0.000 A 
ATOM     29  F   UNL     1      -7.341  12.697  24.326  0.00  0.00    +0.000 F 
ATOM     30  C   UNL     1      -5.794  13.631  22.813  0.00  0.00    +0.000 A 
ATOM     31  C   UNL     1      -4.472  13.811  22.414  0.00  0.00    +0.000 A 
ENDBRANCH  24  25
ENDBRANCH  23  24
ENDBRANCH   4  23
TORSDOF 5
ENDMDL
MODEL 2
REMARK VINA RESULT:      -8.3      0.885      1.266
REMARK  Name = 
REMARK  8 active torsions:
REMARK  status: ('A' for Active; 'I' for Inactive)
REMARK    1  A    between atoms: C_1  and  C_2
REMARK    2  A    between atoms: C_3  and  C_4
REMARK    3  A    between atoms: N_6  and  C_7
REMARK    4  A    between atoms: N_6  and  C_8
REMARK    5  A    between atoms: C_13  and  N_14
REMARK    6  A    between atoms: C_17  and  O_18
REMARK    7  A    between atoms: O_18  and  C_19
REMARK    8  A    between atoms: C_19  and  C_20
REMARK                            x       y       z     vdW  Elec       q    Type
REMARK                         _______ _______ _______ _____ _____    ______ ____
ROOT
ATOM      1  N   UNL     1       0.480  10.097  19.677  0.00  0.00    +0.000 N 
ATOM      2  C   UNL     1       0.863  10.678  20.877  0.00  0.00    +0.000 A 
ATOM      3  C   UNL     1       0.116  11.599  21.491  0.00  0.00    +0.000 A 
ATOM      4  C   UNL     1      -1.100  12.073  20.881  0.00  0.00    +0.000 A 
ATOM      5  C   UNL     1      -1.491  11.572  19.705  0.00  0.00    +0.000 A 
ATOM      6  C   UNL     1      -0.689  10.525  19.012  0.00  0.00    +0.000 A 
ATOM      7  O   UNL     1      -1.121  10.089  17.944  0.00  0.00    +0.000 OA
ENDROOT
BRANCH   1  15
ATOM      8  C   UNL     1       1.897   5.057  20.984  0.00  0.00    +0.000 C 
ATOM      9  C   UNL     1       2.560   5.624  19.782  0.00  0.00    +0.000 A 
ATOM     10  C   UNL     1       3.526   5.105  18.918  0.00  0.00    +0.000 A 
ATOM     11  N   UNL     1       3.785   6.015  17.907  0.00  0.00    +0.000 NA
ATOM     12  C   UNL     1       3.053   7.070  18.172  0.00  0.00    +0.000 A 
ATOM     13  C   UNL     1       2.953   8.317  17.511  0.00  0.00    +0.000 A 
ATOM     14  C   UNL     1       2.134   9.267  17.995  0.00  0.00    +0.000 A 
ATOM     15  C   UNL     1       1.302   9.065  19.199  0.00  0.00    +0.000 A 
ATOM     16  C   UNL     1       1.429   7.872  19.820  0.00  0.00    +0.000 A 
ATOM     17  N   UNL     1       2.287   6.895  19.313  0.00  0.00    +0.000 N 
BRANCH  10  18
ATOM     18  C   UNL     1       4.134   3.763  19.006  0.00  0.00    +0.000 C 
ATOM     19  O   UNL     1       5.287   3.646  19.426  0.00  0.00    +0.000 OA
ATOM     20  N   UNL     1       3.405   2.636  18.600  0.00  0.00    +0.000 N 
ATOM     21  C   UNL     1       2.084   2.624  17.986  0.00  0.00    +0.000 C 
ATOM     22  C   UNL     1       4.035   1.333  18.725  0.00  0.00    +0.000 C 
ENDBRANCH  10  18
ENDBRANCH   1  15
BRANCH   4  23
ATOM     23  O   UNL     1      -1.851  13.053  21.500  0.00  0.00    +0.000 OA
BRANCH  23  24
ATOM     24  C   UNL     1      -2.033  12.917  22.911  0.00  0.00    +0.000 C 
BRANCH  24  25
ATOM     25  C   UNL     1      -3.502  12.864  23.229  0.00  0.00    +0.000 A 
ATOM     26  C   UNL     1      -3.945  12.383  24.471  0.00  0.00    +0.000 A 
ATOM     27  C   UNL     1      -5.309  12.339  24.755  0.00  0.00    +0.000 A 
ATOM     28  C   UNL     1      -6.222  12.779  23.802  0.00  0.00    +0.000 A 
ATOM     29  F   UNL     1      -7.532  12.733  24.077  0.00  0.00    +0.000 F 
ATOM     30  C   UNL     1      -5.800  13.267  22.572  0.00  0.00    +0.000 A 
ATOM     31  C   UNL     1      -4.438  13.311  22.284  0.00  0.00    +0.000 A 
ENDBRANCH  24  25
ENDBRANCH  23  24
ENDBRANCH   4  23
TORSDOF 5
ENDMDL
MODEL 3
REMARK VINA RESULT:      -8.3      0.586      1.062
REMARK  Name = 
REMARK  8 active torsions:
REMARK  status: ('A' for Active; 'I' for Inactive)
REMARK    1  A    between atoms: C_1  and  C_2
REMARK    2  A    between atoms: C_3  and  C_4
REMARK    3  A    between atoms: N_6  and  C_7
REMARK    4  A    between atoms: N_6  and  C_8
REMARK    5  A    between atoms: C_13  and  N_14
REMARK    6  A    between atoms: C_17  and  O_18
REMARK    7  A    between atoms: O_18  and  C_19
REMARK    8  A    between atoms: C_19  and  C_20
REMARK                            x       y       z     vdW  Elec       q    Type
REMARK                         _______ _______ _______ _____ _____    ______ ____
ROOT
ATOM      1  N   UNL     1       0.478   9.910  20.057  0.00  0.00    +0.000 N 
ATOM      2  C   UNL     1      -0.536  10.409  19.250  0.00  0.00    +0.000 A 
ATOM      3  C   UNL     1      -1.303  11.434  19.625  0.00  0.00    +0.000 A 
ATOM      4  C   UNL     1      -1.142  12.024  20.930  0.00  0.00    +0.000 A 
ATOM      5  C   UNL     1      -0.205  11.553  21.759  0.00  0.00    +0.000 A 
ATOM      6  C   UNL     1       0.681  10.426  21.355  0.00  0.00    +0.000 A 
ATOM      7  O   UNL     1       1.540  10.059  22.159  0.00  0.00    +0.000 OA
ENDROOT
BRANCH   1  15
ATOM      8  C   UNL     1       2.042   4.856  21.118  0.00  0.00    +0.000 C 
ATOM      9  C   UNL     1       2.614   5.467  19.891  0.00  0.00    +0.000 A 
ATOM     10  C   UNL     1       3.525   4.985  18.948  0.00  0.00    +0.000 A 
ATOM     11  N   UNL     1       3.703   5.928  17.949  0.00  0.00    +0.000 NA
ATOM     12  C   UNL     1       2.979   6.964  18.294  0.00  0.00    +0.000 A 
ATOM     13  C   UNL     1       2.818   8.227  17.678  0.00  0.00    +0.000 A 
ATOM     14  C   UNL     1       2.023   9.151  18.244  0.00  0.00    +0.000 A 
ATOM     15  C   UNL     1       1.278   8.904  19.495  0.00  0.00    +0.000 A 
ATOM     16  C   UNL     1       1.461   7.697  20.071  0.00  0.00    +0.000 A 
ATOM     17  N   UNL     1       2.295   6.746  19.479  0.00  0.00    +0.000 N 
BRANCH  10  18
ATOM     18  C   UNL     1       4.155   3.651  18.957  0.00  0.00    +0.000 C 
ATOM     19  O   UNL     1       5.331   3.536  19.308  0.00  0.00    +0.000 OA
ATOM     20  N   UNL     1       3.419   2.527  18.553  0.00  0.00    +0.000 N 
ATOM     21  C   UNL     1       2.066   2.516  18.012  0.00  0.00    +0.000 C 
ATOM     22  C   UNL     1       4.071   1.230  18.597  0.00  0.00    +0.000 C 
ENDBRANCH  10  18
ENDBRANCH   1  15
BRANCH   4  23
ATOM     23  O   UNL     1      -1.963  13.061  21.329  0.00  0.00    +0.000 OA
BRANCH  23  24
ATOM     24  C   UNL     1      -3.250  13.126  20.712  0.00  0.00    +0.000 C 
BRANCH  24  25
ATOM     25  C   UNL     1      -4.320  13.075  21.767  0.00  0.00    +0.000 A 
ATOM     26  C   UNL     1      -5.669  13.259  21.425  0.00  0.00    +0.000 A 
ATOM     27  C   UNL     1      -6.651  13.208  22.411  0.00  0.00    +0.000 A 
ATOM     28  C   UNL     1      -6.286  12.970  23.732  0.00  0.00    +0.000 A 
ATOM     29  F   UNL     1      -7.233  12.924  24.678  0.00  0.00    +0.000 F 
ATOM     30  C   UNL     1      -4.958  12.776  24.087  0.00  0.00    +0.000 A 
ATOM     31  C   UNL     1      -3.972  12.828  23.104  0.00  0.00    +0.000 A 
ENDBRANCH  24  25
ENDBRANCH  23  24
ENDBRANCH   4  23
TORSDOF 5
ENDMDL
MODEL 4
REMARK VINA RESULT:      -8.1      1.537      1.765
REMARK  Name = 
REMARK  8 active torsions:
REMARK  status: ('A' for Active; 'I' for Inactive)
REMARK    1  A    between atoms: C_1  and  C_2
REMARK    2  A    between atoms: C_3  and  C_4
REMARK    3  A    between atoms: N_6  and  C_7
REMARK    4  A    between atoms: N_6  and  C_8
REMARK    5  A    between atoms: C_13  and  N_14
REMARK    6  A    between atoms: C_17  and  O_18
REMARK    7  A    between atoms: O_18  and  C_19
REMARK    8  A    between atoms: C_19  and  C_20
REMARK                            x       y       z     vdW  Elec       q    Type
REMARK                         _______ _______ _______ _____ _____    ______ ____
ROOT
ATOM      1  N   UNL     1       0.465   9.674  20.187  0.00  0.00    +0.000 N 
ATOM      2  C   UNL     1      -0.434  10.289  19.327  0.00  0.00    +0.000 A 
ATOM      3  C   UNL     1      -1.191  11.320  19.709  0.00  0.00    +0.000 A 
ATOM      4  C   UNL     1      -1.143  11.793  21.069  0.00  0.00    +0.000 A 
ATOM      5  C   UNL     1      -0.321  11.207  21.946  0.00  0.00    +0.000 A 
ATOM      6  C   UNL     1       0.553  10.071  21.539  0.00  0.00    +0.000 A 
ATOM      7  O   UNL     1       1.305   9.595  22.391  0.00  0.00    +0.000 OA
ENDROOT
BRANCH   1  15
ATOM      8  C   UNL     1       1.992   4.597  21.191  0.00  0.00    +0.000 C 
ATOM      9  C   UNL     1       2.593   5.227  19.988  0.00  0.00    +0.000 A 
ATOM     10  C   UNL     1       3.523   4.760  19.057  0.00  0.00    +0.000 A 
ATOM     11  N   UNL     1       3.726   5.720  18.080  0.00  0.00    +0.000 NA
ATOM     12  C   UNL     1       2.997   6.752  18.427  0.00  0.00    +0.000 A 
ATOM     13  C   UNL     1       2.854   8.027  17.830  0.00  0.00    +0.000 A 
ATOM     14  C   UNL     1       2.048   8.943  18.395  0.00  0.00    +0.000 A 
ATOM     15  C   UNL     1       1.275   8.676  19.625  0.00  0.00    +0.000 A 
ATOM     16  C   UNL     1       1.442   7.457  20.183  0.00  0.00    +0.000 A 
ATOM     17  N   UNL     1       2.286   6.515  19.592  0.00  0.00    +0.000 N 
BRANCH  10  18
ATOM     18  C   UNL     1       4.149   3.424  19.056  0.00  0.00    +0.000 C 
ATOM     19  O   UNL     1       5.279   3.282  19.525  0.00  0.00    +0.000 OA
ATOM     20  N   UNL     1       3.461   2.330  18.509  0.00  0.00    +0.000 N 
ATOM     21  C   UNL     1       2.176   2.359  17.825  0.00  0.00    +0.000 C 
ATOM     22  C   UNL     1       4.106   1.029  18.547  0.00  0.00    +0.000 C 
ENDBRANCH  10  18
ENDBRANCH   1  15
BRANCH   4  23
ATOM     23  O   UNL     1      -1.954  12.836  21.471  0.00  0.00    +0.000 OA
BRANCH  23  24
ATOM     24  C   UNL     1      -2.747  13.452  20.454  0.00  0.00    +0.000 C 
BRANCH  24  25
ATOM     25  C   UNL     1      -4.127  12.855  20.456  0.00  0.00    +0.000 A 
ATOM     26  C   UNL     1      -4.938  12.938  21.598  0.00  0.00    +0.000 A 
ATOM     27  C   UNL     1      -6.215  12.382  21.587  0.00  0.00    +0.000 A 
ATOM     28  C   UNL     1      -6.679  11.751  20.438  0.00  0.00    +0.000 A 
ATOM     29  F   UNL     1      -7.906  11.214  20.431  0.00  0.00    +0.000 F 
ATOM     30  C   UNL     1      -5.893  11.668  19.296  0.00  0.00    +0.000 A 
ATOM     31  C   UNL     1      -4.615  12.221  19.303  0.00  0.00    +0.000 A 
ENDBRANCH  24  25
ENDBRANCH  23  24
ENDBRANCH   4  23
TORSDOF 5
ENDMDL
MODEL 5
REMARK VINA RESULT:      -8.1      1.036      1.558
REMARK  Name = 
REMARK  8 active torsions:
REMARK  status: ('A' for Active; 'I' for Inactive)
REMARK    1  A    between atoms: C_1  and  C_2
REMARK    2  A    between atoms: C_3  and  C_4
REMARK    3  A    between atoms: N_6  and  C_7
REMARK    4  A    between atoms: N_6  and  C_8
REMARK    5  A    between atoms: C_13  and  N_14
REMARK    6  A    between atoms: C_17  and  O_18
REMARK    7  A    between atoms: O_18  and  C_19
REMARK    8  A    between atoms: C_19  and  C_20
REMARK                            x       y       z     vdW  Elec       q    Type
REMARK                         _______ _______ _______ _____ _____    ______ ____
ROOT
ATOM      1  N   UNL     1       0.577   9.733  20.655  0.00  0.00    +0.000 N 
ATOM      2  C   UNL     1       0.439   9.530  22.021  0.00  0.00    +0.000 A 
ATOM      3  C   UNL     1      -0.308  10.327  22.786  0.00  0.00    +0.000 A 
ATOM      4  C   UNL     1      -0.955  11.483  22.218  0.00  0.00    +0.000 A 
ATOM      5  C   UNL     1      -0.821  11.743  20.914  0.00  0.00    +0.000 A 
ATOM      6  C   UNL     1      -0.013  10.855  20.033  0.00  0.00    +0.000 A 
ATOM      7  O   UNL     1       0.048  11.140  18.836  0.00  0.00    +0.000 OA
ENDROOT
BRANCH   1  15
ATOM      8  C   UNL     1       2.293   4.659  21.303  0.00  0.00    +0.000 C 
ATOM      9  C   UNL     1       2.696   5.321  20.036  0.00  0.00    +0.000 A 
ATOM     10  C   UNL     1       3.478   4.886  18.964  0.00  0.00    +0.000 A 
ATOM     11  N   UNL     1       3.518   5.867  17.988  0.00  0.00    +0.000 NA
ATOM     12  C   UNL     1       2.839   6.882  18.465  0.00  0.00    +0.000 A 
ATOM     13  C   UNL     1       2.593   8.166  17.925  0.00  0.00    +0.000 A 
ATOM     14  C   UNL     1       1.875   9.060  18.626  0.00  0.00    +0.000 A 
ATOM     15  C   UNL     1       1.301   8.757  19.954  0.00  0.00    +0.000 A 
ATOM     16  C   UNL     1       1.565   7.531  20.453  0.00  0.00    +0.000 A 
ATOM     17  N   UNL     1       2.318   6.612  19.720  0.00  0.00    +0.000 N 
BRANCH  10  18
ATOM     18  C   UNL     1       4.110   3.558  18.838  0.00  0.00    +0.000 C 
ATOM     19  O   UNL     1       5.318   3.438  19.049  0.00  0.00    +0.000 OA
ATOM     20  N   UNL     1       3.337   2.448  18.466  0.00  0.00    +0.000 N 
ATOM     21  C   UNL     1       1.932   2.450  18.081  0.00  0.00    +0.000 C 
ATOM     22  C   UNL     1       3.996   1.156  18.374  0.00  0.00    +0.000 C 
ENDBRANCH  10  18
ENDBRANCH   1  15
BRANCH   4  23
ATOM     23  O   UNL     1      -1.699  12.327  23.020  0.00  0.00    +0.000 OA
BRANCH  23  24
ATOM     24  C   UNL     1      -2.532  13.272  22.345  0.00  0.00    +0.000 C 
BRANCH  24  25
ATOM     25  C   UNL     1      -3.972  13.019  22.698  0.00  0.00    +0.000 A 
ATOM     26  C   UNL     1      -4.936  12.868  21.690  0.00  0.00    +0.000 A 
ATOM     27  C   UNL     1      -6.267  12.632  22.029  0.00  0.00    +0.000 A 
ATOM     28  C   UNL     1      -6.629  12.545  23.369  0.00  0.00    +0.000 A 
ATOM     29  F   UNL     1      -7.909  12.322  23.692  0.00  0.00    +0.000 F 
ATOM     30  C   UNL     1      -5.685  12.683  24.379  0.00  0.00    +0.000 A 
ATOM     31  C   UNL     1      -4.354  12.920  24.044  0.00  0.00    +0.000 A 
ENDBRANCH  24  25
ENDBRANCH  23  24
ENDBRANCH   4  23
TORSDOF 5
ENDMDL
MODEL 6
REMARK VINA RESULT:      -8.1      4.747     11.102
REMARK  Name = 
REMARK  8 active torsions:
REMARK  status: ('A' for Active; 'I' for Inactive)
REMARK    1  A    between atoms: C_1  and  C_2
REMARK    2  A    between atoms: C_3  and  C_4
REMARK    3  A    between atoms: N_6  and  C_7
REMARK    4  A    between atoms: N_6  and  C_8
REMARK    5  A    between atoms: C_13  and  N_14
REMARK    6  A    between atoms: C_17  and  O_18
REMARK    7  A    between atoms: O_18  and  C_19
REMARK    8  A    between atoms: C_19  and  C_20
REMARK                            x       y       z     vdW  Elec       q    Type
REMARK                         _______ _______ _______ _____ _____    ______ ____
ROOT
ATOM      1  N   UNL     1       2.422   7.400  19.128  0.00  0.00    +0.000 N 
ATOM      2  C   UNL     1       3.298   7.610  18.073  0.00  0.00    +0.000 A 
ATOM      3  C   UNL     1       4.088   6.644  17.601  0.00  0.00    +0.000 A 
ATOM      4  C   UNL     1       4.103   5.347  18.227  0.00  0.00    +0.000 A 
ATOM      5  C   UNL     1       3.305   5.106  19.272  0.00  0.00    +0.000 A 
ATOM      6  C   UNL     1       2.395   6.159  19.802  0.00  0.00    +0.000 A 
ATOM      7  O   UNL     1       1.668   5.862  20.752  0.00  0.00    +0.000 OA
ENDROOT
BRANCH   1  15
ATOM      8  C   UNL     1       0.087   9.607  23.463  0.00  0.00    +0.000 C 
ATOM      9  C   UNL     1      -0.244  10.237  22.159  0.00  0.00    +0.000 A 
ATOM     10  C   UNL     1      -1.087  11.298  21.823  0.00  0.00    +0.000 A 
ATOM     11  N   UNL     1      -1.015  11.538  20.461  0.00  0.00    +0.000 NA
ATOM     12  C   UNL     1      -0.208  10.626  19.974  0.00  0.00    +0.000 A 
ATOM     13  C   UNL     1       0.192  10.360  18.644  0.00  0.00    +0.000 A 
ATOM     14  C   UNL     1       1.026   9.337  18.388  0.00  0.00    +0.000 A 
ATOM     15  C   UNL     1       1.572   8.468  19.450  0.00  0.00    +0.000 A 
ATOM     16  C   UNL     1       1.161   8.734  20.709  0.00  0.00    +0.000 A 
ATOM     17  N   UNL     1       0.290   9.794  20.964  0.00  0.00    +0.000 N 
BRANCH  10  18
ATOM     18  C   UNL     1      -1.883  12.103  22.770  0.00  0.00    +0.000 C 
ATOM     19  O   UNL     1      -2.904  11.624  23.266  0.00  0.00    +0.000 OA
ATOM     20  N   UNL     1      -1.481  13.409  23.087  0.00  0.00    +0.000 N 
ATOM     21  C   UNL     1      -0.368  14.147  22.506  0.00  0.00    +0.000 C 
ATOM     22  C   UNL     1      -2.282  14.158  24.041  0.00  0.00    +0.000 C 
ENDBRANCH  10  18
ENDBRANCH   1  15
BRANCH   4  23
ATOM     23  O   UNL     1       4.949   4.359  17.760  0.00  0.00    +0.000 OA
BRANCH  23  24
ATOM     24  C   UNL     1       4.557   3.708  16.549  0.00  0.00    +0.000 C 
BRANCH  24  25
ATOM     25  C   UNL     1       5.503   4.085  15.443  0.00  0.00    +0.000 A 
ATOM     26  C   UNL     1       6.670   4.813  15.720  0.00  0.00    +0.000 A 
ATOM     27  C   UNL     1       7.540   5.155  14.686  0.00  0.00    +0.000 A 
ATOM     28  C   UNL     1       7.244   4.766  13.384  0.00  0.00    +0.000 A 
ATOM     29  F   UNL     1       8.080   5.099  12.392  0.00  0.00    +0.000 F 
ATOM     30  C   UNL     1       6.098   4.037  13.094  0.00  0.00    +0.000 A 
ATOM     31  C   UNL     1       5.225   3.695  14.124  0.00  0.00    +0.000 A 
ENDBRANCH  24  25
ENDBRANCH  23  24
ENDBRANCH   4  23
TORSDOF 5
ENDMDL
MODEL 7
REMARK VINA RESULT:      -8.0      3.574     10.274
REMARK  Name = 
REMARK  8 active torsions:
REMARK  status: ('A' for Active; 'I' for Inactive)
REMARK    1  A    between atoms: C_1  and  C_2
REMARK    2  A    between atoms: C_3  and  C_4
REMARK    3  A    between atoms: N_6  and  C_7
REMARK    4  A    between atoms: N_6  and  C_8
REMARK    5  A    between atoms: C_13  and  N_14
REMARK    6  A    between atoms: C_17  and  O_18
REMARK    7  A    between atoms: O_18  and  C_19
REMARK    8  A    between atoms: C_19  and  C_20
REMARK                            x       y       z     vdW  Elec       q    Type
REMARK                         _______ _______ _______ _____ _____    ______ ____
ROOT
ATOM      1  N   UNL     1       0.272   9.885  19.540  0.00  0.00    +0.000 N 
ATOM      2  C   UNL     1       0.793   9.811  18.255  0.00  0.00    +0.000 A 
ATOM      3  C   UNL     1       1.697   8.895  17.907  0.00  0.00    +0.000 A 
ATOM      4  C   UNL     1       2.220   7.979  18.888  0.00  0.00    +0.000 A 
ATOM      5  C   UNL     1       1.779   8.035  20.149  0.00  0.00    +0.000 A 
ATOM      6  C   UNL     1       0.751   9.032  20.558  0.00  0.00    +0.000 A 
ATOM      7  O   UNL     1       0.371   9.013  21.730  0.00  0.00    +0.000 OA
ENDROOT
BRANCH   1  15
ATOM      8  C   UNL     1      -1.235  13.582  23.170  0.00  0.00    +0.000 C 
ATOM      9  C   UNL     1      -2.143  13.409  22.007  0.00  0.00    +0.000 A 
ATOM     10  C   UNL     1      -3.359  14.010  21.677  0.00  0.00    +0.000 A 
ATOM     11  N   UNL     1      -3.793  13.539  20.449  0.00  0.00    +0.000 NA
ATOM     12  C   UNL     1      -2.912  12.645  20.071  0.00  0.00    +0.000 A 
ATOM     13  C   UNL     1      -2.873  11.811  18.929  0.00  0.00    +0.000 A 
ATOM     14  C   UNL     1      -1.859  10.942  18.771  0.00  0.00    +0.000 A 
ATOM     15  C   UNL     1      -0.751  10.823  19.741  0.00  0.00    +0.000 A 
ATOM     16  C   UNL     1      -0.822  11.619  20.829  0.00  0.00    +0.000 A 
ATOM     17  N   UNL     1      -1.882  12.513  20.988  0.00  0.00    +0.000 N 
BRANCH  10  18
ATOM     18  C   UNL     1      -4.053  15.048  22.464  0.00  0.00    +0.000 C 
ATOM     19  O   UNL     1      -3.686  16.222  22.379  0.00  0.00    +0.000 OA
ATOM     20  N   UNL     1      -5.113  14.691  23.311  0.00  0.00    +0.000 N 
ATOM     21  C   UNL     1      -5.587  13.345  23.599  0.00  0.00    +0.000 C 
ATOM     22  C   UNL     1      -5.782  15.748  24.050  0.00  0.00    +0.000 C 
ENDBRANCH  10  18
ENDBRANCH   1  15
BRANCH   4  23
ATOM     23  O   UNL     1       3.184   7.055  18.533  0.00  0.00    +0.000 OA
BRANCH  23  24
ATOM     24  C   UNL     1       3.471   6.036  19.493  0.00  0.00    +0.000 C 
BRANCH  24  25
ATOM     25  C   UNL     1       2.608   4.834  19.228  0.00  0.00    +0.000 A 
ATOM     26  C   UNL     1       2.682   4.159  18.000  0.00  0.00    +0.000 A 
ATOM     27  C   UNL     1       1.878   3.045  17.767  0.00  0.00    +0.000 A 
ATOM     28  C   UNL     1       1.008   2.607  18.760  0.00  0.00    +0.000 A 
ATOM     29  F   UNL     1       0.234   1.538  18.532  0.00  0.00    +0.000 F 
ATOM     30  C   UNL     1       0.929   3.257  19.985  0.00  0.00    +0.000 A 
ATOM     31  C   UNL     1       1.730   4.372  20.221  0.00  0.00    +0.000 A 
ENDBRANCH  24  25
ENDBRANCH  23  24
ENDBRANCH   4  23
TORSDOF 5
ENDMDL
MODEL 8
REMARK VINA RESULT:      -8.0      1.226      1.587
REMARK  Name = 
REMARK  8 active torsions:
REMARK  status: ('A' for Active; 'I' for Inactive)
REMARK    1  A    between atoms: C_1  and  C_2
REMARK    2  A    between atoms: C_3  and  C_4
REMARK    3  A    between atoms: N_6  and  C_7
REMARK    4  A    between atoms: N_6  and  C_8
REMARK    5  A    between atoms: C_13  and  N_14
REMARK    6  A    between atoms: C_17  and  O_18
REMARK    7  A    between atoms: O_18  and  C_19
REMARK    8  A    between atoms: C_19  and  C_20
REMARK                            x       y       z     vdW  Elec       q    Type
REMARK                         _______ _______ _______ _____ _____    ______ ____
ROOT
ATOM      1  N   UNL     1       0.497   9.907  20.877  0.00  0.00    +0.000 N 
ATOM      2  C   UNL     1       0.781  11.234  20.588  0.00  0.00    +0.000 A 
ATOM      3  C   UNL     1       0.298  12.241  21.318  0.00  0.00    +0.000 A 
ATOM      4  C   UNL     1      -0.603  11.978  22.411  0.00  0.00    +0.000 A 
ATOM      5  C   UNL     1      -0.939  10.718  22.706  0.00  0.00    +0.000 A 
ATOM      6  C   UNL     1      -0.393   9.575  21.922  0.00  0.00    +0.000 A 
ATOM      7  O   UNL     1      -0.724   8.439  22.264  0.00  0.00    +0.000 OA
ENDROOT
BRANCH   1  15
ATOM      8  C   UNL     1       2.271   4.827  21.274  0.00  0.00    +0.000 C 
ATOM      9  C   UNL     1       2.561   5.515  19.990  0.00  0.00    +0.000 A 
ATOM     10  C   UNL     1       3.246   5.102  18.846  0.00  0.00    +0.000 A 
ATOM     11  N   UNL     1       3.199   6.102  17.889  0.00  0.00    +0.000 NA
ATOM     12  C   UNL     1       2.563   7.106  18.443  0.00  0.00    +0.000 A 
ATOM     13  C   UNL     1       2.269   8.399  17.952  0.00  0.00    +0.000 A 
ATOM     14  C   UNL     1       1.613   9.277  18.731  0.00  0.00    +0.000 A 
ATOM     15  C   UNL     1       1.159   8.947  20.097  0.00  0.00    +0.000 A 
ATOM     16  C   UNL     1       1.467   7.712  20.547  0.00  0.00    +0.000 A 
ATOM     17  N   UNL     1       2.155   6.810  19.734  0.00  0.00    +0.000 N 
BRANCH  10  18
ATOM     18  C   UNL     1       3.867   3.780  18.639  0.00  0.00    +0.000 C 
ATOM     19  O   UNL     1       5.095   3.681  18.623  0.00  0.00    +0.000 OA
ATOM     20  N   UNL     1       3.058   2.650  18.448  0.00  0.00    +0.000 N 
ATOM     21  C   UNL     1       1.606   2.623  18.333  0.00  0.00    +0.000 C 
ATOM     22  C   UNL     1       3.711   1.364  18.269  0.00  0.00    +0.000 C 
ENDBRANCH  10  18
ENDBRANCH   1  15
BRANCH   4  23
ATOM     23  O   UNL     1      -1.132  13.024  23.143  0.00  0.00    +0.000 OA
BRANCH  23  24
ATOM     24  C   UNL     1      -1.844  14.020  22.404  0.00  0.00    +0.000 C 
BRANCH  24  25
ATOM     25  C   UNL     1      -3.248  13.551  22.146  0.00  0.00    +0.000 A 
ATOM     26  C   UNL     1      -3.666  13.233  20.845  0.00  0.00    +0.000 A 
ATOM     27  C   UNL     1      -4.970  12.798  20.619  0.00  0.00    +0.000 A 
ATOM     28  C   UNL     1      -5.850  12.678  21.690  0.00  0.00    +0.000 A 
ATOM     29  F   UNL     1      -7.104  12.262  21.469  0.00  0.00    +0.000 F 
ATOM     30  C   UNL     1      -5.449  12.979  22.986  0.00  0.00    +0.000 A 
ATOM     31  C   UNL     1      -4.147  13.416  23.216  0.00  0.00    +0.000 A 
ENDBRANCH  24  25
ENDBRANCH  23  24
ENDBRANCH   4  23
TORSDOF 5
ENDMDL
MODEL 9
REMARK VINA RESULT:      -8.0      4.816     10.989
REMARK  Name = 
REMARK  8 active torsions:
REMARK  status: ('A' for Active; 'I' for Inactive)
REMARK    1  A    between atoms: C_1  and  C_2
REMARK    2  A    between atoms: C_3  and  C_4
REMARK    3  A    between atoms: N_6  and  C_7
REMARK    4  A    between atoms: N_6  and  C_8
REMARK    5  A    between atoms: C_13  and  N_14
REMARK    6  A    between atoms: C_17  and  O_18
REMARK    7  A    between atoms: O_18  and  C_19
REMARK    8  A    between atoms: C_19  and  C_20
REMARK                            x       y       z     vdW  Elec       q    Type
REMARK                         _______ _______ _______ _____ _____    ______ ____
ROOT
ATOM      1  N   UNL     1       1.370   9.056  19.392  0.00  0.00    +0.000 N 
ATOM      2  C   UNL     1       1.892   8.645  18.173  0.00  0.00    +0.000 A 
ATOM      3  C   UNL     1       2.426   7.435  18.001  0.00  0.00    +0.000 A 
ATOM      4  C   UNL     1       2.538   6.524  19.111  0.00  0.00    +0.000 A 
ATOM      5  C   UNL     1       2.085   6.888  20.315  0.00  0.00    +0.000 A 
ATOM      6  C   UNL     1       1.462   8.224  20.529  0.00  0.00    +0.000 A 
ATOM      7  O   UNL     1       1.043   8.485  21.658  0.00  0.00    +0.000 OA
ENDROOT
BRANCH   1  15
ATOM      8  C   UNL     1       2.501  14.212  18.275  0.00  0.00    +0.000 C 
ATOM      9  C   UNL     1       1.137  13.948  18.799  0.00  0.00    +0.000 A 
ATOM     10  C   UNL     1       0.071  14.800  19.095  0.00  0.00    +0.000 A 
ATOM     11  N   UNL     1      -1.018  14.055  19.517  0.00  0.00    +0.000 NA
ATOM     12  C   UNL     1      -0.618  12.807  19.535  0.00  0.00    +0.000 A 
ATOM     13  C   UNL     1      -1.290  11.626  19.929  0.00  0.00    +0.000 A 
ATOM     14  C   UNL     1      -0.651  10.444  19.878  0.00  0.00    +0.000 A 
ATOM     15  C   UNL     1       0.742  10.310  19.405  0.00  0.00    +0.000 A 
ATOM     16  C   UNL     1       1.365  11.454  19.051  0.00  0.00    +0.000 A 
ATOM     17  N   UNL     1       0.696  12.678  19.114  0.00  0.00    +0.000 N 
BRANCH  10  18
ATOM     18  C   UNL     1       0.060  16.265  18.920  0.00  0.00    +0.000 C 
ATOM     19  O   UNL     1      -0.476  16.754  17.923  0.00  0.00    +0.000 OA
ATOM     20  N   UNL     1       0.671  17.089  19.877  0.00  0.00    +0.000 N 
ATOM     21  C   UNL     1       1.433  16.660  21.041  0.00  0.00    +0.000 C 
ATOM     22  C   UNL     1       0.617  18.527  19.675  0.00  0.00    +0.000 C 
ENDBRANCH  10  18
ENDBRANCH   1  15
BRANCH   4  23
ATOM     23  O   UNL     1       3.124   5.285  18.938  0.00  0.00    +0.000 OA
BRANCH  23  24
ATOM     24  C   UNL     1       4.515   5.192  19.254  0.00  0.00    +0.000 C 
BRANCH  24  25
ATOM     25  C   UNL     1       5.320   5.128  17.986  0.00  0.00    +0.000 A 
ATOM     26  C   UNL     1       4.966   4.237  16.961  0.00  0.00    +0.000 A 
ATOM     27  C   UNL     1       5.719   4.188  15.790  0.00  0.00    +0.000 A 
ATOM     28  C   UNL     1       6.816   5.031  15.644  0.00  0.00    +0.000 A 
ATOM     29  F   UNL     1       7.540   4.979  14.518  0.00  0.00    +0.000 F 
ATOM     30  C   UNL     1       7.174   5.925  16.644  0.00  0.00    +0.000 A 
ATOM     31  C   UNL     1       6.426   5.975  17.817  0.00  0.00    +0.000 A 
ENDBRANCH  24  25
ENDBRANCH  23  24
ENDBRANCH   4  23
TORSDOF 5
ENDMDL
