MODEL 1
REMARK VINA RESULT:      -7.1      0.000      0.000
REMARK  Name = 
REMARK  11 active torsions:
REMARK  status: ('A' for Active; 'I' for Inactive)
REMARK    1  A    between atoms: C_1  and  O_2
REMARK    2  A    between atoms: O_2  and  C_3
REMARK    3  A    between atoms: C_5  and  C_6
REMARK    4  A    between atoms: C_7  and  N_8
REMARK    5  A    between atoms: C_7  and  C_17
REMARK    6  A    between atoms: C_9  and  C_11
REMARK    7  A    between atoms: N_19  and  C_20
REMARK    8  A    between atoms: C_23  and  O_24
REMARK    9  A    between atoms: C_27  and  N_28
REMARK   10  A    between atoms: C_32  and  O_33
REMARK   11  A    between atoms: O_33  and  C_34
REMARK                            x       y       z     vdW  Elec       q    Type
REMARK                         _______ _______ _______ _____ _____    ______ ____
ROOT
ATOM      1  C   UNL     1      -0.763  10.331  20.292  0.00  0.00    +0.000 C 
ATOM      2  C   UNL     1       0.548  10.444  20.015  0.00  0.00    +0.000 C 
ENDROOT
BRANCH   1   5
ATOM      3  C   UNL     1      -3.832  12.432  19.762  0.00  0.00    +0.000 A 
ATOM      4  C   UNL     1      -2.660  11.683  19.538  0.00  0.00    +0.000 A 
ATOM      5  C   UNL     1      -1.768  11.375  20.577  0.00  0.00    +0.000 A 
ATOM      6  C   UNL     1      -1.991  11.985  21.818  0.00  0.00    +0.000 A 
ATOM      7  C   UNL     1      -3.148  12.737  22.060  0.00  0.00    +0.000 A 
ATOM      8  C   UNL     1      -4.093  12.935  21.048  0.00  0.00    +0.000 A 
BRANCH   6   9
ATOM      9  N   UNL     1      -1.023  11.892  22.900  0.00  0.00    +0.000 N 
ATOM     10  O   UNL     1      -0.820  10.779  23.399  0.00  0.00    +0.000 OA
ATOM     11  O   UNL     1      -0.507  12.954  23.288  0.00  0.00    +0.000 OA
ENDBRANCH   6   9
BRANCH   3  13
ATOM     12  C   UNL     1      -5.229  11.583  18.028  0.00  0.00    +0.000 C 
ATOM     13  O   UNL     1      -4.723  12.698  18.757  0.00  0.00    +0.000 OA
ENDBRANCH   3  13
BRANCH   8  14
ATOM     14  O   UNL     1      -5.188  13.622  21.499  0.00  0.00    +0.000 OA
ATOM     15  C   UNL     1      -6.357  12.907  21.866  0.00  0.00    +0.000 C 
ENDBRANCH   8  14
ENDBRANCH   1   5
BRANCH   2  16
ATOM     16  N   UNL     1       1.380   9.356  19.762  0.00  0.00    +0.000 N 
ATOM     17  C   UNL     1       1.879   8.949  18.531  0.00  0.00    +0.000 C 
ATOM     18  O   UNL     1       1.752   9.570  17.482  0.00  0.00    +0.000 OA
ATOM     19  H   UNL     1       1.561   8.772  20.568  0.00  0.00    +0.000 HD
BRANCH  17  20
ATOM     20  C   UNL     1       2.650   7.667  18.513  0.00  0.00    +0.000 A 
ATOM     21  C   UNL     1       2.430   6.751  19.552  0.00  0.00    +0.000 A 
ATOM     22  C   UNL     1       3.127   5.542  19.592  0.00  0.00    +0.000 A 
ATOM     23  C   UNL     1       4.046   5.235  18.589  0.00  0.00    +0.000 A 
ATOM     24  C   UNL     1       4.255   6.128  17.539  0.00  0.00    +0.000 A 
ATOM     25  C   UNL     1       3.556   7.339  17.495  0.00  0.00    +0.000 A 
ENDBRANCH  17  20
ENDBRANCH   2  16
BRANCH   2  26
ATOM     26  C   UNL     1       1.198  11.808  20.047  0.00  0.00    +0.000 C 
ATOM     27  O   UNL     1       1.739  12.217  21.070  0.00  0.00    +0.000 OA
ATOM     28  N   UNL     1       1.094  12.497  18.850  0.00  0.00    +0.000 N 
ATOM     29  H   UNL     1       0.458  12.120  18.154  0.00  0.00    +0.000 HD
BRANCH  28  30
ATOM     30  C   UNL     1       1.658  13.764  18.574  0.00  0.00    +0.000 A 
ATOM     31  C   UNL     1       0.984  14.966  18.824  0.00  0.00    +0.000 A 
ATOM     32  C   UNL     1       1.569  16.198  18.524  0.00  0.00    +0.000 A 
ATOM     33  C   UNL     1       2.843  16.232  17.983  0.00  0.00    +0.000 A 
ATOM     34  C   UNL     1       3.540  15.054  17.737  0.00  0.00    +0.000 A 
ATOM     35  C   UNL     1       2.949  13.820  18.034  0.00  0.00    +0.000 A 
BRANCH  33  36
ATOM     36  O   UNL     1       3.451  17.415  17.687  0.00  0.00    +0.000 OA
ATOM     37  H   UNL     1       4.409  17.307  17.811  0.00  0.00    +0.000 HD
ENDBRANCH  33  36
ENDBRANCH  28  30
ENDBRANCH   2  26
TORSDOF 9
ENDMDL
MODEL 2
REMARK VINA RESULT:      -7.1      1.403      2.469
REMARK  Name = 
REMARK  11 active torsions:
REMARK  status: ('A' for Active; 'I' for Inactive)
REMARK    1  A    between atoms: C_1  and  O_2
REMARK    2  A    between atoms: O_2  and  C_3
REMARK    3  A    between atoms: C_5  and  C_6
REMARK    4  A    between atoms: C_7  and  N_8
REMARK    5  A    between atoms: C_7  and  C_17
REMARK    6  A    between atoms: C_9  and  C_11
REMARK    7  A    between atoms: N_19  and  C_20
REMARK    8  A    between atoms: C_23  and  O_24
REMARK    9  A    between atoms: C_27  and  N_28
REMARK   10  A    between atoms: C_32  and  O_33
REMARK   11  A    between atoms: O_33  and  C_34
REMARK                            x       y       z     vdW  Elec       q    Type
REMARK                         _______ _______ _______ _____ _____    ______ ____
ROOT
ATOM      1  C   UNL     1      -0.737  10.377  20.458  0.00  0.00    +0.000 C 
ATOM      2  C   UNL     1       0.567  10.483  20.147  0.00  0.00    +0.000 C 
ENDROOT
BRANCH   1   5
ATOM      3  C   UNL     1      -2.614  12.844  22.580  0.00  0.00    +0.000 A 
ATOM      4  C   UNL     1      -1.932  11.692  22.142  0.00  0.00    +0.000 A 
ATOM      5  C   UNL     1      -1.726  11.425  20.780  0.00  0.00    +0.000 A 
ATOM      6  C   UNL     1      -2.373  12.258  19.857  0.00  0.00    +0.000 A 
ATOM      7  C   UNL     1      -3.058  13.406  20.272  0.00  0.00    +0.000 A 
ATOM      8  C   UNL     1      -3.153  13.728  21.630  0.00  0.00    +0.000 A 
BRANCH   6   9
ATOM      9  N   UNL     1      -2.388  11.955  18.435  0.00  0.00    +0.000 N 
ATOM     10  O   UNL     1      -1.434  12.346  17.750  0.00  0.00    +0.000 OA
ATOM     11  O   UNL     1      -3.392  11.370  17.993  0.00  0.00    +0.000 OA
ENDBRANCH   6   9
BRANCH   3  13
ATOM     12  C   UNL     1      -3.982  12.674  24.524  0.00  0.00    +0.000 C 
ATOM     13  O   UNL     1      -2.779  13.125  23.910  0.00  0.00    +0.000 OA
ENDBRANCH   3  13
BRANCH   8  14
ATOM     14  O   UNL     1      -3.787  14.925  21.829  0.00  0.00    +0.000 OA
ATOM     15  C   UNL     1      -5.204  14.979  21.786  0.00  0.00    +0.000 C 
ENDBRANCH   8  14
ENDBRANCH   1   5
BRANCH   2  16
ATOM     16  N   UNL     1       1.384   9.391  19.861  0.00  0.00    +0.000 N 
ATOM     17  C   UNL     1       1.837   8.987  18.612  0.00  0.00    +0.000 C 
ATOM     18  O   UNL     1       1.676   9.613  17.570  0.00  0.00    +0.000 OA
ATOM     19  H   UNL     1       1.590   8.803  20.658  0.00  0.00    +0.000 HD
BRANCH  17  20
ATOM     20  C   UNL     1       2.600   7.701  18.562  0.00  0.00    +0.000 A 
ATOM     21  C   UNL     1       2.404   6.778  19.600  0.00  0.00    +0.000 A 
ATOM     22  C   UNL     1       3.095   5.564  19.610  0.00  0.00    +0.000 A 
ATOM     23  C   UNL     1       3.983   5.261  18.579  0.00  0.00    +0.000 A 
ATOM     24  C   UNL     1       4.168   6.162  17.531  0.00  0.00    +0.000 A 
ATOM     25  C   UNL     1       3.475   7.376  17.516  0.00  0.00    +0.000 A 
ENDBRANCH  17  20
ENDBRANCH   2  16
BRANCH   2  26
ATOM     26  C   UNL     1       1.228  11.841  20.177  0.00  0.00    +0.000 C 
ATOM     27  O   UNL     1       1.717  12.275  21.216  0.00  0.00    +0.000 OA
ATOM     28  N   UNL     1       1.196  12.497  18.957  0.00  0.00    +0.000 N 
ATOM     29  H   UNL     1       0.595  12.106  18.238  0.00  0.00    +0.000 HD
BRANCH  28  30
ATOM     30  C   UNL     1       1.787  13.752  18.677  0.00  0.00    +0.000 A 
ATOM     31  C   UNL     1       1.120  14.967  18.875  0.00  0.00    +0.000 A 
ATOM     32  C   UNL     1       1.732  16.185  18.573  0.00  0.00    +0.000 A 
ATOM     33  C   UNL     1       3.027  16.191  18.082  0.00  0.00    +0.000 A 
ATOM     34  C   UNL     1       3.717  15.000  17.888  0.00  0.00    +0.000 A 
ATOM     35  C   UNL     1       3.099  13.779  18.187  0.00  0.00    +0.000 A 
BRANCH  33  36
ATOM     36  O   UNL     1       3.661  17.360  17.785  0.00  0.00    +0.000 OA
ATOM     37  H   UNL     1       3.428  17.612  16.875  0.00  0.00    +0.000 HD
ENDBRANCH  33  36
ENDBRANCH  28  30
ENDBRANCH   2  26
TORSDOF 9
ENDMDL
MODEL 3
REMARK VINA RESULT:      -7.1      1.480      2.790
REMARK  Name = 
REMARK  11 active torsions:
REMARK  status: ('A' for Active; 'I' for Inactive)
REMARK    1  A    between atoms: C_1  and  O_2
REMARK    2  A    between atoms: O_2  and  C_3
REMARK    3  A    between atoms: C_5  and  C_6
REMARK    4  A    between atoms: C_7  and  N_8
REMARK    5  A    between atoms: C_7  and  C_17
REMARK    6  A    between atoms: C_9  and  C_11
REMARK    7  A    between atoms: N_19  and  C_20
REMARK    8  A    between atoms: C_23  and  O_24
REMARK    9  A    between atoms: C_27  and  N_28
REMARK   10  A    between atoms: C_32  and  O_33
REMARK   11  A    between atoms: O_33  and  C_34
REMARK                            x       y       z     vdW  Elec       q    Type
REMARK                         _______ _______ _______ _____ _____    ______ ____
ROOT
ATOM      1  C   UNL     1      -0.759  10.390  20.514  0.00  0.00    +0.000 C 
ATOM      2  C   UNL     1       0.544  10.471  20.190  0.00  0.00    +0.000 C 
ENDROOT
BRANCH   1   5
ATOM      3  C   UNL     1      -2.586  12.916  22.609  0.00  0.00    +0.000 A 
ATOM      4  C   UNL     1      -1.925  11.747  22.185  0.00  0.00    +0.000 A 
ATOM      5  C   UNL     1      -1.729  11.459  20.825  0.00  0.00    +0.000 A 
ATOM      6  C   UNL     1      -2.366  12.289  19.894  0.00  0.00    +0.000 A 
ATOM      7  C   UNL     1      -3.031  13.454  20.296  0.00  0.00    +0.000 A 
ATOM      8  C   UNL     1      -3.114  13.796  21.650  0.00  0.00    +0.000 A 
BRANCH   6   9
ATOM      9  N   UNL     1      -2.391  11.968  18.476  0.00  0.00    +0.000 N 
ATOM     10  O   UNL     1      -3.332  11.284  18.054  0.00  0.00    +0.000 OA
ATOM     11  O   UNL     1      -1.428  12.357  17.792  0.00  0.00    +0.000 OA
ENDBRANCH   6   9
BRANCH   3  13
ATOM     12  C   UNL     1      -3.956  12.807  24.557  0.00  0.00    +0.000 C 
ATOM     13  O   UNL     1      -2.741  13.218  23.936  0.00  0.00    +0.000 OA
ENDBRANCH   3  13
BRANCH   8  14
ATOM     14  O   UNL     1      -3.729  15.006  21.835  0.00  0.00    +0.000 OA
ATOM     15  C   UNL     1      -3.116  16.182  21.331  0.00  0.00    +0.000 C 
ENDBRANCH   8  14
ENDBRANCH   1   5
BRANCH   2  16
ATOM     16  N   UNL     1       1.342   9.362  19.917  0.00  0.00    +0.000 N 
ATOM     17  C   UNL     1       1.790   8.936  18.673  0.00  0.00    +0.000 C 
ATOM     18  O   UNL     1       1.641   9.554  17.624  0.00  0.00    +0.000 OA
ATOM     19  H   UNL     1       1.537   8.779  20.721  0.00  0.00    +0.000 HD
BRANCH  17  20
ATOM     20  C   UNL     1       2.530   7.637  18.638  0.00  0.00    +0.000 A 
ATOM     21  C   UNL     1       3.431   7.421  17.584  0.00  0.00    +0.000 A 
ATOM     22  C   UNL     1       4.144   6.224  17.494  0.00  0.00    +0.000 A 
ATOM     23  C   UNL     1       3.969   5.236  18.462  0.00  0.00    +0.000 A 
ATOM     24  C   UNL     1       3.095   5.450  19.526  0.00  0.00    +0.000 A 
ATOM     25  C   UNL     1       2.380   6.649  19.620  0.00  0.00    +0.000 A 
ENDBRANCH  17  20
ENDBRANCH   2  16
BRANCH   2  26
ATOM     26  C   UNL     1       1.225  11.820  20.190  0.00  0.00    +0.000 C 
ATOM     27  O   UNL     1       1.701  12.279  21.224  0.00  0.00    +0.000 OA
ATOM     28  N   UNL     1       1.227  12.436  18.950  0.00  0.00    +0.000 N 
ATOM     29  H   UNL     1       0.634  12.031  18.232  0.00  0.00    +0.000 HD
BRANCH  28  30
ATOM     30  C   UNL     1       1.842  13.672  18.641  0.00  0.00    +0.000 A 
ATOM     31  C   UNL     1       3.156  13.769  18.167  0.00  0.00    +0.000 A 
ATOM     32  C   UNL     1       3.733  15.009  17.887  0.00  0.00    +0.000 A 
ATOM     33  C   UNL     1       2.989  16.163  18.070  0.00  0.00    +0.000 A 
ATOM     34  C   UNL     1       1.678  16.095  18.528  0.00  0.00    +0.000 A 
ATOM     35  C   UNL     1       1.103  14.850  18.812  0.00  0.00    +0.000 A 
BRANCH  33  36
ATOM     36  O   UNL     1       3.515  17.389  17.798  0.00  0.00    +0.000 OA
ATOM     37  H   UNL     1       4.484  17.310  17.780  0.00  0.00    +0.000 HD
ENDBRANCH  33  36
ENDBRANCH  28  30
ENDBRANCH   2  26
TORSDOF 9
ENDMDL
MODEL 4
REMARK VINA RESULT:      -6.7      2.088      4.899
REMARK  Name = 
REMARK  11 active torsions:
REMARK  status: ('A' for Active; 'I' for Inactive)
REMARK    1  A    between atoms: C_1  and  O_2
REMARK    2  A    between atoms: O_2  and  C_3
REMARK    3  A    between atoms: C_5  and  C_6
REMARK    4  A    between atoms: C_7  and  N_8
REMARK    5  A    between atoms: C_7  and  C_17
REMARK    6  A    between atoms: C_9  and  C_11
REMARK    7  A    between atoms: N_19  and  C_20
REMARK    8  A    between atoms: C_23  and  O_24
REMARK    9  A    between atoms: C_27  and  N_28
REMARK   10  A    between atoms: C_32  and  O_33
REMARK   11  A    between atoms: O_33  and  C_34
REMARK                            x       y       z     vdW  Elec       q    Type
REMARK                         _______ _______ _______ _____ _____    ______ ____
ROOT
ATOM      1  C   UNL     1       1.677  11.386  18.990  0.00  0.00    +0.000 C 
ATOM      2  C   UNL     1       1.071  10.260  18.572  0.00  0.00    +0.000 C 
ENDROOT
BRANCH   1   5
ATOM      3  C   UNL     1       0.668  15.004  19.019  0.00  0.00    +0.000 A 
ATOM      4  C   UNL     1       1.380  13.809  18.802  0.00  0.00    +0.000 A 
ATOM      5  C   UNL     1       1.098  12.637  19.520  0.00  0.00    +0.000 A 
ATOM      6  C   UNL     1       0.198  12.739  20.588  0.00  0.00    +0.000 A 
ATOM      7  C   UNL     1      -0.518  13.919  20.824  0.00  0.00    +0.000 A 
ATOM      8  C   UNL     1      -0.316  15.047  20.021  0.00  0.00    +0.000 A 
BRANCH   6   9
ATOM      9  N   UNL     1      -0.015  11.639  21.516  0.00  0.00    +0.000 N 
ATOM     10  O   UNL     1      -1.174  11.405  21.880  0.00  0.00    +0.000 OA
ATOM     11  O   UNL     1       0.996  11.043  21.925  0.00  0.00    +0.000 OA
ENDBRANCH   6   9
BRANCH   3  13
ATOM     12  C   UNL     1       2.216  16.708  18.400  0.00  0.00    +0.000 C 
ATOM     13  O   UNL     1       0.915  16.136  18.289  0.00  0.00    +0.000 OA
ENDBRANCH   3  13
BRANCH   8  14
ATOM     14  O   UNL     1      -1.164  16.070  20.354  0.00  0.00    +0.000 OA
ATOM     15  C   UNL     1      -2.397  15.774  20.989  0.00  0.00    +0.000 C 
ENDBRANCH   8  14
ENDBRANCH   1   5
BRANCH   2  16
ATOM     16  N   UNL     1       1.756   9.146  18.093  0.00  0.00    +0.000 N 
ATOM     17  C   UNL     1       2.181   8.045  18.825  0.00  0.00    +0.000 C 
ATOM     18  O   UNL     1       1.905   7.833  20.001  0.00  0.00    +0.000 OA
ATOM     19  H   UNL     1       2.029   9.209  17.121  0.00  0.00    +0.000 HD
BRANCH  17  20
ATOM     20  C   UNL     1       3.012   7.038  18.095  0.00  0.00    +0.000 A 
ATOM     21  C   UNL     1       2.645   5.687  18.191  0.00  0.00    +0.000 A 
ATOM     22  C   UNL     1       3.389   4.702  17.538  0.00  0.00    +0.000 A 
ATOM     23  C   UNL     1       4.501   5.059  16.778  0.00  0.00    +0.000 A 
ATOM     24  C   UNL     1       4.861   6.400  16.657  0.00  0.00    +0.000 A 
ATOM     25  C   UNL     1       4.117   7.390  17.308  0.00  0.00    +0.000 A 
ENDBRANCH  17  20
ENDBRANCH   2  16
BRANCH   2  26
ATOM     26  C   UNL     1      -0.439  10.201  18.536  0.00  0.00    +0.000 C 
ATOM     27  O   UNL     1      -1.050   9.426  19.266  0.00  0.00    +0.000 OA
ATOM     28  N   UNL     1      -1.003  11.071  17.618  0.00  0.00    +0.000 N 
ATOM     29  H   UNL     1      -0.376  11.511  16.953  0.00  0.00    +0.000 HD
BRANCH  28  30
ATOM     30  C   UNL     1      -2.388  11.272  17.412  0.00  0.00    +0.000 A 
ATOM     31  C   UNL     1      -3.024  10.990  16.198  0.00  0.00    +0.000 A 
ATOM     32  C   UNL     1      -4.392  11.215  16.029  0.00  0.00    +0.000 A 
ATOM     33  C   UNL     1      -5.135  11.713  17.086  0.00  0.00    +0.000 A 
ATOM     34  C   UNL     1      -4.531  11.990  18.308  0.00  0.00    +0.000 A 
ATOM     35  C   UNL     1      -3.158  11.767  18.473  0.00  0.00    +0.000 A 
BRANCH  33  36
ATOM     36  O   UNL     1      -6.473  11.936  16.962  0.00  0.00    +0.000 OA
ATOM     37  H   UNL     1      -6.628  12.413  16.129  0.00  0.00    +0.000 HD
ENDBRANCH  33  36
ENDBRANCH  28  30
ENDBRANCH   2  26
TORSDOF 9
ENDMDL
MODEL 5
REMARK VINA RESULT:      -6.7      2.293      7.745
REMARK  Name = 
REMARK  11 active torsions:
REMARK  status: ('A' for Active; 'I' for Inactive)
REMARK    1  A    between atoms: C_1  and  O_2
REMARK    2  A    between atoms: O_2  and  C_3
REMARK    3  A    between atoms: C_5  and  C_6
REMARK    4  A    between atoms: C_7  and  N_8
REMARK    5  A    between atoms: C_7  and  C_17
REMARK    6  A    between atoms: C_9  and  C_11
REMARK    7  A    between atoms: N_19  and  C_20
REMARK    8  A    between atoms: C_23  and  O_24
REMARK    9  A    between atoms: C_27  and  N_28
REMARK   10  A    between atoms: C_32  and  O_33
REMARK   11  A    between atoms: O_33  and  C_34
REMARK                            x       y       z     vdW  Elec       q    Type
REMARK                         _______ _______ _______ _____ _____    ______ ____
ROOT
ATOM      1  C   UNL     1       2.246   9.884  18.887  0.00  0.00    +0.000 C 
ATOM      2  C   UNL     1       1.404  10.813  18.400  0.00  0.00    +0.000 C 
ENDROOT
BRANCH   1   5
ATOM      3  C   UNL     1       2.589   6.165  18.484  0.00  0.00    +0.000 A 
ATOM      4  C   UNL     1       2.475   7.543  18.211  0.00  0.00    +0.000 A 
ATOM      5  C   UNL     1       2.020   8.454  19.176  0.00  0.00    +0.000 A 
ATOM      6  C   UNL     1       1.517   7.926  20.372  0.00  0.00    +0.000 A 
ATOM      7  C   UNL     1       1.618   6.560  20.662  0.00  0.00    +0.000 A 
ATOM      8  C   UNL     1       2.186   5.676  19.738  0.00  0.00    +0.000 A 
BRANCH   6   9
ATOM      9  N   UNL     1       0.844   8.763  21.353  0.00  0.00    +0.000 N 
ATOM     10  O   UNL     1      -0.385   8.878  21.269  0.00  0.00    +0.000 OA
ATOM     11  O   UNL     1       1.562   9.353  22.179  0.00  0.00    +0.000 OA
ENDBRANCH   6   9
BRANCH   3  13
ATOM     12  C   UNL     1       4.428   5.442  17.151  0.00  0.00    +0.000 C 
ATOM     13  O   UNL     1       3.071   5.282  17.556  0.00  0.00    +0.000 OA
ENDBRANCH   3  13
BRANCH   8  14
ATOM     14  O   UNL     1       2.270   4.402  20.234  0.00  0.00    +0.000 OA
ATOM     15  C   UNL     1       1.083   3.650  20.428  0.00  0.00    +0.000 C 
ENDBRANCH   8  14
ENDBRANCH   1   5
BRANCH   2  16
ATOM     16  N   UNL     1       1.764  12.140  18.174  0.00  0.00    +0.000 N 
ATOM     17  C   UNL     1       1.916  13.140  19.125  0.00  0.00    +0.000 C 
ATOM     18  O   UNL     1       1.868  12.970  20.339  0.00  0.00    +0.000 OA
ATOM     19  H   UNL     1       1.841  12.392  17.198  0.00  0.00    +0.000 HD
BRANCH  17  20
ATOM     20  C   UNL     1       2.185  14.518  18.609  0.00  0.00    +0.000 A 
ATOM     21  C   UNL     1       3.342  14.719  17.841  0.00  0.00    +0.000 A 
ATOM     22  C   UNL     1       3.649  15.985  17.339  0.00  0.00    +0.000 A 
ATOM     23  C   UNL     1       2.799  17.060  17.594  0.00  0.00    +0.000 A 
ATOM     24  C   UNL     1       1.635  16.866  18.336  0.00  0.00    +0.000 A 
ATOM     25  C   UNL     1       1.323  15.599  18.839  0.00  0.00    +0.000 A 
ENDBRANCH  17  20
ENDBRANCH   2  16
BRANCH   2  26
ATOM     26  C   UNL     1      -0.039  10.443  18.145  0.00  0.00    +0.000 C 
ATOM     27  O   UNL     1      -0.376   9.266  18.061  0.00  0.00    +0.000 OA
ATOM     28  N   UNL     1      -0.874  11.540  18.012  0.00  0.00    +0.000 N 
ATOM     29  H   UNL     1      -0.431  12.449  17.914  0.00  0.00    +0.000 HD
BRANCH  28  30
ATOM     30  C   UNL     1      -2.276  11.495  17.828  0.00  0.00    +0.000 A 
ATOM     31  C   UNL     1      -2.872  11.118  16.619  0.00  0.00    +0.000 A 
ATOM     32  C   UNL     1      -4.261  11.099  16.472  0.00  0.00    +0.000 A 
ATOM     33  C   UNL     1      -5.062  11.447  17.547  0.00  0.00    +0.000 A 
ATOM     34  C   UNL     1      -4.497  11.813  18.763  0.00  0.00    +0.000 A 
ATOM     35  C   UNL     1      -3.104  11.835  18.906  0.00  0.00    +0.000 A 
BRANCH  33  36
ATOM     36  O   UNL     1      -6.421  11.431  17.445  0.00  0.00    +0.000 OA
ATOM     37  H   UNL     1      -6.657  11.166  16.539  0.00  0.00    +0.000 HD
ENDBRANCH  33  36
ENDBRANCH  28  30
ENDBRANCH   2  26
TORSDOF 9
ENDMDL
MODEL 6
REMARK VINA RESULT:      -6.6      1.963      5.561
REMARK  Name = 
REMARK  11 active torsions:
REMARK  status: ('A' for Active; 'I' for Inactive)
REMARK    1  A    between atoms: C_1  and  O_2
REMARK    2  A    between atoms: O_2  and  C_3
REMARK    3  A    between atoms: C_5  and  C_6
REMARK    4  A    between atoms: C_7  and  N_8
REMARK    5  A    between atoms: C_7  and  C_17
REMARK    6  A    between atoms: C_9  and  C_11
REMARK    7  A    between atoms: N_19  and  C_20
REMARK    8  A    between atoms: C_23  and  O_24
REMARK    9  A    between atoms: C_27  and  N_28
REMARK   10  A    between atoms: C_32  and  O_33
REMARK   11  A    between atoms: O_33  and  C_34
REMARK                            x       y       z     vdW  Elec       q    Type
REMARK                         _______ _______ _______ _____ _____    ______ ____
ROOT
ATOM      1  C   UNL     1       1.248  12.961  20.082  0.00  0.00    +0.000 C 
ATOM      2  C   UNL     1       0.573  11.919  19.565  0.00  0.00    +0.000 C 
ENDROOT
BRANCH   1   5
ATOM      3  C   UNL     1       1.188  16.483  18.778  0.00  0.00    +0.000 A 
ATOM      4  C   UNL     1       1.601  15.175  19.100  0.00  0.00    +0.000 A 
ATOM      5  C   UNL     1       0.932  14.403  20.062  0.00  0.00    +0.000 A 
ATOM      6  C   UNL     1      -0.060  15.038  20.820  0.00  0.00    +0.000 A 
ATOM      7  C   UNL     1      -0.483  16.339  20.518  0.00  0.00    +0.000 A 
ATOM      8  C   UNL     1       0.111  17.056  19.474  0.00  0.00    +0.000 A 
BRANCH   6   9
ATOM      9  N   UNL     1      -0.675  14.392  21.968  0.00  0.00    +0.000 N 
ATOM     10  O   UNL     1      -1.713  13.745  21.781  0.00  0.00    +0.000 OA
ATOM     11  O   UNL     1      -0.142  14.582  23.075  0.00  0.00    +0.000 OA
ENDBRANCH   6   9
BRANCH   3  13
ATOM     12  C   UNL     1       3.085  16.757  17.360  0.00  0.00    +0.000 C 
ATOM     13  O   UNL     1       1.816  17.222  17.810  0.00  0.00    +0.000 OA
ENDBRANCH   3  13
BRANCH   8  14
ATOM     14  O   UNL     1      -0.491  18.271  19.282  0.00  0.00    +0.000 OA
ATOM     15  C   UNL     1      -1.570  18.378  18.366  0.00  0.00    +0.000 C 
ENDBRANCH   8  14
ENDBRANCH   1   5
BRANCH   2  16
ATOM     16  N   UNL     1       0.999  10.596  19.666  0.00  0.00    +0.000 N 
ATOM     17  C   UNL     1       1.627   9.840  18.685  0.00  0.00    +0.000 C 
ATOM     18  O   UNL     1       2.011  10.272  17.603  0.00  0.00    +0.000 OA
ATOM     19  H   UNL     1       0.741  10.139  20.531  0.00  0.00    +0.000 HD
BRANCH  17  20
ATOM     20  C   UNL     1       1.868   8.398  19.004  0.00  0.00    +0.000 A 
ATOM     21  C   UNL     1       2.351   7.570  17.980  0.00  0.00    +0.000 A 
ATOM     22  C   UNL     1       2.588   6.214  18.217  0.00  0.00    +0.000 A 
ATOM     23  C   UNL     1       2.350   5.677  19.482  0.00  0.00    +0.000 A 
ATOM     24  C   UNL     1       1.892   6.497  20.512  0.00  0.00    +0.000 A 
ATOM     25  C   UNL     1       1.657   7.855  20.279  0.00  0.00    +0.000 A 
ENDBRANCH  17  20
ENDBRANCH   2  16
BRANCH   2  26
ATOM     26  C   UNL     1      -0.680  12.173  18.761  0.00  0.00    +0.000 C 
ATOM     27  O   UNL     1      -0.624  12.773  17.691  0.00  0.00    +0.000 OA
ATOM     28  N   UNL     1      -1.830  11.686  19.360  0.00  0.00    +0.000 N 
ATOM     29  H   UNL     1      -1.754  11.384  20.326  0.00  0.00    +0.000 HD
BRANCH  28  30
ATOM     30  C   UNL     1      -3.132  11.729  18.809  0.00  0.00    +0.000 A 
ATOM     31  C   UNL     1      -3.456  11.144  17.579  0.00  0.00    +0.000 A 
ATOM     32  C   UNL     1      -4.750  11.220  17.062  0.00  0.00    +0.000 A 
ATOM     33  C   UNL     1      -5.734  11.873  17.785  0.00  0.00    +0.000 A 
ATOM     34  C   UNL     1      -5.443  12.452  19.015  0.00  0.00    +0.000 A 
ATOM     35  C   UNL     1      -4.143  12.378  19.530  0.00  0.00    +0.000 A 
BRANCH  33  36
ATOM     36  O   UNL     1      -7.011  11.959  17.317  0.00  0.00    +0.000 OA
ATOM     37  H   UNL     1      -7.080  12.752  16.758  0.00  0.00    +0.000 HD
ENDBRANCH  33  36
ENDBRANCH  28  30
ENDBRANCH   2  26
TORSDOF 9
ENDMDL
MODEL 7
REMARK VINA RESULT:      -6.6      2.234      4.982
REMARK  Name = 
REMARK  11 active torsions:
REMARK  status: ('A' for Active; 'I' for Inactive)
REMARK    1  A    between atoms: C_1  and  O_2
REMARK    2  A    between atoms: O_2  and  C_3
REMARK    3  A    between atoms: C_5  and  C_6
REMARK    4  A    between atoms: C_7  and  N_8
REMARK    5  A    between atoms: C_7  and  C_17
REMARK    6  A    between atoms: C_9  and  C_11
REMARK    7  A    between atoms: N_19  and  C_20
REMARK    8  A    between atoms: C_23  and  O_24
REMARK    9  A    between atoms: C_27  and  N_28
REMARK   10  A    between atoms: C_32  and  O_33
REMARK   11  A    between atoms: O_33  and  C_34
REMARK                            x       y       z     vdW  Elec       q    Type
REMARK                         _______ _______ _______ _____ _____    ______ ____
ROOT
ATOM      1  C   UNL     1       1.062  12.034  20.730  0.00  0.00    +0.000 C 
ATOM      2  C   UNL     1       0.613  11.351  19.661  0.00  0.00    +0.000 C 
ENDROOT
BRANCH   1   5
ATOM      3  C   UNL     1       0.663  15.709  21.394  0.00  0.00    +0.000 A 
ATOM      4  C   UNL     1       1.218  14.449  21.096  0.00  0.00    +0.000 A 
ATOM      5  C   UNL     1       0.533  13.255  21.369  0.00  0.00    +0.000 A 
ATOM      6  C   UNL     1      -0.653  13.349  22.109  0.00  0.00    +0.000 A 
ATOM      7  C   UNL     1      -1.219  14.592  22.418  0.00  0.00    +0.000 A 
ATOM      8  C   UNL     1      -0.586  15.778  22.033  0.00  0.00    +0.000 A 
BRANCH   6   9
ATOM      9  N   UNL     1      -1.334  12.167  22.613  0.00  0.00    +0.000 N 
ATOM     10  O   UNL     1      -2.520  12.005  22.301  0.00  0.00    +0.000 OA
ATOM     11  O   UNL     1      -0.689  11.426  23.375  0.00  0.00    +0.000 OA
ENDBRANCH   6   9
BRANCH   3  13
ATOM     12  C   UNL     1       1.106  17.414  19.787  0.00  0.00    +0.000 C 
ATOM     13  O   UNL     1       1.314  16.876  21.090  0.00  0.00    +0.000 OA
ENDBRANCH   3  13
BRANCH   8  14
ATOM     14  O   UNL     1      -1.332  16.882  22.352  0.00  0.00    +0.000 OA
ATOM     15  C   UNL     1      -2.615  17.049  21.770  0.00  0.00    +0.000 C 
ENDBRANCH   8  14
ENDBRANCH   1   5
BRANCH   2  16
ATOM     16  N   UNL     1       1.223  10.200  19.169  0.00  0.00    +0.000 N 
ATOM     17  C   UNL     1       1.347   8.975  19.813  0.00  0.00    +0.000 C 
ATOM     18  O   UNL     1       0.824   8.689  20.884  0.00  0.00    +0.000 OA
ATOM     19  H   UNL     1       1.684  10.320  18.277  0.00  0.00    +0.000 HD
BRANCH  17  20
ATOM     20  C   UNL     1       2.161   7.932  19.115  0.00  0.00    +0.000 A 
ATOM     21  C   UNL     1       2.292   6.678  19.730  0.00  0.00    +0.000 A 
ATOM     22  C   UNL     1       3.047   5.669  19.129  0.00  0.00    +0.000 A 
ATOM     23  C   UNL     1       3.671   5.902  17.905  0.00  0.00    +0.000 A 
ATOM     24  C   UNL     1       3.528   7.136  17.274  0.00  0.00    +0.000 A 
ATOM     25  C   UNL     1       2.771   8.149  17.872  0.00  0.00    +0.000 A 
ENDBRANCH  17  20
ENDBRANCH   2  16
BRANCH   2  26
ATOM     26  C   UNL     1      -0.570  11.882  18.887  0.00  0.00    +0.000 C 
ATOM     27  O   UNL     1      -0.440  12.834  18.123  0.00  0.00    +0.000 OA
ATOM     28  N   UNL     1      -1.750  11.206  19.150  0.00  0.00    +0.000 N 
ATOM     29  H   UNL     1      -1.751  10.569  19.941  0.00  0.00    +0.000 HD
BRANCH  28  30
ATOM     30  C   UNL     1      -2.997  11.446  18.528  0.00  0.00    +0.000 A 
ATOM     31  C   UNL     1      -3.282  11.045  17.217  0.00  0.00    +0.000 A 
ATOM     32  C   UNL     1      -4.522  11.313  16.633  0.00  0.00    +0.000 A 
ATOM     33  C   UNL     1      -5.491  11.976  17.367  0.00  0.00    +0.000 A 
ATOM     34  C   UNL     1      -5.239  12.374  18.676  0.00  0.00    +0.000 A 
ATOM     35  C   UNL     1      -3.993  12.108  19.258  0.00  0.00    +0.000 A 
BRANCH  33  36
ATOM     36  O   UNL     1      -6.715  12.247  16.834  0.00  0.00    +0.000 OA
ATOM     37  H   UNL     1      -6.593  12.515  15.908  0.00  0.00    +0.000 HD
ENDBRANCH  33  36
ENDBRANCH  28  30
ENDBRANCH   2  26
TORSDOF 9
ENDMDL
MODEL 8
REMARK VINA RESULT:      -6.6      2.769      4.634
REMARK  Name = 
REMARK  11 active torsions:
REMARK  status: ('A' for Active; 'I' for Inactive)
REMARK    1  A    between atoms: C_1  and  O_2
REMARK    2  A    between atoms: O_2  and  C_3
REMARK    3  A    between atoms: C_5  and  C_6
REMARK    4  A    between atoms: C_7  and  N_8
REMARK    5  A    between atoms: C_7  and  C_17
REMARK    6  A    between atoms: C_9  and  C_11
REMARK    7  A    between atoms: N_19  and  C_20
REMARK    8  A    between atoms: C_23  and  O_24
REMARK    9  A    between atoms: C_27  and  N_28
REMARK   10  A    between atoms: C_32  and  O_33
REMARK   11  A    between atoms: O_33  and  C_34
REMARK                            x       y       z     vdW  Elec       q    Type
REMARK                         _______ _______ _______ _____ _____    ______ ____
ROOT
ATOM      1  C   UNL     1       0.603  10.588  21.277  0.00  0.00    +0.000 C 
ATOM      2  C   UNL     1       0.627  10.005  20.065  0.00  0.00    +0.000 C 
ENDROOT
BRANCH   1   5
ATOM      3  C   UNL     1      -2.139  12.374  23.122  0.00  0.00    +0.000 A 
ATOM      4  C   UNL     1      -1.424  11.426  22.363  0.00  0.00    +0.000 A 
ATOM      5  C   UNL     1      -0.192  11.732  21.765  0.00  0.00    +0.000 A 
ATOM      6  C   UNL     1       0.226  13.069  21.803  0.00  0.00    +0.000 A 
ATOM      7  C   UNL     1      -0.472  14.027  22.549  0.00  0.00    +0.000 A 
ATOM      8  C   UNL     1      -1.636  13.680  23.243  0.00  0.00    +0.000 A 
BRANCH   6   9
ATOM      9  N   UNL     1       1.382  13.529  21.050  0.00  0.00    +0.000 N 
ATOM     10  O   UNL     1       2.505  13.273  21.501  0.00  0.00    +0.000 OA
ATOM     11  O   UNL     1       1.158  14.201  20.028  0.00  0.00    +0.000 OA
ENDBRANCH   6   9
BRANCH   3  13
ATOM     12  C   UNL     1      -4.506  12.644  23.203  0.00  0.00    +0.000 C 
ATOM     13  O   UNL     1      -3.321  12.063  23.740  0.00  0.00    +0.000 OA
ENDBRANCH   3  13
BRANCH   8  14
ATOM     14  O   UNL     1      -2.125  14.728  23.976  0.00  0.00    +0.000 OA
ATOM     15  C   UNL     1      -1.242  15.477  24.796  0.00  0.00    +0.000 C 
ENDBRANCH   8  14
ENDBRANCH   1   5
BRANCH   2  16
ATOM     16  N   UNL     1       1.439   8.917  19.748  0.00  0.00    +0.000 N 
ATOM     17  C   UNL     1       2.036   8.646  18.524  0.00  0.00    +0.000 C 
ATOM     18  O   UNL     1       2.032   9.400  17.557  0.00  0.00    +0.000 OA
ATOM     19  H   UNL     1       1.521   8.229  20.484  0.00  0.00    +0.000 HD
BRANCH  17  20
ATOM     20  C   UNL     1       2.758   7.341  18.408  0.00  0.00    +0.000 A 
ATOM     21  C   UNL     1       3.773   7.233  17.445  0.00  0.00    +0.000 A 
ATOM     22  C   UNL     1       4.475   6.036  17.285  0.00  0.00    +0.000 A 
ATOM     23  C   UNL     1       4.175   4.940  18.092  0.00  0.00    +0.000 A 
ATOM     24  C   UNL     1       3.185   5.044  19.068  0.00  0.00    +0.000 A 
ATOM     25  C   UNL     1       2.481   6.241  19.232  0.00  0.00    +0.000 A 
ENDBRANCH  17  20
ENDBRANCH   2  16
BRANCH   2  26
ATOM     26  C   UNL     1      -0.204  10.586  18.946  0.00  0.00    +0.000 C 
ATOM     27  O   UNL     1       0.095  11.665  18.442  0.00  0.00    +0.000 OA
ATOM     28  N   UNL     1      -1.289   9.799  18.598  0.00  0.00    +0.000 N 
ATOM     29  H   UNL     1      -1.523   9.033  19.222  0.00  0.00    +0.000 HD
BRANCH  28  30
ATOM     30  C   UNL     1      -2.201  10.064  17.550  0.00  0.00    +0.000 A 
ATOM     31  C   UNL     1      -3.400  10.759  17.744  0.00  0.00    +0.000 A 
ATOM     32  C   UNL     1      -4.282  10.989  16.686  0.00  0.00    +0.000 A 
ATOM     33  C   UNL     1      -3.957  10.532  15.419  0.00  0.00    +0.000 A 
ATOM     34  C   UNL     1      -2.767   9.850  15.195  0.00  0.00    +0.000 A 
ATOM     35  C   UNL     1      -1.887   9.617  16.260  0.00  0.00    +0.000 A 
BRANCH  33  36
ATOM     36  O   UNL     1      -4.788  10.746  14.360  0.00  0.00    +0.000 OA
ATOM     37  H   UNL     1      -4.826   9.930  13.832  0.00  0.00    +0.000 HD
ENDBRANCH  33  36
ENDBRANCH  28  30
ENDBRANCH   2  26
TORSDOF 9
ENDMDL
MODEL 9
REMARK VINA RESULT:      -6.5      2.320      4.856
REMARK  Name = 
REMARK  11 active torsions:
REMARK  status: ('A' for Active; 'I' for Inactive)
REMARK    1  A    between atoms: C_1  and  O_2
REMARK    2  A    between atoms: O_2  and  C_3
REMARK    3  A    between atoms: C_5  and  C_6
REMARK    4  A    between atoms: C_7  and  N_8
REMARK    5  A    between atoms: C_7  and  C_17
REMARK    6  A    between atoms: C_9  and  C_11
REMARK    7  A    between atoms: N_19  and  C_20
REMARK    8  A    between atoms: C_23  and  O_24
REMARK    9  A    between atoms: C_27  and  N_28
REMARK   10  A    between atoms: C_32  and  O_33
REMARK   11  A    between atoms: O_33  and  C_34
REMARK                            x       y       z     vdW  Elec       q    Type
REMARK                         _______ _______ _______ _____ _____    ______ ____
ROOT
ATOM      1  C   UNL     1       0.817  12.094  20.935  0.00  0.00    +0.000 C 
ATOM      2  C   UNL     1       0.423  11.450  19.822  0.00  0.00    +0.000 C 
ENDROOT
BRANCH   1   5
ATOM      3  C   UNL     1       0.121  15.722  21.619  0.00  0.00    +0.000 A 
ATOM      4  C   UNL     1       0.768  14.518  21.278  0.00  0.00    +0.000 A 
ATOM      5  C   UNL     1       0.229  13.266  21.614  0.00  0.00    +0.000 A 
ATOM      6  C   UNL     1      -0.892  13.254  22.454  0.00  0.00    +0.000 A 
ATOM      7  C   UNL     1      -1.547  14.440  22.807  0.00  0.00    +0.000 A 
ATOM      8  C   UNL     1      -1.069  15.677  22.364  0.00  0.00    +0.000 A 
BRANCH   6   9
ATOM      9  N   UNL     1      -1.408  12.018  23.020  0.00  0.00    +0.000 N 
ATOM     10  O   UNL     1      -0.594  11.139  23.331  0.00  0.00    +0.000 OA
ATOM     11  O   UNL     1      -2.644  11.906  23.099  0.00  0.00    +0.000 OA
ENDBRANCH   6   9
BRANCH   3  13
ATOM     12  C   UNL     1       0.127  17.518  20.052  0.00  0.00    +0.000 C 
ATOM     13  O   UNL     1       0.626  16.942  21.255  0.00  0.00    +0.000 OA
ENDBRANCH   3  13
BRANCH   8  14
ATOM     14  O   UNL     1      -1.888  16.707  22.743  0.00  0.00    +0.000 OA
ATOM     15  C   UNL     1      -3.192  16.801  22.192  0.00  0.00    +0.000 C 
ENDBRANCH   8  14
ENDBRANCH   1   5
BRANCH   2  16
ATOM     16  N   UNL     1       1.085  10.343  19.295  0.00  0.00    +0.000 N 
ATOM     17  C   UNL     1       1.181   9.077  19.858  0.00  0.00    +0.000 C 
ATOM     18  O   UNL     1       0.585   8.708  20.864  0.00  0.00    +0.000 OA
ATOM     19  H   UNL     1       1.608  10.532  18.451  0.00  0.00    +0.000 HD
BRANCH  17  20
ATOM     20  C   UNL     1       2.060   8.095  19.150  0.00  0.00    +0.000 A 
ATOM     21  C   UNL     1       2.283   6.851  19.759  0.00  0.00    +0.000 A 
ATOM     22  C   UNL     1       3.101   5.899  19.149  0.00  0.00    +0.000 A 
ATOM     23  C   UNL     1       3.698   6.179  17.921  0.00  0.00    +0.000 A 
ATOM     24  C   UNL     1       3.465   7.403  17.296  0.00  0.00    +0.000 A 
ATOM     25  C   UNL     1       2.644   8.358  17.903  0.00  0.00    +0.000 A 
ENDBRANCH  17  20
ENDBRANCH   2  16
BRANCH   2  26
ATOM     26  C   UNL     1      -0.755  11.979  19.037  0.00  0.00    +0.000 C 
ATOM     27  O   UNL     1      -0.600  12.861  18.198  0.00  0.00    +0.000 OA
ATOM     28  N   UNL     1      -1.958  11.385  19.381  0.00  0.00    +0.000 N 
ATOM     29  H   UNL     1      -1.968  10.812  20.219  0.00  0.00    +0.000 HD
BRANCH  28  30
ATOM     30  C   UNL     1      -3.209  11.640  18.772  0.00  0.00    +0.000 A 
ATOM     31  C   UNL     1      -4.245  12.321  19.421  0.00  0.00    +0.000 A 
ATOM     32  C   UNL     1      -5.472  12.541  18.792  0.00  0.00    +0.000 A 
ATOM     33  C   UNL     1      -5.662  12.088  17.497  0.00  0.00    +0.000 A 
ATOM     34  C   UNL     1      -4.646  11.420  16.823  0.00  0.00    +0.000 A 
ATOM     35  C   UNL     1      -3.418  11.197  17.459  0.00  0.00    +0.000 A 
BRANCH  33  36
ATOM     36  O   UNL     1      -6.841  12.292  16.846  0.00  0.00    +0.000 OA
ATOM     37  H   UNL     1      -7.377  11.484  16.922  0.00  0.00    +0.000 HD
ENDBRANCH  33  36
ENDBRANCH  28  30
ENDBRANCH   2  26
TORSDOF 9
ENDMDL
