MODEL 1
REMARK VINA RESULT:      -9.0      0.000      0.000
REMARK  Name = 
REMARK  8 active torsions:
REMARK  status: ('A' for Active; 'I' for Inactive)
REMARK    1  A    between atoms: C_1  and  O_2
REMARK    2  A    between atoms: O_2  and  C_3
REMARK    3  A    between atoms: C_5  and  N_6
REMARK    4  A    between atoms: C_14  and  C_15
REMARK    5  A    between atoms: C_18  and  N_19
REMARK    6  A    between atoms: N_19  and  C_20
REMARK    7  A    between atoms: C_25  and  C_26
REMARK    8  A    between atoms: C_28  and  C_29
REMARK                            x       y       z     vdW  Elec       q    Type
REMARK                         _______ _______ _______ _____ _____    ______ ____
ROOT
ATOM      1  C   UNL     1       1.408   8.112  20.074  0.00  0.00    +0.000 A 
ATOM      2  C   UNL     1       0.518   9.064  19.604  0.00  0.00    +0.000 A 
ATOM      3  C   UNL     1       0.059   9.862  20.698  0.00  0.00    +0.000 A 
ATOM      4  C   UNL     1      -0.770  11.006  20.856  0.00  0.00    +0.000 A 
ATOM      5  C   UNL     1      -1.043  11.368  22.195  0.00  0.00    +0.000 A 
ATOM      6  C   UNL     1      -0.391  10.698  23.235  0.00  0.00    +0.000 A 
ATOM      7  N   UNL     1       0.463   9.664  23.106  0.00  0.00    +0.000 NA
ATOM      8  C   UNL     1       0.618   9.285  21.830  0.00  0.00    +0.000 A 
ATOM      9  N   UNL     1       1.398   8.234  21.445  0.00  0.00    +0.000 N 
ATOM     10  H   UNL     1       1.915   7.649  22.080  0.00  0.00    +0.000 HD
ENDROOT
BRANCH   1  16
ATOM     11  C   UNL     1       2.525   5.858  19.784  0.00  0.00    +0.000 A 
ATOM     12  C   UNL     1       3.436   5.052  19.081  0.00  0.00    +0.000 A 
ATOM     13  C   UNL     1       4.205   5.532  18.017  0.00  0.00    +0.000 A 
ATOM     14  C   UNL     1       3.945   6.844  17.604  0.00  0.00    +0.000 A 
ATOM     15  C   UNL     1       2.999   7.648  18.248  0.00  0.00    +0.000 A 
ATOM     16  C   UNL     1       2.288   7.177  19.360  0.00  0.00    +0.000 A 
BRANCH  13  17
ATOM     17  N   UNL     1       5.168   4.760  17.391  0.00  0.00    +0.000 N 
ATOM     18  C   UNL     1       6.537   4.597  17.915  0.00  0.00    +0.000 C 
ATOM     19  C   UNL     1       7.558   5.312  17.019  0.00  0.00    +0.000 C 
ATOM     20  O   UNL     1       7.459   4.860  15.659  0.00  0.00    +0.000 OA
ATOM     21  C   UNL     1       6.150   5.143  15.141  0.00  0.00    +0.000 C 
ATOM     22  C   UNL     1       5.041   4.450  15.953  0.00  0.00    +0.000 C 
ENDBRANCH  13  17
BRANCH  11  24
ATOM     23  C   UNL     1       1.143   4.160  20.677  0.00  0.00    +0.000 C 
ATOM     24  O   UNL     1       1.838   5.390  20.882  0.00  0.00    +0.000 OA
ENDBRANCH  11  24
ENDBRANCH   1  16
BRANCH   5  25
ATOM     25  C   UNL     1      -2.009  12.432  22.614  0.00  0.00    +0.000 C 
ATOM     26  F   UNL     1      -2.065  13.512  21.787  0.00  0.00    +0.000 F 
ATOM     27  F   UNL     1      -3.289  11.954  22.664  0.00  0.00    +0.000 F 
ATOM     28  F   UNL     1      -1.757  12.918  23.861  0.00  0.00    +0.000 F 
ENDBRANCH   5  25
BRANCH   4  29
ATOM     29  N   UNL     1      -1.254  11.791  19.774  0.00  0.00    +0.000 N 
ATOM     30  H   UNL     1      -1.353  12.781  19.996  0.00  0.00    +0.000 HD
BRANCH  29  31
ATOM     31  C   UNL     1      -2.009  11.343  18.654  0.00  0.00    +0.000 A 
ATOM     32  C   UNL     1      -1.379  10.575  17.654  0.00  0.00    +0.000 A 
ATOM     33  C   UNL     1      -2.111   9.935  16.651  0.00  0.00    +0.000 A 
ATOM     34  C   UNL     1      -3.490  10.085  16.597  0.00  0.00    +0.000 A 
ATOM     35  C   UNL     1      -4.127  10.915  17.525  0.00  0.00    +0.000 A 
ATOM     36  C   UNL     1      -3.396  11.548  18.540  0.00  0.00    +0.000 A 
BRANCH  36  37
ATOM     37  C   UNL     1      -4.107  12.391  19.457  0.00  0.00    +0.000 C 
ATOM     38  N   UNL     1      -4.670  13.076  20.212  0.00  0.00    +0.000 NA
ENDBRANCH  36  37
ENDBRANCH  29  31
ENDBRANCH   4  29
TORSDOF 7
ENDMDL
MODEL 2
REMARK VINA RESULT:      -9.0      2.120      2.642
REMARK  Name = 
REMARK  8 active torsions:
REMARK  status: ('A' for Active; 'I' for Inactive)
REMARK    1  A    between atoms: C_1  and  O_2
REMARK    2  A    between atoms: O_2  and  C_3
REMARK    3  A    between atoms: C_5  and  N_6
REMARK    4  A    between atoms: C_14  and  C_15
REMARK    5  A    between atoms: C_18  and  N_19
REMARK    6  A    between atoms: N_19  and  C_20
REMARK    7  A    between atoms: C_25  and  C_26
REMARK    8  A    between atoms: C_28  and  C_29
REMARK                            x       y       z     vdW  Elec       q    Type
REMARK                         _______ _______ _______ _____ _____    ______ ____
ROOT
ATOM      1  C   UNL     1       1.517   8.142  19.950  0.00  0.00    +0.000 A 
ATOM      2  C   UNL     1       0.923   9.316  19.517  0.00  0.00    +0.000 A 
ATOM      3  C   UNL     1       0.350   9.997  20.635  0.00  0.00    +0.000 A 
ATOM      4  C   UNL     1      -0.303  11.241  20.855  0.00  0.00    +0.000 A 
ATOM      5  C   UNL     1      -0.823  11.423  22.157  0.00  0.00    +0.000 A 
ATOM      6  C   UNL     1      -0.548  10.474  23.146  0.00  0.00    +0.000 A 
ATOM      7  N   UNL     1       0.140   9.327  22.983  0.00  0.00    +0.000 NA
ATOM      8  C   UNL     1       0.530   9.141  21.714  0.00  0.00    +0.000 A 
ATOM      9  N   UNL     1       1.203   8.034  21.286  0.00  0.00    +0.000 N 
ATOM     10  H   UNL     1       1.458   7.261  21.878  0.00  0.00    +0.000 HD
ENDROOT
BRANCH   1  16
ATOM     11  C   UNL     1       2.567   5.855  19.675  0.00  0.00    +0.000 A 
ATOM     12  C   UNL     1       3.467   5.022  18.988  0.00  0.00    +0.000 A 
ATOM     13  C   UNL     1       4.275   5.482  17.943  0.00  0.00    +0.000 A 
ATOM     14  C   UNL     1       4.066   6.802  17.531  0.00  0.00    +0.000 A 
ATOM     15  C   UNL     1       3.131   7.634  18.157  0.00  0.00    +0.000 A 
ATOM     16  C   UNL     1       2.382   7.182  19.252  0.00  0.00    +0.000 A 
BRANCH  13  17
ATOM     17  N   UNL     1       5.226   4.682  17.335  0.00  0.00    +0.000 N 
ATOM     18  C   UNL     1       6.619   4.585  17.808  0.00  0.00    +0.000 C 
ATOM     19  C   UNL     1       7.585   5.247  16.815  0.00  0.00    +0.000 C 
ATOM     20  O   UNL     1       7.437   4.689  15.500  0.00  0.00    +0.000 OA
ATOM     21  C   UNL     1       6.101   4.908  15.021  0.00  0.00    +0.000 C 
ATOM     22  C   UNL     1       5.043   4.259  15.932  0.00  0.00    +0.000 C 
ENDBRANCH  13  17
BRANCH  11  24
ATOM     23  C   UNL     1       1.105   4.204  20.527  0.00  0.00    +0.000 C 
ATOM     24  O   UNL     1       1.842   5.405  20.755  0.00  0.00    +0.000 OA
ENDBRANCH  11  24
ENDBRANCH   1  16
BRANCH   5  25
ATOM     25  C   UNL     1      -1.681  12.573  22.582  0.00  0.00    +0.000 C 
ATOM     26  F   UNL     1      -2.637  12.936  21.683  0.00  0.00    +0.000 F 
ATOM     27  F   UNL     1      -2.361  12.292  23.733  0.00  0.00    +0.000 F 
ATOM     28  F   UNL     1      -0.964  13.699  22.852  0.00  0.00    +0.000 F 
ENDBRANCH   5  25
BRANCH   4  29
ATOM     29  N   UNL     1      -0.388  12.274  19.882  0.00  0.00    +0.000 N 
ATOM     30  H   UNL     1      -1.124  12.127  19.191  0.00  0.00    +0.000 HD
BRANCH  29  31
ATOM     31  C   UNL     1       0.639  13.178  19.491  0.00  0.00    +0.000 A 
ATOM     32  C   UNL     1       1.878  12.672  19.052  0.00  0.00    +0.000 A 
ATOM     33  C   UNL     1       2.839  13.497  18.460  0.00  0.00    +0.000 A 
ATOM     34  C   UNL     1       2.600  14.858  18.337  0.00  0.00    +0.000 A 
ATOM     35  C   UNL     1       1.415  15.397  18.848  0.00  0.00    +0.000 A 
ATOM     36  C   UNL     1       0.445  14.570  19.429  0.00  0.00    +0.000 A 
BRANCH  36  37
ATOM     37  C   UNL     1      -0.746  15.184  19.941  0.00  0.00    +0.000 C 
ATOM     38  N   UNL     1      -1.704  15.687  20.371  0.00  0.00    +0.000 NA
ENDBRANCH  36  37
ENDBRANCH  29  31
ENDBRANCH   4  29
TORSDOF 7
ENDMDL
MODEL 3
REMARK VINA RESULT:      -8.8      2.258      3.118
REMARK  Name = 
REMARK  8 active torsions:
REMARK  status: ('A' for Active; 'I' for Inactive)
REMARK    1  A    between atoms: C_1  and  O_2
REMARK    2  A    between atoms: O_2  and  C_3
REMARK    3  A    between atoms: C_5  and  N_6
REMARK    4  A    between atoms: C_14  and  C_15
REMARK    5  A    between atoms: C_18  and  N_19
REMARK    6  A    between atoms: N_19  and  C_20
REMARK    7  A    between atoms: C_25  and  C_26
REMARK    8  A    between atoms: C_28  and  C_29
REMARK                            x       y       z     vdW  Elec       q    Type
REMARK                         _______ _______ _______ _____ _____    ______ ____
ROOT
ATOM      1  C   UNL     1       1.405   8.271  19.996  0.00  0.00    +0.000 A 
ATOM      2  C   UNL     1       1.013   9.555  19.653  0.00  0.00    +0.000 A 
ATOM      3  C   UNL     1       0.358  10.163  20.768  0.00  0.00    +0.000 A 
ATOM      4  C   UNL     1      -0.182  11.444  21.068  0.00  0.00    +0.000 A 
ATOM      5  C   UNL     1      -0.866  11.532  22.302  0.00  0.00    +0.000 A 
ATOM      6  C   UNL     1      -0.847  10.443  23.179  0.00  0.00    +0.000 A 
ATOM      7  N   UNL     1      -0.271   9.246  22.952  0.00  0.00    +0.000 NA
ATOM      8  C   UNL     1       0.281   9.167  21.733  0.00  0.00    +0.000 A 
ATOM      9  N   UNL     1       0.887   8.044  21.250  0.00  0.00    +0.000 N 
ATOM     10  H   UNL     1       0.965   7.179  21.759  0.00  0.00    +0.000 HD
ENDROOT
BRANCH   1  16
ATOM     11  C   UNL     1       2.482   5.993  19.754  0.00  0.00    +0.000 A 
ATOM     12  C   UNL     1       3.365   5.150  19.057  0.00  0.00    +0.000 A 
ATOM     13  C   UNL     1       4.118   5.585  17.961  0.00  0.00    +0.000 A 
ATOM     14  C   UNL     1       3.868   6.887  17.513  0.00  0.00    +0.000 A 
ATOM     15  C   UNL     1       2.948   7.725  18.151  0.00  0.00    +0.000 A 
ATOM     16  C   UNL     1       2.255   7.300  19.293  0.00  0.00    +0.000 A 
BRANCH  13  17
ATOM     17  N   UNL     1       5.055   4.779  17.340  0.00  0.00    +0.000 N 
ATOM     18  C   UNL     1       6.220   4.208  18.042  0.00  0.00    +0.000 C 
ATOM     19  C   UNL     1       7.524   4.862  17.565  0.00  0.00    +0.000 C 
ATOM     20  O   UNL     1       7.666   4.755  16.139  0.00  0.00    +0.000 OA
ATOM     21  C   UNL     1       6.577   5.426  15.486  0.00  0.00    +0.000 C 
ATOM     22  C   UNL     1       5.211   4.830  15.872  0.00  0.00    +0.000 C 
ENDBRANCH  13  17
BRANCH  11  24
ATOM     23  C   UNL     1       2.005   4.195  21.214  0.00  0.00    +0.000 C 
ATOM     24  O   UNL     1       1.813   5.570  20.881  0.00  0.00    +0.000 OA
ENDBRANCH  11  24
ENDBRANCH   1  16
BRANCH   5  25
ATOM     25  C   UNL     1      -1.648  12.722  22.763  0.00  0.00    +0.000 C 
ATOM     26  F   UNL     1      -1.079  13.421  23.783  0.00  0.00    +0.000 F 
ATOM     27  F   UNL     1      -1.816  13.631  21.756  0.00  0.00    +0.000 F 
ATOM     28  F   UNL     1      -2.907  12.403  23.173  0.00  0.00    +0.000 F 
ENDBRANCH   5  25
BRANCH   4  29
ATOM     29  N   UNL     1      -0.009  12.590  20.244  0.00  0.00    +0.000 N 
ATOM     30  H   UNL     1      -0.833  12.826  19.692  0.00  0.00    +0.000 HD
BRANCH  29  31
ATOM     31  C   UNL     1       1.217  13.131  19.766  0.00  0.00    +0.000 A 
ATOM     32  C   UNL     1       1.794  12.611  18.590  0.00  0.00    +0.000 A 
ATOM     33  C   UNL     1       2.873  13.239  17.963  0.00  0.00    +0.000 A 
ATOM     34  C   UNL     1       3.432  14.378  18.525  0.00  0.00    +0.000 A 
ATOM     35  C   UNL     1       2.934  14.860  19.740  0.00  0.00    +0.000 A 
ATOM     36  C   UNL     1       1.843  14.240  20.363  0.00  0.00    +0.000 A 
BRANCH  36  37
ATOM     37  C   UNL     1       1.384  14.778  21.610  0.00  0.00    +0.000 C 
ATOM     38  N   UNL     1       1.010  15.200  22.630  0.00  0.00    +0.000 NA
ENDBRANCH  36  37
ENDBRANCH  29  31
ENDBRANCH   4  29
TORSDOF 7
ENDMDL
MODEL 4
REMARK VINA RESULT:      -8.7      2.249      3.599
REMARK  Name = 
REMARK  8 active torsions:
REMARK  status: ('A' for Active; 'I' for Inactive)
REMARK    1  A    between atoms: C_1  and  O_2
REMARK    2  A    between atoms: O_2  and  C_3
REMARK    3  A    between atoms: C_5  and  N_6
REMARK    4  A    between atoms: C_14  and  C_15
REMARK    5  A    between atoms: C_18  and  N_19
REMARK    6  A    between atoms: N_19  and  C_20
REMARK    7  A    between atoms: C_25  and  C_26
REMARK    8  A    between atoms: C_28  and  C_29
REMARK                            x       y       z     vdW  Elec       q    Type
REMARK                         _______ _______ _______ _____ _____    ______ ____
ROOT
ATOM      1  C   UNL     1       1.395   8.302  20.004  0.00  0.00    +0.000 A 
ATOM      2  C   UNL     1       1.061   9.616  19.721  0.00  0.00    +0.000 A 
ATOM      3  C   UNL     1       0.380  10.183  20.843  0.00  0.00    +0.000 A 
ATOM      4  C   UNL     1      -0.129  11.464  21.194  0.00  0.00    +0.000 A 
ATOM      5  C   UNL     1      -0.861  11.507  22.403  0.00  0.00    +0.000 A 
ATOM      6  C   UNL     1      -0.914  10.370  23.215  0.00  0.00    +0.000 A 
ATOM      7  N   UNL     1      -0.370   9.168  22.943  0.00  0.00    +0.000 NA
ATOM      8  C   UNL     1       0.230   9.138  21.744  0.00  0.00    +0.000 A 
ATOM      9  N   UNL     1       0.817   8.023  21.222  0.00  0.00    +0.000 N 
ATOM     10  H   UNL     1       0.845   7.128  21.683  0.00  0.00    +0.000 HD
ENDROOT
BRANCH   1  16
ATOM     11  C   UNL     1       2.431   6.012  19.694  0.00  0.00    +0.000 A 
ATOM     12  C   UNL     1       3.312   5.180  18.983  0.00  0.00    +0.000 A 
ATOM     13  C   UNL     1       4.097   5.643  17.922  0.00  0.00    +0.000 A 
ATOM     14  C   UNL     1       3.883   6.966  17.521  0.00  0.00    +0.000 A 
ATOM     15  C   UNL     1       2.966   7.797  18.173  0.00  0.00    +0.000 A 
ATOM     16  C   UNL     1       2.240   7.342  19.282  0.00  0.00    +0.000 A 
BRANCH  13  17
ATOM     17  N   UNL     1       5.032   4.842  17.288  0.00  0.00    +0.000 N 
ATOM     18  C   UNL     1       6.122   4.156  18.004  0.00  0.00    +0.000 C 
ATOM     19  C   UNL     1       7.483   4.778  17.660  0.00  0.00    +0.000 C 
ATOM     20  O   UNL     1       7.707   4.781  16.241  0.00  0.00    +0.000 OA
ATOM     21  C   UNL     1       6.693   5.560  15.586  0.00  0.00    +0.000 C 
ATOM     22  C   UNL     1       5.280   5.007  15.842  0.00  0.00    +0.000 C 
ENDBRANCH  13  17
BRANCH  11  24
ATOM     23  C   UNL     1       1.334   4.189  20.725  0.00  0.00    +0.000 C 
ATOM     24  O   UNL     1       1.729   5.559  20.788  0.00  0.00    +0.000 OA
ENDBRANCH  11  24
ENDBRANCH   1  16
BRANCH   5  25
ATOM     25  C   UNL     1      -1.621  12.696  22.899  0.00  0.00    +0.000 C 
ATOM     26  F   UNL     1      -0.889  13.578  23.634  0.00  0.00    +0.000 F 
ATOM     27  F   UNL     1      -2.134  13.429  21.867  0.00  0.00    +0.000 F 
ATOM     28  F   UNL     1      -2.694  12.357  23.668  0.00  0.00    +0.000 F 
ENDBRANCH   5  25
BRANCH   4  29
ATOM     29  N   UNL     1       0.117  12.647  20.445  0.00  0.00    +0.000 N 
ATOM     30  H   UNL     1      -0.311  12.643  19.519  0.00  0.00    +0.000 HD
BRANCH  29  31
ATOM     31  C   UNL     1       1.189  13.568  20.614  0.00  0.00    +0.000 A 
ATOM     32  C   UNL     1       1.149  14.493  21.676  0.00  0.00    +0.000 A 
ATOM     33  C   UNL     1       2.260  15.269  22.014  0.00  0.00    +0.000 A 
ATOM     34  C   UNL     1       3.425  15.172  21.266  0.00  0.00    +0.000 A 
ATOM     35  C   UNL     1       3.458  14.327  20.152  0.00  0.00    +0.000 A 
ATOM     36  C   UNL     1       2.349  13.538  19.819  0.00  0.00    +0.000 A 
BRANCH  36  37
ATOM     37  C   UNL     1       2.443  12.697  18.661  0.00  0.00    +0.000 C 
ATOM     38  N   UNL     1       2.537  12.016  17.721  0.00  0.00    +0.000 NA
ENDBRANCH  36  37
ENDBRANCH  29  31
ENDBRANCH   4  29
TORSDOF 7
ENDMDL
MODEL 5
REMARK VINA RESULT:      -8.6      2.369      2.944
REMARK  Name = 
REMARK  8 active torsions:
REMARK  status: ('A' for Active; 'I' for Inactive)
REMARK    1  A    between atoms: C_1  and  O_2
REMARK    2  A    between atoms: O_2  and  C_3
REMARK    3  A    between atoms: C_5  and  N_6
REMARK    4  A    between atoms: C_14  and  C_15
REMARK    5  A    between atoms: C_18  and  N_19
REMARK    6  A    between atoms: N_19  and  C_20
REMARK    7  A    between atoms: C_25  and  C_26
REMARK    8  A    between atoms: C_28  and  C_29
REMARK                            x       y       z     vdW  Elec       q    Type
REMARK                         _______ _______ _______ _____ _____    ______ ____
ROOT
ATOM      1  C   UNL     1       2.128   7.731  19.088  0.00  0.00    +0.000 A 
ATOM      2  C   UNL     1       1.444   8.902  18.805  0.00  0.00    +0.000 A 
ATOM      3  C   UNL     1       0.947   9.466  20.021  0.00  0.00    +0.000 A 
ATOM      4  C   UNL     1       0.262  10.653  20.397  0.00  0.00    +0.000 A 
ATOM      5  C   UNL     1      -0.144  10.709  21.750  0.00  0.00    +0.000 A 
ATOM      6  C   UNL     1       0.263   9.703  22.632  0.00  0.00    +0.000 A 
ATOM      7  N   UNL     1       0.984   8.609  22.316  0.00  0.00    +0.000 NA
ATOM      8  C   UNL     1       1.263   8.541  21.007  0.00  0.00    +0.000 A 
ATOM      9  N   UNL     1       1.944   7.506  20.434  0.00  0.00    +0.000 N 
ATOM     10  H   UNL     1       2.286   6.705  20.937  0.00  0.00    +0.000 HD
ENDROOT
BRANCH   1  16
ATOM     11  C   UNL     1       2.891   5.470  18.243  0.00  0.00    +0.000 A 
ATOM     12  C   UNL     1       3.780   4.721  17.452  0.00  0.00    +0.000 A 
ATOM     13  C   UNL     1       4.818   5.308  16.721  0.00  0.00    +0.000 A 
ATOM     14  C   UNL     1       4.868   6.706  16.725  0.00  0.00    +0.000 A 
ATOM     15  C   UNL     1       3.957   7.477  17.455  0.00  0.00    +0.000 A 
ATOM     16  C   UNL     1       2.967   6.873  18.242  0.00  0.00    +0.000 A 
BRANCH  13  17
ATOM     17  N   UNL     1       5.747   4.558  16.022  0.00  0.00    +0.000 N 
ATOM     18  C   UNL     1       7.116   5.027  15.742  0.00  0.00    +0.000 C 
ATOM     19  C   UNL     1       7.301   5.327  14.248  0.00  0.00    +0.000 C 
ATOM     20  O   UNL     1       6.963   4.185  13.445  0.00  0.00    +0.000 OA
ATOM     21  C   UNL     1       5.587   3.829  13.652  0.00  0.00    +0.000 C 
ATOM     22  C   UNL     1       5.292   3.479  15.122  0.00  0.00    +0.000 C 
ENDBRANCH  13  17
BRANCH  11  24
ATOM     23  C   UNL     1       1.362   3.680  18.464  0.00  0.00    +0.000 C 
ATOM     24  O   UNL     1       1.928   4.867  19.020  0.00  0.00    +0.000 OA
ENDBRANCH  11  24
ENDBRANCH   1  16
BRANCH   5  25
ATOM     25  C   UNL     1      -1.010  11.777  22.340  0.00  0.00    +0.000 C 
ATOM     26  F   UNL     1      -0.384  12.966  22.558  0.00  0.00    +0.000 F 
ATOM     27  F   UNL     1      -2.066  12.073  21.523  0.00  0.00    +0.000 F 
ATOM     28  F   UNL     1      -1.566  11.413  23.529  0.00  0.00    +0.000 F 
ENDBRANCH   5  25
BRANCH   4  29
ATOM     29  N   UNL     1       0.040  11.751  19.521  0.00  0.00    +0.000 N 
ATOM     30  H   UNL     1      -0.677  11.577  18.817  0.00  0.00    +0.000 HD
BRANCH  29  31
ATOM     31  C   UNL     1       0.944  12.808  19.218  0.00  0.00    +0.000 A 
ATOM     32  C   UNL     1       2.234  12.502  18.740  0.00  0.00    +0.000 A 
ATOM     33  C   UNL     1       3.079  13.490  18.229  0.00  0.00    +0.000 A 
ATOM     34  C   UNL     1       2.671  14.817  18.227  0.00  0.00    +0.000 A 
ATOM     35  C   UNL     1       1.432  15.155  18.779  0.00  0.00    +0.000 A 
ATOM     36  C   UNL     1       0.577  14.164  19.279  0.00  0.00    +0.000 A 
BRANCH  36  37
ATOM     37  C   UNL     1      -0.678  14.577  19.838  0.00  0.00    +0.000 C 
ATOM     38  N   UNL     1      -1.699  14.896  20.299  0.00  0.00    +0.000 NA
ENDBRANCH  36  37
ENDBRANCH  29  31
ENDBRANCH   4  29
TORSDOF 7
ENDMDL
MODEL 6
REMARK VINA RESULT:      -8.5      4.816      9.738
REMARK  Name = 
REMARK  8 active torsions:
REMARK  status: ('A' for Active; 'I' for Inactive)
REMARK    1  A    between atoms: C_1  and  O_2
REMARK    2  A    between atoms: O_2  and  C_3
REMARK    3  A    between atoms: C_5  and  N_6
REMARK    4  A    between atoms: C_14  and  C_15
REMARK    5  A    between atoms: C_18  and  N_19
REMARK    6  A    between atoms: N_19  and  C_20
REMARK    7  A    between atoms: C_25  and  C_26
REMARK    8  A    between atoms: C_28  and  C_29
REMARK                            x       y       z     vdW  Elec       q    Type
REMARK                         _______ _______ _______ _____ _____    ______ ____
ROOT
ATOM      1  C   UNL     1       1.431   7.326  20.545  0.00  0.00    +0.000 A 
ATOM      2  C   UNL     1       2.524   6.927  19.793  0.00  0.00    +0.000 A 
ATOM      3  C   UNL     1       2.508   5.504  19.655  0.00  0.00    +0.000 A 
ATOM      4  C   UNL     1       3.279   4.532  18.961  0.00  0.00    +0.000 A 
ATOM      5  C   UNL     1       2.944   3.188  19.243  0.00  0.00    +0.000 A 
ATOM      6  C   UNL     1       1.829   2.910  20.040  0.00  0.00    +0.000 A 
ATOM      7  N   UNL     1       1.033   3.815  20.641  0.00  0.00    +0.000 NA
ATOM      8  C   UNL     1       1.441   5.074  20.433  0.00  0.00    +0.000 A 
ATOM      9  N   UNL     1       0.827   6.166  20.973  0.00  0.00    +0.000 N 
ATOM     10  H   UNL     1       0.023   6.123  21.578  0.00  0.00    +0.000 HD
ENDROOT
BRANCH   1  16
ATOM     11  C   UNL     1       0.748   9.664  19.852  0.00  0.00    +0.000 A 
ATOM     12  C   UNL     1       0.285  10.938  20.221  0.00  0.00    +0.000 A 
ATOM     13  C   UNL     1       0.040  11.297  21.550  0.00  0.00    +0.000 A 
ATOM     14  C   UNL     1       0.174  10.281  22.504  0.00  0.00    +0.000 A 
ATOM     15  C   UNL     1       0.575   8.987  22.154  0.00  0.00    +0.000 A 
ATOM     16  C   UNL     1       0.888   8.662  20.827  0.00  0.00    +0.000 A 
BRANCH  13  17
ATOM     17  N   UNL     1      -0.325  12.581  21.916  0.00  0.00    +0.000 N 
ATOM     18  C   UNL     1      -1.266  12.870  23.014  0.00  0.00    +0.000 C 
ATOM     19  C   UNL     1      -2.592  13.420  22.471  0.00  0.00    +0.000 C 
ATOM     20  O   UNL     1      -2.375  14.577  21.648  0.00  0.00    +0.000 OA
ATOM     21  C   UNL     1      -1.553  14.230  20.522  0.00  0.00    +0.000 C 
ATOM     22  C   UNL     1      -0.177  13.689  20.951  0.00  0.00    +0.000 C 
ENDBRANCH  13  17
BRANCH  11  24
ATOM     23  C   UNL     1       2.022  10.221  17.940  0.00  0.00    +0.000 C 
ATOM     24  O   UNL     1       1.063   9.356  18.547  0.00  0.00    +0.000 OA
ENDBRANCH  11  24
ENDBRANCH   1  16
BRANCH   5  25
ATOM     25  C   UNL     1       3.711   1.996  18.760  0.00  0.00    +0.000 C 
ATOM     26  F   UNL     1       3.014   0.827  18.767  0.00  0.00    +0.000 F 
ATOM     27  F   UNL     1       4.126   2.158  17.468  0.00  0.00    +0.000 F 
ATOM     28  F   UNL     1       4.846   1.770  19.477  0.00  0.00    +0.000 F 
ENDBRANCH   5  25
BRANCH   4  29
ATOM     29  N   UNL     1       4.276   4.851  17.998  0.00  0.00    +0.000 N 
ATOM     30  H   UNL     1       4.248   4.260  17.168  0.00  0.00    +0.000 HD
BRANCH  29  31
ATOM     31  C   UNL     1       5.512   5.520  18.226  0.00  0.00    +0.000 A 
ATOM     32  C   UNL     1       6.216   5.289  19.424  0.00  0.00    +0.000 A 
ATOM     33  C   UNL     1       7.523   5.748  19.606  0.00  0.00    +0.000 A 
ATOM     34  C   UNL     1       8.141   6.491  18.610  0.00  0.00    +0.000 A 
ATOM     35  C   UNL     1       7.428   6.809  17.449  0.00  0.00    +0.000 A 
ATOM     36  C   UNL     1       6.123   6.338  17.258  0.00  0.00    +0.000 A 
BRANCH  36  37
ATOM     37  C   UNL     1       5.444   6.704  16.049  0.00  0.00    +0.000 C 
ATOM     38  N   UNL     1       4.906   7.012  15.063  0.00  0.00    +0.000 NA
ENDBRANCH  36  37
ENDBRANCH  29  31
ENDBRANCH   4  29
TORSDOF 7
ENDMDL
MODEL 7
REMARK VINA RESULT:      -8.5      4.699      9.724
REMARK  Name = 
REMARK  8 active torsions:
REMARK  status: ('A' for Active; 'I' for Inactive)
REMARK    1  A    between atoms: C_1  and  O_2
REMARK    2  A    between atoms: O_2  and  C_3
REMARK    3  A    between atoms: C_5  and  N_6
REMARK    4  A    between atoms: C_14  and  C_15
REMARK    5  A    between atoms: C_18  and  N_19
REMARK    6  A    between atoms: N_19  and  C_20
REMARK    7  A    between atoms: C_25  and  C_26
REMARK    8  A    between atoms: C_28  and  C_29
REMARK                            x       y       z     vdW  Elec       q    Type
REMARK                         _______ _______ _______ _____ _____    ______ ____
ROOT
ATOM      1  C   UNL     1       1.815   8.308  19.406  0.00  0.00    +0.000 A 
ATOM      2  C   UNL     1       2.237   7.007  19.633  0.00  0.00    +0.000 A 
ATOM      3  C   UNL     1       3.229   6.656  18.665  0.00  0.00    +0.000 A 
ATOM      4  C   UNL     1       4.074   5.539  18.420  0.00  0.00    +0.000 A 
ATOM      5  C   UNL     1       4.824   5.606  17.224  0.00  0.00    +0.000 A 
ATOM      6  C   UNL     1       4.801   6.778  16.463  0.00  0.00    +0.000 A 
ATOM      7  N   UNL     1       4.072   7.882  16.719  0.00  0.00    +0.000 NA
ATOM      8  C   UNL     1       3.298   7.744  17.804  0.00  0.00    +0.000 A 
ATOM      9  N   UNL     1       2.437   8.705  18.244  0.00  0.00    +0.000 N 
ATOM     10  H   UNL     1       2.300   9.594  17.792  0.00  0.00    +0.000 HD
ENDROOT
BRANCH   1  16
ATOM     11  C   UNL     1       0.163  10.212  19.642  0.00  0.00    +0.000 A 
ATOM     12  C   UNL     1      -0.573  11.066  20.481  0.00  0.00    +0.000 A 
ATOM     13  C   UNL     1      -0.478  11.019  21.876  0.00  0.00    +0.000 A 
ATOM     14  C   UNL     1       0.311   9.995  22.412  0.00  0.00    +0.000 A 
ATOM     15  C   UNL     1       1.005   9.093  21.598  0.00  0.00    +0.000 A 
ATOM     16  C   UNL     1       0.960   9.198  20.201  0.00  0.00    +0.000 A 
BRANCH  13  17
ATOM     17  N   UNL     1      -1.132  11.924  22.693  0.00  0.00    +0.000 N 
ATOM     18  C   UNL     1      -2.459  11.666  23.283  0.00  0.00    +0.000 C 
ATOM     19  C   UNL     1      -3.528  12.564  22.645  0.00  0.00    +0.000 C 
ATOM     20  O   UNL     1      -3.169  13.951  22.749  0.00  0.00    +0.000 OA
ATOM     21  C   UNL     1      -1.931  14.190  22.060  0.00  0.00    +0.000 C 
ATOM     22  C   UNL     1      -0.774  13.356  22.638  0.00  0.00    +0.000 C 
ENDBRANCH  13  17
BRANCH  11  24
ATOM     23  C   UNL     1      -1.150  10.047  17.682  0.00  0.00    +0.000 C 
ATOM     24  O   UNL     1       0.120  10.328  18.270  0.00  0.00    +0.000 OA
ENDBRANCH  11  24
ENDBRANCH   1  16
BRANCH   5  25
ATOM     25  C   UNL     1       5.658   4.491  16.675  0.00  0.00    +0.000 C 
ATOM     26  F   UNL     1       5.028   3.286  16.605  0.00  0.00    +0.000 F 
ATOM     27  F   UNL     1       6.069   4.755  15.399  0.00  0.00    +0.000 F 
ATOM     28  F   UNL     1       6.801   4.284  17.386  0.00  0.00    +0.000 F 
ENDBRANCH   5  25
BRANCH   4  29
ATOM     29  N   UNL     1       4.227   4.450  19.321  0.00  0.00    +0.000 N 
ATOM     30  H   UNL     1       5.126   3.975  19.241  0.00  0.00    +0.000 HD
BRANCH  29  31
ATOM     31  C   UNL     1       3.195   3.692  19.942  0.00  0.00    +0.000 A 
ATOM     32  C   UNL     1       3.187   3.548  21.343  0.00  0.00    +0.000 A 
ATOM     33  C   UNL     1       2.092   3.002  22.018  0.00  0.00    +0.000 A 
ATOM     34  C   UNL     1       0.996   2.542  21.301  0.00  0.00    +0.000 A 
ATOM     35  C   UNL     1       1.021   2.592  19.903  0.00  0.00    +0.000 A 
ATOM     36  C   UNL     1       2.112   3.152  19.225  0.00  0.00    +0.000 A 
BRANCH  36  37
ATOM     37  C   UNL     1       2.078   3.167  17.792  0.00  0.00    +0.000 C 
ATOM     38  N   UNL     1       2.048   3.196  16.628  0.00  0.00    +0.000 NA
ENDBRANCH  36  37
ENDBRANCH  29  31
ENDBRANCH   4  29
TORSDOF 7
ENDMDL
MODEL 8
REMARK VINA RESULT:      -8.4      2.113      3.542
REMARK  Name = 
REMARK  8 active torsions:
REMARK  status: ('A' for Active; 'I' for Inactive)
REMARK    1  A    between atoms: C_1  and  O_2
REMARK    2  A    between atoms: O_2  and  C_3
REMARK    3  A    between atoms: C_5  and  N_6
REMARK    4  A    between atoms: C_14  and  C_15
REMARK    5  A    between atoms: C_18  and  N_19
REMARK    6  A    between atoms: N_19  and  C_20
REMARK    7  A    between atoms: C_25  and  C_26
REMARK    8  A    between atoms: C_28  and  C_29
REMARK                            x       y       z     vdW  Elec       q    Type
REMARK                         _______ _______ _______ _____ _____    ______ ____
ROOT
ATOM      1  C   UNL     1       0.172  10.054  20.570  0.00  0.00    +0.000 A 
ATOM      2  C   UNL     1      -0.977  10.634  20.056  0.00  0.00    +0.000 A 
ATOM      3  C   UNL     1      -1.371  11.725  20.891  0.00  0.00    +0.000 A 
ATOM      4  C   UNL     1      -2.378  12.728  20.861  0.00  0.00    +0.000 A 
ATOM      5  C   UNL     1      -2.452  13.538  22.017  0.00  0.00    +0.000 A 
ATOM      6  C   UNL     1      -1.480  13.405  23.013  0.00  0.00    +0.000 A 
ATOM      7  N   UNL     1      -0.466  12.518  23.025  0.00  0.00    +0.000 NA
ATOM      8  C   UNL     1      -0.488  11.701  21.962  0.00  0.00    +0.000 A 
ATOM      9  N   UNL     1       0.407  10.690  21.768  0.00  0.00    +0.000 N 
ATOM     10  H   UNL     1       1.153  10.463  22.406  0.00  0.00    +0.000 HD
ENDROOT
BRANCH   1  16
ATOM     11  C   UNL     1       1.606   9.098  18.716  0.00  0.00    +0.000 A 
ATOM     12  C   UNL     1       2.406   8.046  18.238  0.00  0.00    +0.000 A 
ATOM     13  C   UNL     1       2.625   6.873  18.968  0.00  0.00    +0.000 A 
ATOM     14  C   UNL     1       2.095   6.837  20.262  0.00  0.00    +0.000 A 
ATOM     15  C   UNL     1       1.347   7.898  20.784  0.00  0.00    +0.000 A 
ATOM     16  C   UNL     1       1.073   9.036  20.015  0.00  0.00    +0.000 A 
BRANCH  13  17
ATOM     17  N   UNL     1       3.334   5.802  18.452  0.00  0.00    +0.000 N 
ATOM     18  C   UNL     1       2.928   4.398  18.645  0.00  0.00    +0.000 C 
ATOM     19  C   UNL     1       3.902   3.667  19.580  0.00  0.00    +0.000 C 
ATOM     20  O   UNL     1       5.251   3.761  19.097  0.00  0.00    +0.000 OA
ATOM     21  C   UNL     1       5.656   5.138  19.035  0.00  0.00    +0.000 C 
ATOM     22  C   UNL     1       4.759   5.966  18.098  0.00  0.00    +0.000 C 
ENDBRANCH  13  17
BRANCH  11  24
ATOM     23  C   UNL     1       2.299  11.257  18.044  0.00  0.00    +0.000 C 
ATOM     24  O   UNL     1       1.334  10.209  17.949  0.00  0.00    +0.000 OA
ENDBRANCH  11  24
ENDBRANCH   1  16
BRANCH   5  25
ATOM     25  C   UNL     1      -3.522  14.550  22.285  0.00  0.00    +0.000 C 
ATOM     26  F   UNL     1      -4.718  14.028  22.673  0.00  0.00    +0.000 F 
ATOM     27  F   UNL     1      -3.162  15.405  23.289  0.00  0.00    +0.000 F 
ATOM     28  F   UNL     1      -3.781  15.345  21.210  0.00  0.00    +0.000 F 
ENDBRANCH   5  25
BRANCH   4  29
ATOM     29  N   UNL     1      -3.223  12.970  19.743  0.00  0.00    +0.000 N 
ATOM     30  H   UNL     1      -3.183  13.929  19.398  0.00  0.00    +0.000 HD
BRANCH  29  31
ATOM     31  C   UNL     1      -4.383  12.237  19.364  0.00  0.00    +0.000 A 
ATOM     32  C   UNL     1      -5.532  12.286  20.177  0.00  0.00    +0.000 A 
ATOM     33  C   UNL     1      -6.756  11.765  19.750  0.00  0.00    +0.000 A 
ATOM     34  C   UNL     1      -6.847  11.139  18.514  0.00  0.00    +0.000 A 
ATOM     35  C   UNL     1      -5.699  10.999  17.729  0.00  0.00    +0.000 A 
ATOM     36  C   UNL     1      -4.474  11.533  18.150  0.00  0.00    +0.000 A 
BRANCH  36  37
ATOM     37  C   UNL     1      -3.332  11.349  17.302  0.00  0.00    +0.000 C 
ATOM     38  N   UNL     1      -2.399  11.187  16.623  0.00  0.00    +0.000 NA
ENDBRANCH  36  37
ENDBRANCH  29  31
ENDBRANCH   4  29
TORSDOF 7
ENDMDL
MODEL 9
REMARK VINA RESULT:      -8.4      4.838      9.478
REMARK  Name = 
REMARK  8 active torsions:
REMARK  status: ('A' for Active; 'I' for Inactive)
REMARK    1  A    between atoms: C_1  and  O_2
REMARK    2  A    between atoms: O_2  and  C_3
REMARK    3  A    between atoms: C_5  and  N_6
REMARK    4  A    between atoms: C_14  and  C_15
REMARK    5  A    between atoms: C_18  and  N_19
REMARK    6  A    between atoms: N_19  and  C_20
REMARK    7  A    between atoms: C_25  and  C_26
REMARK    8  A    between atoms: C_28  and  C_29
REMARK                            x       y       z     vdW  Elec       q    Type
REMARK                         _______ _______ _______ _____ _____    ______ ____
ROOT
ATOM      1  C   UNL     1       1.672   7.785  20.034  0.00  0.00    +0.000 A 
ATOM      2  C   UNL     1       2.774   7.194  19.435  0.00  0.00    +0.000 A 
ATOM      3  C   UNL     1       2.615   5.774  19.453  0.00  0.00    +0.000 A 
ATOM      4  C   UNL     1       3.330   4.655  18.944  0.00  0.00    +0.000 A 
ATOM      5  C   UNL     1       2.830   3.393  19.339  0.00  0.00    +0.000 A 
ATOM      6  C   UNL     1       1.631   3.322  20.054  0.00  0.00    +0.000 A 
ATOM      7  N   UNL     1       0.891   4.366  20.476  0.00  0.00    +0.000 NA
ATOM      8  C   UNL     1       1.448   5.546  20.170  0.00  0.00    +0.000 A 
ATOM      9  N   UNL     1       0.913   6.749  20.528  0.00  0.00    +0.000 N 
ATOM     10  H   UNL     1       0.063   6.857  21.056  0.00  0.00    +0.000 HD
ENDROOT
BRANCH   1  16
ATOM     11  C   UNL     1       0.839   9.808  21.307  0.00  0.00    +0.000 A 
ATOM     12  C   UNL     1       0.390  11.140  21.285  0.00  0.00    +0.000 A 
ATOM     13  C   UNL     1       0.246  11.868  20.099  0.00  0.00    +0.000 A 
ATOM     14  C   UNL     1       0.678  11.240  18.927  0.00  0.00    +0.000 A 
ATOM     15  C   UNL     1       1.187   9.936  18.931  0.00  0.00    +0.000 A 
ATOM     16  C   UNL     1       1.256   9.192  20.116  0.00  0.00    +0.000 A 
BRANCH  13  17
ATOM     17  N   UNL     1      -0.285  13.146  20.075  0.00  0.00    +0.000 N 
ATOM     18  C   UNL     1      -0.308  13.987  18.865  0.00  0.00    +0.000 C 
ATOM     19  C   UNL     1       0.661  15.169  18.998  0.00  0.00    +0.000 C 
ATOM     20  O   UNL     1       0.380  15.940  20.177  0.00  0.00    +0.000 OA
ATOM     21  C   UNL     1       0.529  15.119  21.346  0.00  0.00    +0.000 C 
ATOM     22  C   UNL     1      -0.422  13.909  21.333  0.00  0.00    +0.000 C 
ENDBRANCH  13  17
BRANCH  11  24
ATOM     23  C   UNL     1      -0.082   9.438  23.453  0.00  0.00    +0.000 C 
ATOM     24  O   UNL     1       0.895   9.081  22.475  0.00  0.00    +0.000 OA
ENDBRANCH  11  24
ENDBRANCH   1  16
BRANCH   5  25
ATOM     25  C   UNL     1       3.500   2.084  19.063  0.00  0.00    +0.000 C 
ATOM     26  F   UNL     1       3.921   1.915  17.779  0.00  0.00    +0.000 F 
ATOM     27  F   UNL     1       4.619   1.922  19.831  0.00  0.00    +0.000 F 
ATOM     28  F   UNL     1       2.709   1.012  19.349  0.00  0.00    +0.000 F 
ENDBRANCH   5  25
BRANCH   4  29
ATOM     29  N   UNL     1       4.431   4.758  18.049  0.00  0.00    +0.000 N 
ATOM     30  H   UNL     1       4.495   3.986  17.386  0.00  0.00    +0.000 HD
BRANCH  29  31
ATOM     31  C   UNL     1       5.635   5.491  18.245  0.00  0.00    +0.000 A 
ATOM     32  C   UNL     1       6.386   5.292  19.420  0.00  0.00    +0.000 A 
ATOM     33  C   UNL     1       7.671   5.819  19.567  0.00  0.00    +0.000 A 
ATOM     34  C   UNL     1       8.219   6.598  18.558  0.00  0.00    +0.000 A 
ATOM     35  C   UNL     1       7.457   6.884  17.420  0.00  0.00    +0.000 A 
ATOM     36  C   UNL     1       6.173   6.345  17.265  0.00  0.00    +0.000 A 
BRANCH  36  37
ATOM     37  C   UNL     1       5.440   6.681  16.079  0.00  0.00    +0.000 C 
ATOM     38  N   UNL     1       4.840   6.938  15.114  0.00  0.00    +0.000 NA
ENDBRANCH  36  37
ENDBRANCH  29  31
ENDBRANCH   4  29
TORSDOF 7
ENDMDL
