MODEL 1
REMARK VINA RESULT:      -6.9      0.000      0.000
REMARK  Name = 
REMARK  12 active torsions:
REMARK  status: ('A' for Active; 'I' for Inactive)
REMARK    1  A    between atoms: C_1  and  C_2
REMARK    2  A    between atoms: C_2  and  C_3
REMARK    3  A    between atoms: C_3  and  C_4
REMARK    4  A    between atoms: C_4  and  C_5
REMARK    5  A    between atoms: C_5  and  C_6
REMARK    6  A    between atoms: C_6  and  C_7
REMARK    7  A    between atoms: C_7  and  C_8
REMARK    8  A    between atoms: C_8  and  S_9
REMARK    9  A    between atoms: S_9  and  C_12
REMARK   10  A    between atoms: C_13  and  C_14
REMARK   11  A    between atoms: C_17  and  O_18
REMARK   12  A    between atoms: C_19  and  O_20
REMARK                            x       y       z     vdW  Elec       q    Type
REMARK                         _______ _______ _______ _____ _____    ______ ____
ROOT
ATOM      1  C   UNL     1       5.643   5.338  18.850  0.00  0.00    +0.000 C 
ATOM      2  C   UNL     1       5.226   4.074  19.005  0.00  0.00    +0.000 C 
ENDROOT
BRANCH   2   3
ATOM      3  C   UNL     1       3.821   3.681  19.188  0.00  0.00    +0.000 A 
ATOM      4  C   UNL     1       3.380   3.017  20.345  0.00  0.00    +0.000 A 
ATOM      5  C   UNL     1       2.037   2.659  20.504  0.00  0.00    +0.000 A 
ATOM      6  C   UNL     1       1.128   2.979  19.502  0.00  0.00    +0.000 A 
ATOM      7  C   UNL     1       1.552   3.659  18.365  0.00  0.00    +0.000 A 
ATOM      8  C   UNL     1       2.884   4.019  18.201  0.00  0.00    +0.000 A 
BRANCH   6   9
ATOM      9  O   UNL     1      -0.194   2.649  19.594  0.00  0.00    +0.000 OA
ATOM     10  H   UNL     1      -0.607   3.224  20.263  0.00  0.00    +0.000 HD
ENDBRANCH   6   9
BRANCH   7  11
ATOM     11  O   UNL     1       0.650   3.980  17.390  0.00  0.00    +0.000 OA
ATOM     12  H   UNL     1      -0.212   4.015  17.853  0.00  0.00    +0.000 HD
ENDBRANCH   7  11
ENDBRANCH   2   3
BRANCH   1  13
ATOM     13  S   UNL     1       7.345   5.637  18.632  0.00  0.00    +0.000 S 
ATOM     14  O   UNL     1       8.034   5.213  19.831  0.00  0.00    +0.000 OA
ATOM     15  O   UNL     1       7.524   6.987  18.119  0.00  0.00    +0.000 OA
BRANCH  13  16
ATOM     16  C   UNL     1       7.788   4.503  17.320  0.00  0.00    +0.000 C 
BRANCH  16  17
ATOM     17  C   UNL     1       7.134   4.918  16.002  0.00  0.00    +0.000 C 
BRANCH  17  18
ATOM     18  C   UNL     1       6.299   3.795  15.385  0.00  0.00    +0.000 C 
BRANCH  18  19
ATOM     19  C   UNL     1       5.604   4.271  14.104  0.00  0.00    +0.000 C 
BRANCH  19  20
ATOM     20  C   UNL     1       6.266   3.683  12.857  0.00  0.00    +0.000 C 
BRANCH  20  21
ATOM     21  C   UNL     1       5.227   3.055  11.928  0.00  0.00    +0.000 C 
BRANCH  21  23
ATOM     22  C   UNL     1       7.244   1.795  11.109  0.00  0.00    +0.000 C 
ATOM     23  C   UNL     1       5.739   1.749  11.323  0.00  0.00    +0.000 C 
ENDBRANCH  21  23
ENDBRANCH  20  21
ENDBRANCH  19  20
ENDBRANCH  18  19
ENDBRANCH  17  18
ENDBRANCH  16  17
ENDBRANCH  13  16
ENDBRANCH   1  13
TORSDOF 11
ENDMDL
MODEL 2
REMARK VINA RESULT:      -6.8      1.763      2.311
REMARK  Name = 
REMARK  12 active torsions:
REMARK  status: ('A' for Active; 'I' for Inactive)
REMARK    1  A    between atoms: C_1  and  C_2
REMARK    2  A    between atoms: C_2  and  C_3
REMARK    3  A    between atoms: C_3  and  C_4
REMARK    4  A    between atoms: C_4  and  C_5
REMARK    5  A    between atoms: C_5  and  C_6
REMARK    6  A    between atoms: C_6  and  C_7
REMARK    7  A    between atoms: C_7  and  C_8
REMARK    8  A    between atoms: C_8  and  S_9
REMARK    9  A    between atoms: S_9  and  C_12
REMARK   10  A    between atoms: C_13  and  C_14
REMARK   11  A    between atoms: C_17  and  O_18
REMARK   12  A    between atoms: C_19  and  O_20
REMARK                            x       y       z     vdW  Elec       q    Type
REMARK                         _______ _______ _______ _____ _____    ______ ____
ROOT
ATOM      1  C   UNL     1       5.716   5.276  17.692  0.00  0.00    +0.000 C 
ATOM      2  C   UNL     1       4.976   4.163  17.595  0.00  0.00    +0.000 C 
ENDROOT
BRANCH   2   3
ATOM      3  C   UNL     1       3.817   3.861  18.447  0.00  0.00    +0.000 A 
ATOM      4  C   UNL     1       3.551   4.583  19.623  0.00  0.00    +0.000 A 
ATOM      5  C   UNL     1       2.438   4.285  20.417  0.00  0.00    +0.000 A 
ATOM      6  C   UNL     1       1.578   3.266  20.023  0.00  0.00    +0.000 A 
ATOM      7  C   UNL     1       1.820   2.565  18.846  0.00  0.00    +0.000 A 
ATOM      8  C   UNL     1       2.923   2.855  18.053  0.00  0.00    +0.000 A 
BRANCH   6   9
ATOM      9  O   UNL     1       0.480   2.923  20.759  0.00  0.00    +0.000 OA
ATOM     10  H   UNL     1      -0.297   3.364  20.372  0.00  0.00    +0.000 HD
ENDBRANCH   6   9
BRANCH   7  11
ATOM     11  O   UNL     1       0.963   1.572  18.460  0.00  0.00    +0.000 OA
ATOM     12  H   UNL     1       0.072   1.966  18.551  0.00  0.00    +0.000 HD
ENDBRANCH   7  11
ENDBRANCH   2   3
BRANCH   1  13
ATOM     13  S   UNL     1       7.053   5.490  16.597  0.00  0.00    +0.000 S 
ATOM     14  O   UNL     1       7.993   4.414  16.818  0.00  0.00    +0.000 OA
ATOM     15  O   UNL     1       7.493   6.875  16.655  0.00  0.00    +0.000 OA
BRANCH  13  16
ATOM     16  C   UNL     1       6.303   5.235  14.992  0.00  0.00    +0.000 C 
BRANCH  16  17
ATOM     17  C   UNL     1       7.336   4.730  13.985  0.00  0.00    +0.000 C 
BRANCH  17  18
ATOM     18  C   UNL     1       6.694   4.232  12.689  0.00  0.00    +0.000 C 
BRANCH  18  19
ATOM     19  C   UNL     1       5.489   3.333  12.986  0.00  0.00    +0.000 C 
BRANCH  19  20
ATOM     20  C   UNL     1       4.896   2.749  11.703  0.00  0.00    +0.000 C 
BRANCH  20  21
ATOM     21  C   UNL     1       4.399   3.856  10.773  0.00  0.00    +0.000 C 
BRANCH  21  23
ATOM     22  C   UNL     1       2.573   4.567   9.197  0.00  0.00    +0.000 C 
ATOM     23  C   UNL     1       3.001   3.546  10.239  0.00  0.00    +0.000 C 
ENDBRANCH  21  23
ENDBRANCH  20  21
ENDBRANCH  19  20
ENDBRANCH  18  19
ENDBRANCH  17  18
ENDBRANCH  16  17
ENDBRANCH  13  16
ENDBRANCH   1  13
TORSDOF 11
ENDMDL
MODEL 3
REMARK VINA RESULT:      -6.8      1.709      2.473
REMARK  Name = 
REMARK  12 active torsions:
REMARK  status: ('A' for Active; 'I' for Inactive)
REMARK    1  A    between atoms: C_1  and  C_2
REMARK    2  A    between atoms: C_2  and  C_3
REMARK    3  A    between atoms: C_3  and  C_4
REMARK    4  A    between atoms: C_4  and  C_5
REMARK    5  A    between atoms: C_5  and  C_6
REMARK    6  A    between atoms: C_6  and  C_7
REMARK    7  A    between atoms: C_7  and  C_8
REMARK    8  A    between atoms: C_8  and  S_9
REMARK    9  A    between atoms: S_9  and  C_12
REMARK   10  A    between atoms: C_13  and  C_14
REMARK   11  A    between atoms: C_17  and  O_18
REMARK   12  A    between atoms: C_19  and  O_20
REMARK                            x       y       z     vdW  Elec       q    Type
REMARK                         _______ _______ _______ _____ _____    ______ ____
ROOT
ATOM      1  C   UNL     1       5.508   5.593  17.897  0.00  0.00    +0.000 C 
ATOM      2  C   UNL     1       4.934   4.385  17.825  0.00  0.00    +0.000 C 
ENDROOT
BRANCH   2   3
ATOM      3  C   UNL     1       3.734   3.991  18.579  0.00  0.00    +0.000 A 
ATOM      4  C   UNL     1       2.447   4.066  18.020  0.00  0.00    +0.000 A 
ATOM      5  C   UNL     1       1.319   3.679  18.751  0.00  0.00    +0.000 A 
ATOM      6  C   UNL     1       1.483   3.202  20.047  0.00  0.00    +0.000 A 
ATOM      7  C   UNL     1       2.756   3.100  20.598  0.00  0.00    +0.000 A 
ATOM      8  C   UNL     1       3.881   3.482  19.877  0.00  0.00    +0.000 A 
BRANCH   6   9
ATOM      9  O   UNL     1       0.421   2.816  20.814  0.00  0.00    +0.000 OA
ATOM     10  H   UNL     1       0.055   3.605  21.249  0.00  0.00    +0.000 HD
ENDBRANCH   6   9
BRANCH   7  11
ATOM     11  O   UNL     1       2.909   2.618  21.868  0.00  0.00    +0.000 OA
ATOM     12  H   UNL     1       2.326   1.833  21.906  0.00  0.00    +0.000 HD
ENDBRANCH   7  11
ENDBRANCH   2   3
BRANCH   1  13
ATOM     13  S   UNL     1       6.922   5.907  16.929  0.00  0.00    +0.000 S 
ATOM     14  O   UNL     1       7.855   4.821  17.131  0.00  0.00    +0.000 OA
ATOM     15  O   UNL     1       7.340   7.285  17.137  0.00  0.00    +0.000 OA
BRANCH  13  16
ATOM     16  C   UNL     1       6.298   5.784  15.256  0.00  0.00    +0.000 C 
BRANCH  16  17
ATOM     17  C   UNL     1       6.926   4.595  14.530  0.00  0.00    +0.000 C 
BRANCH  17  18
ATOM     18  C   UNL     1       5.884   3.569  14.081  0.00  0.00    +0.000 C 
BRANCH  18  19
ATOM     19  C   UNL     1       5.859   3.448  12.553  0.00  0.00    +0.000 C 
BRANCH  19  20
ATOM     20  C   UNL     1       4.461   3.713  11.993  0.00  0.00    +0.000 C 
BRANCH  20  21
ATOM     21  C   UNL     1       4.084   2.672  10.939  0.00  0.00    +0.000 C 
BRANCH  21  23
ATOM     22  C   UNL     1       2.932   4.431   9.561  0.00  0.00    +0.000 C 
ATOM     23  C   UNL     1       2.801   3.061  10.206  0.00  0.00    +0.000 C 
ENDBRANCH  21  23
ENDBRANCH  20  21
ENDBRANCH  19  20
ENDBRANCH  18  19
ENDBRANCH  17  18
ENDBRANCH  16  17
ENDBRANCH  13  16
ENDBRANCH   1  13
TORSDOF 11
ENDMDL
MODEL 4
REMARK VINA RESULT:      -6.7      1.176      1.733
REMARK  Name = 
REMARK  12 active torsions:
REMARK  status: ('A' for Active; 'I' for Inactive)
REMARK    1  A    between atoms: C_1  and  C_2
REMARK    2  A    between atoms: C_2  and  C_3
REMARK    3  A    between atoms: C_3  and  C_4
REMARK    4  A    between atoms: C_4  and  C_5
REMARK    5  A    between atoms: C_5  and  C_6
REMARK    6  A    between atoms: C_6  and  C_7
REMARK    7  A    between atoms: C_7  and  C_8
REMARK    8  A    between atoms: C_8  and  S_9
REMARK    9  A    between atoms: S_9  and  C_12
REMARK   10  A    between atoms: C_13  and  C_14
REMARK   11  A    between atoms: C_17  and  O_18
REMARK   12  A    between atoms: C_19  and  O_20
REMARK                            x       y       z     vdW  Elec       q    Type
REMARK                         _______ _______ _______ _____ _____    ______ ____
ROOT
ATOM      1  C   UNL     1       5.860   5.080  19.291  0.00  0.00    +0.000 C 
ATOM      2  C   UNL     1       5.334   3.907  18.912  0.00  0.00    +0.000 C 
ENDROOT
BRANCH   2   3
ATOM      3  C   UNL     1       3.909   3.565  19.021  0.00  0.00    +0.000 A 
ATOM      4  C   UNL     1       3.403   2.820  20.100  0.00  0.00    +0.000 A 
ATOM      5  C   UNL     1       2.042   2.511  20.189  0.00  0.00    +0.000 A 
ATOM      6  C   UNL     1       1.179   2.963  19.197  0.00  0.00    +0.000 A 
ATOM      7  C   UNL     1       1.667   3.723  18.140  0.00  0.00    +0.000 A 
ATOM      8  C   UNL     1       3.017   4.035  18.045  0.00  0.00    +0.000 A 
BRANCH   6   9
ATOM      9  O   UNL     1      -0.159   2.688  19.224  0.00  0.00    +0.000 OA
ATOM     10  H   UNL     1      -0.347   2.015  18.546  0.00  0.00    +0.000 HD
ENDBRANCH   6   9
BRANCH   7  11
ATOM     11  O   UNL     1       0.809   4.174  17.175  0.00  0.00    +0.000 OA
ATOM     12  H   UNL     1       1.306   4.880  16.713  0.00  0.00    +0.000 HD
ENDBRANCH   7  11
ENDBRANCH   2   3
BRANCH   1  13
ATOM     13  S   UNL     1       7.571   5.335  19.086  0.00  0.00    +0.000 S 
ATOM     14  O   UNL     1       8.075   4.313  18.195  0.00  0.00    +0.000 OA
ATOM     15  O   UNL     1       8.178   5.537  20.392  0.00  0.00    +0.000 OA
BRANCH  13  16
ATOM     16  C   UNL     1       7.642   6.898  18.216  0.00  0.00    +0.000 C 
BRANCH  16  17
ATOM     17  C   UNL     1       6.468   7.032  17.246  0.00  0.00    +0.000 C 
BRANCH  17  18
ATOM     18  C   UNL     1       6.604   6.111  16.033  0.00  0.00    +0.000 C 
BRANCH  18  19
ATOM     19  C   UNL     1       5.228   5.692  15.506  0.00  0.00    +0.000 C 
BRANCH  19  20
ATOM     20  C   UNL     1       5.303   4.384  14.719  0.00  0.00    +0.000 C 
BRANCH  20  21
ATOM     21  C   UNL     1       6.704   4.165  14.148  0.00  0.00    +0.000 C 
BRANCH  21  23
ATOM     22  C   UNL     1       5.429   3.246  12.185  0.00  0.00    +0.000 C 
ATOM     23  C   UNL     1       6.667   4.007  12.628  0.00  0.00    +0.000 C 
ENDBRANCH  21  23
ENDBRANCH  20  21
ENDBRANCH  19  20
ENDBRANCH  18  19
ENDBRANCH  17  18
ENDBRANCH  16  17
ENDBRANCH  13  16
ENDBRANCH   1  13
TORSDOF 11
ENDMDL
MODEL 5
REMARK VINA RESULT:      -6.7      1.278      1.519
REMARK  Name = 
REMARK  12 active torsions:
REMARK  status: ('A' for Active; 'I' for Inactive)
REMARK    1  A    between atoms: C_1  and  C_2
REMARK    2  A    between atoms: C_2  and  C_3
REMARK    3  A    between atoms: C_3  and  C_4
REMARK    4  A    between atoms: C_4  and  C_5
REMARK    5  A    between atoms: C_5  and  C_6
REMARK    6  A    between atoms: C_6  and  C_7
REMARK    7  A    between atoms: C_7  and  C_8
REMARK    8  A    between atoms: C_8  and  S_9
REMARK    9  A    between atoms: S_9  and  C_12
REMARK   10  A    between atoms: C_13  and  C_14
REMARK   11  A    between atoms: C_17  and  O_18
REMARK   12  A    between atoms: C_19  and  O_20
REMARK                            x       y       z     vdW  Elec       q    Type
REMARK                         _______ _______ _______ _____ _____    ______ ____
ROOT
ATOM      1  C   UNL     1       5.657   5.903  18.507  0.00  0.00    +0.000 C 
ATOM      2  C   UNL     1       4.782   4.993  18.056  0.00  0.00    +0.000 C 
ENDROOT
BRANCH   2   3
ATOM      3  C   UNL     1       3.654   4.469  18.840  0.00  0.00    +0.000 A 
ATOM      4  C   UNL     1       3.078   5.198  19.893  0.00  0.00    +0.000 A 
ATOM      5  C   UNL     1       2.000   4.685  20.622  0.00  0.00    +0.000 A 
ATOM      6  C   UNL     1       1.487   3.437  20.284  0.00  0.00    +0.000 A 
ATOM      7  C   UNL     1       2.035   2.721  19.225  0.00  0.00    +0.000 A 
ATOM      8  C   UNL     1       3.105   3.225  18.497  0.00  0.00    +0.000 A 
BRANCH   6   9
ATOM      9  O   UNL     1       0.441   2.879  20.962  0.00  0.00    +0.000 OA
ATOM     10  H   UNL     1      -0.272   2.694  20.326  0.00  0.00    +0.000 HD
ENDBRANCH   6   9
BRANCH   7  11
ATOM     11  O   UNL     1       1.517   1.500  18.892  0.00  0.00    +0.000 OA
ATOM     12  H   UNL     1       0.972   1.672  18.097  0.00  0.00    +0.000 HD
ENDBRANCH   7  11
ENDBRANCH   2   3
BRANCH   1  13
ATOM     13  S   UNL     1       6.934   6.432  17.447  0.00  0.00    +0.000 S 
ATOM     14  O   UNL     1       8.034   6.893  18.264  0.00  0.00    +0.000 OA
ATOM     15  O   UNL     1       6.369   7.293  16.420  0.00  0.00    +0.000 OA
BRANCH  13  16
ATOM     16  C   UNL     1       7.449   4.914  16.649  0.00  0.00    +0.000 C 
BRANCH  16  17
ATOM     17  C   UNL     1       7.008   4.896  15.186  0.00  0.00    +0.000 C 
BRANCH  17  18
ATOM     18  C   UNL     1       6.195   3.648  14.836  0.00  0.00    +0.000 C 
BRANCH  18  19
ATOM     19  C   UNL     1       5.396   3.860  13.546  0.00  0.00    +0.000 C 
BRANCH  19  20
ATOM     20  C   UNL     1       6.227   3.519  12.309  0.00  0.00    +0.000 C 
BRANCH  20  21
ATOM     21  C   UNL     1       5.607   2.357  11.533  0.00  0.00    +0.000 C 
BRANCH  21  23
ATOM     22  C   UNL     1       6.127  -0.090  11.278  0.00  0.00    +0.000 C 
ATOM     23  C   UNL     1       6.663   1.325  11.139  0.00  0.00    +0.000 C 
ENDBRANCH  21  23
ENDBRANCH  20  21
ENDBRANCH  19  20
ENDBRANCH  18  19
ENDBRANCH  17  18
ENDBRANCH  16  17
ENDBRANCH  13  16
ENDBRANCH   1  13
TORSDOF 11
ENDMDL
MODEL 6
REMARK VINA RESULT:      -6.7      2.117      2.803
REMARK  Name = 
REMARK  12 active torsions:
REMARK  status: ('A' for Active; 'I' for Inactive)
REMARK    1  A    between atoms: C_1  and  C_2
REMARK    2  A    between atoms: C_2  and  C_3
REMARK    3  A    between atoms: C_3  and  C_4
REMARK    4  A    between atoms: C_4  and  C_5
REMARK    5  A    between atoms: C_5  and  C_6
REMARK    6  A    between atoms: C_6  and  C_7
REMARK    7  A    between atoms: C_7  and  C_8
REMARK    8  A    between atoms: C_8  and  S_9
REMARK    9  A    between atoms: S_9  and  C_12
REMARK   10  A    between atoms: C_13  and  C_14
REMARK   11  A    between atoms: C_17  and  O_18
REMARK   12  A    between atoms: C_19  and  O_20
REMARK                            x       y       z     vdW  Elec       q    Type
REMARK                         _______ _______ _______ _____ _____    ______ ____
ROOT
ATOM      1  C   UNL     1       5.178   4.299  16.928  0.00  0.00    +0.000 C 
ATOM      2  C   UNL     1       4.662   4.983  17.958  0.00  0.00    +0.000 C 
ENDROOT
BRANCH   2   3
ATOM      3  C   UNL     1       3.625   4.463  18.861  0.00  0.00    +0.000 A 
ATOM      4  C   UNL     1       3.170   5.196  19.971  0.00  0.00    +0.000 A 
ATOM      5  C   UNL     1       2.177   4.687  20.814  0.00  0.00    +0.000 A 
ATOM      6  C   UNL     1       1.625   3.442  20.536  0.00  0.00    +0.000 A 
ATOM      7  C   UNL     1       2.051   2.722  19.424  0.00  0.00    +0.000 A 
ATOM      8  C   UNL     1       3.036   3.222  18.582  0.00  0.00    +0.000 A 
BRANCH   6   9
ATOM      9  O   UNL     1       0.658   2.888  21.325  0.00  0.00    +0.000 OA
ATOM     10  H   UNL     1       1.079   2.557  22.138  0.00  0.00    +0.000 HD
ENDBRANCH   6   9
BRANCH   7  11
ATOM     11  O   UNL     1       1.495   1.503  19.151  0.00  0.00    +0.000 OA
ATOM     12  H   UNL     1       1.993   0.874  19.711  0.00  0.00    +0.000 HD
ENDBRANCH   7  11
ENDBRANCH   2   3
BRANCH   1  13
ATOM     13  S   UNL     1       6.412   5.054  15.956  0.00  0.00    +0.000 S 
ATOM     14  O   UNL     1       7.639   5.070  16.721  0.00  0.00    +0.000 OA
ATOM     15  O   UNL     1       5.880   6.285  15.392  0.00  0.00    +0.000 OA
BRANCH  13  16
ATOM     16  C   UNL     1       6.625   3.896  14.608  0.00  0.00    +0.000 C 
BRANCH  16  17
ATOM     17  C   UNL     1       6.972   4.631  13.313  0.00  0.00    +0.000 C 
BRANCH  17  18
ATOM     18  C   UNL     1       6.791   3.750  12.076  0.00  0.00    +0.000 C 
BRANCH  18  19
ATOM     19  C   UNL     1       5.376   3.164  12.024  0.00  0.00    +0.000 C 
BRANCH  19  20
ATOM     20  C   UNL     1       4.428   4.056  11.223  0.00  0.00    +0.000 C 
BRANCH  20  21
ATOM     21  C   UNL     1       3.301   3.236  10.594  0.00  0.00    +0.000 C 
BRANCH  21  23
ATOM     22  C   UNL     1       2.126   4.937   9.162  0.00  0.00    +0.000 C 
ATOM     23  C   UNL     1       3.006   3.698   9.167  0.00  0.00    +0.000 C 
ENDBRANCH  21  23
ENDBRANCH  20  21
ENDBRANCH  19  20
ENDBRANCH  18  19
ENDBRANCH  17  18
ENDBRANCH  16  17
ENDBRANCH  13  16
ENDBRANCH   1  13
TORSDOF 11
ENDMDL
MODEL 7
REMARK VINA RESULT:      -6.7      1.919      2.482
REMARK  Name = 
REMARK  12 active torsions:
REMARK  status: ('A' for Active; 'I' for Inactive)
REMARK    1  A    between atoms: C_1  and  C_2
REMARK    2  A    between atoms: C_2  and  C_3
REMARK    3  A    between atoms: C_3  and  C_4
REMARK    4  A    between atoms: C_4  and  C_5
REMARK    5  A    between atoms: C_5  and  C_6
REMARK    6  A    between atoms: C_6  and  C_7
REMARK    7  A    between atoms: C_7  and  C_8
REMARK    8  A    between atoms: C_8  and  S_9
REMARK    9  A    between atoms: S_9  and  C_12
REMARK   10  A    between atoms: C_13  and  C_14
REMARK   11  A    between atoms: C_17  and  O_18
REMARK   12  A    between atoms: C_19  and  O_20
REMARK                            x       y       z     vdW  Elec       q    Type
REMARK                         _______ _______ _______ _____ _____    ______ ____
ROOT
ATOM      1  C   UNL     1       5.561   5.304  17.614  0.00  0.00    +0.000 C 
ATOM      2  C   UNL     1       5.007   4.085  17.676  0.00  0.00    +0.000 C 
ENDROOT
BRANCH   2   3
ATOM      3  C   UNL     1       3.866   3.737  18.535  0.00  0.00    +0.000 A 
ATOM      4  C   UNL     1       3.422   2.411  18.680  0.00  0.00    +0.000 A 
ATOM      5  C   UNL     1       2.338   2.099  19.508  0.00  0.00    +0.000 A 
ATOM      6  C   UNL     1       1.703   3.120  20.205  0.00  0.00    +0.000 A 
ATOM      7  C   UNL     1       2.153   4.431  20.088  0.00  0.00    +0.000 A 
ATOM      8  C   UNL     1       3.229   4.748  19.268  0.00  0.00    +0.000 A 
BRANCH   6   9
ATOM      9  O   UNL     1       0.636   2.881  21.023  0.00  0.00    +0.000 OA
ATOM     10  H   UNL     1       0.969   2.528  21.866  0.00  0.00    +0.000 HD
ENDBRANCH   6   9
BRANCH   7  11
ATOM     11  O   UNL     1       1.530   5.428  20.786  0.00  0.00    +0.000 OA
ATOM     12  H   UNL     1       0.720   5.010  21.142  0.00  0.00    +0.000 HD
ENDBRANCH   7  11
ENDBRANCH   2   3
BRANCH   1  13
ATOM     13  S   UNL     1       6.905   5.558  16.536  0.00  0.00    +0.000 S 
ATOM     14  O   UNL     1       7.817   4.446  16.683  0.00  0.00    +0.000 OA
ATOM     15  O   UNL     1       7.381   6.925  16.689  0.00  0.00    +0.000 OA
BRANCH  13  16
ATOM     16  C   UNL     1       6.150   5.433  14.917  0.00  0.00    +0.000 C 
BRANCH  16  17
ATOM     17  C   UNL     1       5.971   3.969  14.516  0.00  0.00    +0.000 C 
BRANCH  17  18
ATOM     18  C   UNL     1       6.402   3.702  13.073  0.00  0.00    +0.000 C 
BRANCH  18  19
ATOM     19  C   UNL     1       5.244   3.952  12.101  0.00  0.00    +0.000 C 
BRANCH  19  20
ATOM     20  C   UNL     1       4.827   2.667  11.383  0.00  0.00    +0.000 C 
BRANCH  20  21
ATOM     21  C   UNL     1       3.503   2.856  10.643  0.00  0.00    +0.000 C 
BRANCH  21  23
ATOM     22  C   UNL     1       2.673   4.466   8.898  0.00  0.00    +0.000 C 
ATOM     23  C   UNL     1       3.267   4.324  10.290  0.00  0.00    +0.000 C 
ENDBRANCH  21  23
ENDBRANCH  20  21
ENDBRANCH  19  20
ENDBRANCH  18  19
ENDBRANCH  17  18
ENDBRANCH  16  17
ENDBRANCH  13  16
ENDBRANCH   1  13
TORSDOF 11
ENDMDL
MODEL 8
REMARK VINA RESULT:      -6.6      0.874      1.723
REMARK  Name = 
REMARK  12 active torsions:
REMARK  status: ('A' for Active; 'I' for Inactive)
REMARK    1  A    between atoms: C_1  and  C_2
REMARK    2  A    between atoms: C_2  and  C_3
REMARK    3  A    between atoms: C_3  and  C_4
REMARK    4  A    between atoms: C_4  and  C_5
REMARK    5  A    between atoms: C_5  and  C_6
REMARK    6  A    between atoms: C_6  and  C_7
REMARK    7  A    between atoms: C_7  and  C_8
REMARK    8  A    between atoms: C_8  and  S_9
REMARK    9  A    between atoms: S_9  and  C_12
REMARK   10  A    between atoms: C_13  and  C_14
REMARK   11  A    between atoms: C_17  and  O_18
REMARK   12  A    between atoms: C_19  and  O_20
REMARK                            x       y       z     vdW  Elec       q    Type
REMARK                         _______ _______ _______ _____ _____    ______ ____
ROOT
ATOM      1  C   UNL     1       5.803   5.254  19.258  0.00  0.00    +0.000 C 
ATOM      2  C   UNL     1       5.101   4.415  18.484  0.00  0.00    +0.000 C 
ENDROOT
BRANCH   2   3
ATOM      3  C   UNL     1       3.716   4.001  18.754  0.00  0.00    +0.000 A 
ATOM      4  C   UNL     1       2.705   4.109  17.784  0.00  0.00    +0.000 A 
ATOM      5  C   UNL     1       1.395   3.702  18.058  0.00  0.00    +0.000 A 
ATOM      6  C   UNL     1       1.099   3.170  19.308  0.00  0.00    +0.000 A 
ATOM      7  C   UNL     1       2.100   3.035  20.264  0.00  0.00    +0.000 A 
ATOM      8  C   UNL     1       3.403   3.436  19.999  0.00  0.00    +0.000 A 
BRANCH   6   9
ATOM      9  O   UNL     1      -0.162   2.762  19.638  0.00  0.00    +0.000 OA
ATOM     10  H   UNL     1      -0.150   2.450  20.560  0.00  0.00    +0.000 HD
ENDBRANCH   6   9
BRANCH   7  11
ATOM     11  O   UNL     1       1.803   2.500  21.487  0.00  0.00    +0.000 OA
ATOM     12  H   UNL     1       2.277   1.643  21.503  0.00  0.00    +0.000 HD
ENDBRANCH   7  11
ENDBRANCH   2   3
BRANCH   1  13
ATOM     13  S   UNL     1       7.433   5.656  18.793  0.00  0.00    +0.000 S 
ATOM     14  O   UNL     1       8.312   5.305  19.886  0.00  0.00    +0.000 OA
ATOM     15  O   UNL     1       7.447   7.001  18.239  0.00  0.00    +0.000 OA
BRANCH  13  16
ATOM     16  C   UNL     1       7.758   4.520  17.448  0.00  0.00    +0.000 C 
BRANCH  16  17
ATOM     17  C   UNL     1       7.355   5.137  16.109  0.00  0.00    +0.000 C 
BRANCH  17  18
ATOM     18  C   UNL     1       6.876   4.089  15.103  0.00  0.00    +0.000 C 
BRANCH  18  19
ATOM     19  C   UNL     1       5.377   4.243  14.826  0.00  0.00    +0.000 C 
BRANCH  19  20
ATOM     20  C   UNL     1       5.087   4.304  13.326  0.00  0.00    +0.000 C 
BRANCH  20  21
ATOM     21  C   UNL     1       6.078   3.446  12.539  0.00  0.00    +0.000 C 
BRANCH  21  23
ATOM     22  C   UNL     1       4.046   3.070  11.107  0.00  0.00    +0.000 C 
ATOM     23  C   UNL     1       5.355   2.479  11.603  0.00  0.00    +0.000 C 
ENDBRANCH  21  23
ENDBRANCH  20  21
ENDBRANCH  19  20
ENDBRANCH  18  19
ENDBRANCH  17  18
ENDBRANCH  16  17
ENDBRANCH  13  16
ENDBRANCH   1  13
TORSDOF 11
ENDMDL
MODEL 9
REMARK VINA RESULT:      -6.6      4.858      8.641
REMARK  Name = 
REMARK  12 active torsions:
REMARK  status: ('A' for Active; 'I' for Inactive)
REMARK    1  A    between atoms: C_1  and  C_2
REMARK    2  A    between atoms: C_2  and  C_3
REMARK    3  A    between atoms: C_3  and  C_4
REMARK    4  A    between atoms: C_4  and  C_5
REMARK    5  A    between atoms: C_5  and  C_6
REMARK    6  A    between atoms: C_6  and  C_7
REMARK    7  A    between atoms: C_7  and  C_8
REMARK    8  A    between atoms: C_8  and  S_9
REMARK    9  A    between atoms: S_9  and  C_12
REMARK   10  A    between atoms: C_13  and  C_14
REMARK   11  A    between atoms: C_17  and  O_18
REMARK   12  A    between atoms: C_19  and  O_20
REMARK                            x       y       z     vdW  Elec       q    Type
REMARK                         _______ _______ _______ _____ _____    ______ ____
ROOT
ATOM      1  C   UNL     1       7.739   8.508  17.640  0.00  0.00    +0.000 C 
ATOM      2  C   UNL     1       8.583   8.830  18.630  0.00  0.00    +0.000 C 
ENDROOT
BRANCH   2   3
ATOM      3  C   UNL     1       9.061  10.194  18.900  0.00  0.00    +0.000 A 
ATOM      4  C   UNL     1       9.647  10.547  20.128  0.00  0.00    +0.000 A 
ATOM      5  C   UNL     1      10.103  11.848  20.362  0.00  0.00    +0.000 A 
ATOM      6  C   UNL     1       9.984  12.799  19.355  0.00  0.00    +0.000 A 
ATOM      7  C   UNL     1       9.430  12.451  18.128  0.00  0.00    +0.000 A 
ATOM      8  C   UNL     1       8.976  11.160  17.888  0.00  0.00    +0.000 A 
BRANCH   6   9
ATOM      9  O   UNL     1      10.404  14.088  19.526  0.00  0.00    +0.000 OA
ATOM     10  H   UNL     1       9.634  14.676  19.427  0.00  0.00    +0.000 HD
ENDBRANCH   6   9
BRANCH   7  11
ATOM     11  O   UNL     1       9.328  13.389  17.139  0.00  0.00    +0.000 OA
ATOM     12  H   UNL     1      10.200  13.376  16.695  0.00  0.00    +0.000 HD
ENDBRANCH   7  11
ENDBRANCH   2   3
BRANCH   1  13
ATOM     13  S   UNL     1       7.258   6.844  17.459  0.00  0.00    +0.000 S 
ATOM     14  O   UNL     1       7.677   6.123  18.641  0.00  0.00    +0.000 OA
ATOM     15  O   UNL     1       7.649   6.380  16.137  0.00  0.00    +0.000 OA
BRANCH  13  16
ATOM     16  C   UNL     1       5.470   6.937  17.485  0.00  0.00    +0.000 C 
BRANCH  16  17
ATOM     17  C   UNL     1       4.867   5.635  18.012  0.00  0.00    +0.000 C 
BRANCH  17  18
ATOM     18  C   UNL     1       4.238   4.792  16.902  0.00  0.00    +0.000 C 
BRANCH  18  19
ATOM     19  C   UNL     1       3.422   3.636  17.490  0.00  0.00    +0.000 C 
BRANCH  19  20
ATOM     20  C   UNL     1       1.956   4.025  17.681  0.00  0.00    +0.000 C 
BRANCH  20  21
ATOM     21  C   UNL     1       1.598   4.110  19.166  0.00  0.00    +0.000 C 
BRANCH  21  23
ATOM     22  C   UNL     1       1.390   2.828  21.319  0.00  0.00    +0.000 C 
ATOM     23  C   UNL     1       1.596   2.727  19.817  0.00  0.00    +0.000 C 
ENDBRANCH  21  23
ENDBRANCH  20  21
ENDBRANCH  19  20
ENDBRANCH  18  19
ENDBRANCH  17  18
ENDBRANCH  16  17
ENDBRANCH  13  16
ENDBRANCH   1  13
TORSDOF 11
ENDMDL
