MODEL 1
REMARK VINA RESULT:      -6.8      0.000      0.000
REMARK  Name = 
REMARK  9 active torsions:
REMARK  status: ('A' for Active; 'I' for Inactive)
REMARK    1  A    between atoms: C_1  and  O_2
REMARK    2  A    between atoms: O_2  and  C_3
REMARK    3  A    between atoms: C_3  and  C_5
REMARK    4  A    between atoms: C_5  and  C_6
REMARK    5  A    between atoms: C_5  and  C_7
REMARK    6  A    between atoms: C_5  and  C_11
REMARK    7  A    between atoms: C_7  and  O_9
REMARK    8  A    between atoms: O_9  and  C_10
REMARK    9  A    between atoms: C_14  and  N_15
REMARK                            x       y       z     vdW  Elec       q    Type
REMARK                         _______ _______ _______ _____ _____    ______ ____
ROOT
ATOM      1  C   UNL     1       5.916   5.651  17.036  0.00  0.00    +0.000 C 
ATOM      2  C   UNL     1       5.152   6.591  16.073  0.00  0.00    +0.000 C 
ENDROOT
BRANCH   1   3
ATOM      3  C   UNL     1       4.962   4.958  18.021  0.00  0.00    +0.000 A 
ATOM      4  C   UNL     1       3.623   5.361  18.135  0.00  0.00    +0.000 A 
ATOM      5  C   UNL     1       2.775   4.697  19.022  0.00  0.00    +0.000 A 
ATOM      6  C   UNL     1       3.289   3.651  19.787  0.00  0.00    +0.000 A 
ATOM      7  C   UNL     1       4.621   3.311  19.642  0.00  0.00    +0.000 A 
ATOM      8  N   UNL     1       5.458   3.943  18.782  0.00  0.00    +0.000 NA
BRANCH   6   9
ATOM      9  N   UNL     1       2.451   2.921  20.726  0.00  0.00    +0.000 N 
ATOM     10  O   UNL     1       1.267   2.731  20.413  0.00  0.00    +0.000 OA
ATOM     11  O   UNL     1       2.970   2.540  21.785  0.00  0.00    +0.000 OA
ENDBRANCH   6   9
ENDBRANCH   1   3
BRANCH   1  12
ATOM     12  C   UNL     1       6.910   6.533  17.793  0.00  0.00    +0.000 C 
ATOM     13  O   UNL     1       7.423   6.259  18.873  0.00  0.00    +0.000 OA
BRANCH  12  15
ATOM     14  C   UNL     1       7.991   8.614  17.847  0.00  0.00    +0.000 C 
ATOM     15  O   UNL     1       7.133   7.714  17.139  0.00  0.00    +0.000 OA
ENDBRANCH  12  15
ENDBRANCH   1  12
BRANCH   1  16
ATOM     16  C   UNL     1       6.650   4.575  16.243  0.00  0.00    +0.000 C 
ATOM     17  O   UNL     1       7.839   4.306  16.368  0.00  0.00    +0.000 OA
BRANCH  16  18
ATOM     18  O   UNL     1       5.795   3.874  15.438  0.00  0.00    +0.000 OA
ATOM     19  C   UNL     1       6.172   3.801  14.062  0.00  0.00    +0.000 C 
ENDBRANCH  16  18
ENDBRANCH   1  16
TORSDOF 6
ENDMDL
MODEL 2
REMARK VINA RESULT:      -6.5      1.202      1.466
REMARK  Name = 
REMARK  9 active torsions:
REMARK  status: ('A' for Active; 'I' for Inactive)
REMARK    1  A    between atoms: C_1  and  O_2
REMARK    2  A    between atoms: O_2  and  C_3
REMARK    3  A    between atoms: C_3  and  C_5
REMARK    4  A    between atoms: C_5  and  C_6
REMARK    5  A    between atoms: C_5  and  C_7
REMARK    6  A    between atoms: C_5  and  C_11
REMARK    7  A    between atoms: C_7  and  O_9
REMARK    8  A    between atoms: O_9  and  C_10
REMARK    9  A    between atoms: C_14  and  N_15
REMARK                            x       y       z     vdW  Elec       q    Type
REMARK                         _______ _______ _______ _____ _____    ______ ____
ROOT
ATOM      1  C   UNL     1       5.460   5.574  16.475  0.00  0.00    +0.000 C 
ATOM      2  C   UNL     1       4.927   6.783  15.670  0.00  0.00    +0.000 C 
ENDROOT
BRANCH   1   3
ATOM      3  C   UNL     1       4.326   4.849  17.217  0.00  0.00    +0.000 A 
ATOM      4  C   UNL     1       3.213   5.552  17.700  0.00  0.00    +0.000 A 
ATOM      5  C   UNL     1       2.188   4.862  18.349  0.00  0.00    +0.000 A 
ATOM      6  C   UNL     1       2.306   3.483  18.512  0.00  0.00    +0.000 A 
ATOM      7  C   UNL     1       3.435   2.848  18.028  0.00  0.00    +0.000 A 
ATOM      8  N   UNL     1       4.438   3.503  17.392  0.00  0.00    +0.000 NA
BRANCH   6   9
ATOM      9  N   UNL     1       1.269   2.711  19.179  0.00  0.00    +0.000 N 
ATOM     10  O   UNL     1       1.371   2.546  20.404  0.00  0.00    +0.000 OA
ATOM     11  O   UNL     1       0.348   2.260  18.483  0.00  0.00    +0.000 OA
ENDBRANCH   6   9
ENDBRANCH   1   3
BRANCH   1  12
ATOM     12  C   UNL     1       6.469   6.140  17.475  0.00  0.00    +0.000 C 
ATOM     13  O   UNL     1       6.528   5.850  18.665  0.00  0.00    +0.000 OA
BRANCH  12  15
ATOM     14  C   UNL     1       7.845   8.009  17.811  0.00  0.00    +0.000 C 
ATOM     15  O   UNL     1       7.290   7.065  16.890  0.00  0.00    +0.000 OA
ENDBRANCH  12  15
ENDBRANCH   1  12
BRANCH   1  16
ATOM     16  C   UNL     1       6.133   4.577  15.538  0.00  0.00    +0.000 C 
ATOM     17  O   UNL     1       7.169   3.974  15.791  0.00  0.00    +0.000 OA
BRANCH  16  18
ATOM     18  O   UNL     1       5.386   4.362  14.413  0.00  0.00    +0.000 OA
ATOM     19  C   UNL     1       6.085   3.768  13.319  0.00  0.00    +0.000 C 
ENDBRANCH  16  18
ENDBRANCH   1  16
TORSDOF 6
ENDMDL
MODEL 3
REMARK VINA RESULT:      -6.4      1.175      1.467
REMARK  Name = 
REMARK  9 active torsions:
REMARK  status: ('A' for Active; 'I' for Inactive)
REMARK    1  A    between atoms: C_1  and  O_2
REMARK    2  A    between atoms: O_2  and  C_3
REMARK    3  A    between atoms: C_3  and  C_5
REMARK    4  A    between atoms: C_5  and  C_6
REMARK    5  A    between atoms: C_5  and  C_7
REMARK    6  A    between atoms: C_5  and  C_11
REMARK    7  A    between atoms: C_7  and  O_9
REMARK    8  A    between atoms: O_9  and  C_10
REMARK    9  A    between atoms: C_14  and  N_15
REMARK                            x       y       z     vdW  Elec       q    Type
REMARK                         _______ _______ _______ _____ _____    ______ ____
ROOT
ATOM      1  C   UNL     1       5.714   5.772  16.512  0.00  0.00    +0.000 C 
ATOM      2  C   UNL     1       5.134   6.779  15.490  0.00  0.00    +0.000 C 
ENDROOT
BRANCH   1   3
ATOM      3  C   UNL     1       4.603   5.109  17.342  0.00  0.00    +0.000 A 
ATOM      4  C   UNL     1       3.415   5.794  17.635  0.00  0.00    +0.000 A 
ATOM      5  C   UNL     1       2.414   5.157  18.371  0.00  0.00    +0.000 A 
ATOM      6  C   UNL     1       2.631   3.851  18.809  0.00  0.00    +0.000 A 
ATOM      7  C   UNL     1       3.830   3.235  18.501  0.00  0.00    +0.000 A 
ATOM      8  N   UNL     1       4.811   3.839  17.785  0.00  0.00    +0.000 NA
BRANCH   6   9
ATOM      9  N   UNL     1       1.624   3.137  19.577  0.00  0.00    +0.000 N 
ATOM     10  O   UNL     1       1.635   1.898  19.530  0.00  0.00    +0.000 OA
ATOM     11  O   UNL     1       0.812   3.809  20.228  0.00  0.00    +0.000 OA
ENDBRANCH   6   9
ENDBRANCH   1   3
BRANCH   1  12
ATOM     12  C   UNL     1       6.644   6.577  17.421  0.00  0.00    +0.000 C 
ATOM     13  O   UNL     1       7.362   7.504  17.060  0.00  0.00    +0.000 OA
BRANCH  12  15
ATOM     14  C   UNL     1       7.918   5.800  19.230  0.00  0.00    +0.000 C 
ATOM     15  O   UNL     1       6.623   6.106  18.705  0.00  0.00    +0.000 OA
ENDBRANCH  12  15
ENDBRANCH   1  12
BRANCH   1  16
ATOM     16  C   UNL     1       6.488   4.677  15.787  0.00  0.00    +0.000 C 
ATOM     17  O   UNL     1       7.643   4.354  16.041  0.00  0.00    +0.000 OA
BRANCH  16  18
ATOM     18  O   UNL     1       5.703   4.026  14.876  0.00  0.00    +0.000 OA
ATOM     19  C   UNL     1       6.280   3.857  13.581  0.00  0.00    +0.000 C 
ENDBRANCH  16  18
ENDBRANCH   1  16
TORSDOF 6
ENDMDL
MODEL 4
REMARK VINA RESULT:      -6.4      1.173      1.694
REMARK  Name = 
REMARK  9 active torsions:
REMARK  status: ('A' for Active; 'I' for Inactive)
REMARK    1  A    between atoms: C_1  and  O_2
REMARK    2  A    between atoms: O_2  and  C_3
REMARK    3  A    between atoms: C_3  and  C_5
REMARK    4  A    between atoms: C_5  and  C_6
REMARK    5  A    between atoms: C_5  and  C_7
REMARK    6  A    between atoms: C_5  and  C_11
REMARK    7  A    between atoms: C_7  and  O_9
REMARK    8  A    between atoms: O_9  and  C_10
REMARK    9  A    between atoms: C_14  and  N_15
REMARK                            x       y       z     vdW  Elec       q    Type
REMARK                         _______ _______ _______ _____ _____    ______ ____
ROOT
ATOM      1  C   UNL     1       6.125   5.264  17.054  0.00  0.00    +0.000 C 
ATOM      2  C   UNL     1       5.950   6.789  16.856  0.00  0.00    +0.000 C 
ENDROOT
BRANCH   1   3
ATOM      3  C   UNL     1       4.970   4.666  17.874  0.00  0.00    +0.000 A 
ATOM      4  C   UNL     1       3.640   5.028  17.617  0.00  0.00    +0.000 A 
ATOM      5  C   UNL     1       2.611   4.451  18.363  0.00  0.00    +0.000 A 
ATOM      6  C   UNL     1       2.938   3.532  19.359  0.00  0.00    +0.000 A 
ATOM      7  C   UNL     1       4.269   3.228  19.575  0.00  0.00    +0.000 A 
ATOM      8  N   UNL     1       5.280   3.777  18.857  0.00  0.00    +0.000 NA
BRANCH   6   9
ATOM      9  N   UNL     1       1.908   2.897  20.166  0.00  0.00    +0.000 N 
ATOM     10  O   UNL     1       2.214   2.540  21.313  0.00  0.00    +0.000 OA
ATOM     11  O   UNL     1       0.788   2.747  19.658  0.00  0.00    +0.000 OA
ENDBRANCH   6   9
ENDBRANCH   1   3
BRANCH   1  12
ATOM     12  C   UNL     1       7.450   5.080  17.795  0.00  0.00    +0.000 C 
ATOM     13  O   UNL     1       8.222   4.138  17.646  0.00  0.00    +0.000 OA
BRANCH  12  15
ATOM     14  C   UNL     1       8.153   5.627  19.965  0.00  0.00    +0.000 C 
ATOM     15  O   UNL     1       7.663   6.083  18.701  0.00  0.00    +0.000 OA
ENDBRANCH  12  15
ENDBRANCH   1  12
BRANCH   1  16
ATOM     16  C   UNL     1       6.165   4.562  15.701  0.00  0.00    +0.000 C 
ATOM     17  O   UNL     1       5.867   3.388  15.516  0.00  0.00    +0.000 OA
BRANCH  16  18
ATOM     18  O   UNL     1       6.482   5.430  14.694  0.00  0.00    +0.000 OA
ATOM     19  C   UNL     1       7.256   4.877  13.629  0.00  0.00    +0.000 C 
ENDBRANCH  16  18
ENDBRANCH   1  16
TORSDOF 6
ENDMDL
MODEL 5
REMARK VINA RESULT:      -6.4      1.382      1.790
REMARK  Name = 
REMARK  9 active torsions:
REMARK  status: ('A' for Active; 'I' for Inactive)
REMARK    1  A    between atoms: C_1  and  O_2
REMARK    2  A    between atoms: O_2  and  C_3
REMARK    3  A    between atoms: C_3  and  C_5
REMARK    4  A    between atoms: C_5  and  C_6
REMARK    5  A    between atoms: C_5  and  C_7
REMARK    6  A    between atoms: C_5  and  C_11
REMARK    7  A    between atoms: C_7  and  O_9
REMARK    8  A    between atoms: O_9  and  C_10
REMARK    9  A    between atoms: C_14  and  N_15
REMARK                            x       y       z     vdW  Elec       q    Type
REMARK                         _______ _______ _______ _____ _____    ______ ____
ROOT
ATOM      1  C   UNL     1       5.454   5.688  16.428  0.00  0.00    +0.000 C 
ATOM      2  C   UNL     1       4.896   6.854  15.577  0.00  0.00    +0.000 C 
ENDROOT
BRANCH   1   3
ATOM      3  C   UNL     1       4.326   4.911  17.126  0.00  0.00    +0.000 A 
ATOM      4  C   UNL     1       4.379   3.515  17.248  0.00  0.00    +0.000 A 
ATOM      5  C   UNL     1       3.351   2.840  17.909  0.00  0.00    +0.000 A 
ATOM      6  C   UNL     1       2.285   3.577  18.422  0.00  0.00    +0.000 A 
ATOM      7  C   UNL     1       2.282   4.950  18.256  0.00  0.00    +0.000 A 
ATOM      8  N   UNL     1       3.275   5.621  17.620  0.00  0.00    +0.000 NA
BRANCH   6   9
ATOM      9  N   UNL     1       1.187   2.928  19.121  0.00  0.00    +0.000 N 
ATOM     10  O   UNL     1       1.126   3.067  20.351  0.00  0.00    +0.000 OA
ATOM     11  O   UNL     1       0.382   2.271  18.446  0.00  0.00    +0.000 OA
ENDBRANCH   6   9
ENDBRANCH   1   3
BRANCH   1  12
ATOM     12  C   UNL     1       6.380   6.323  17.466  0.00  0.00    +0.000 C 
ATOM     13  O   UNL     1       6.534   5.928  18.616  0.00  0.00    +0.000 OA
BRANCH  12  15
ATOM     14  C   UNL     1       7.919   8.043  17.884  0.00  0.00    +0.000 C 
ATOM     15  O   UNL     1       7.000   7.438  16.970  0.00  0.00    +0.000 OA
ENDBRANCH  12  15
ENDBRANCH   1  12
BRANCH   1  16
ATOM     16  C   UNL     1       6.226   4.717  15.542  0.00  0.00    +0.000 C 
ATOM     17  O   UNL     1       7.353   4.300  15.782  0.00  0.00    +0.000 OA
BRANCH  16  18
ATOM     18  O   UNL     1       5.468   4.287  14.488  0.00  0.00    +0.000 OA
ATOM     19  C   UNL     1       6.202   3.797  13.366  0.00  0.00    +0.000 C 
ENDBRANCH  16  18
ENDBRANCH   1  16
TORSDOF 6
ENDMDL
MODEL 6
REMARK VINA RESULT:      -6.4      0.850      1.357
REMARK  Name = 
REMARK  9 active torsions:
REMARK  status: ('A' for Active; 'I' for Inactive)
REMARK    1  A    between atoms: C_1  and  O_2
REMARK    2  A    between atoms: O_2  and  C_3
REMARK    3  A    between atoms: C_3  and  C_5
REMARK    4  A    between atoms: C_5  and  C_6
REMARK    5  A    between atoms: C_5  and  C_7
REMARK    6  A    between atoms: C_5  and  C_11
REMARK    7  A    between atoms: C_7  and  O_9
REMARK    8  A    between atoms: O_9  and  C_10
REMARK    9  A    between atoms: C_14  and  N_15
REMARK                            x       y       z     vdW  Elec       q    Type
REMARK                         _______ _______ _______ _____ _____    ______ ____
ROOT
ATOM      1  C   UNL     1       5.958   5.786  16.854  0.00  0.00    +0.000 C 
ATOM      2  C   UNL     1       5.283   6.773  15.872  0.00  0.00    +0.000 C 
ENDROOT
BRANCH   1   3
ATOM      3  C   UNL     1       4.936   5.165  17.819  0.00  0.00    +0.000 A 
ATOM      4  C   UNL     1       5.281   4.080  18.638  0.00  0.00    +0.000 A 
ATOM      5  C   UNL     1       4.338   3.552  19.520  0.00  0.00    +0.000 A 
ATOM      6  C   UNL     1       3.063   4.115  19.555  0.00  0.00    +0.000 A 
ATOM      7  C   UNL     1       2.778   5.173  18.712  0.00  0.00    +0.000 A 
ATOM      8  N   UNL     1       3.684   5.699  17.851  0.00  0.00    +0.000 NA
BRANCH   6   9
ATOM      9  N   UNL     1       2.039   3.608  20.456  0.00  0.00    +0.000 N 
ATOM     10  O   UNL     1       2.291   2.571  21.087  0.00  0.00    +0.000 OA
ATOM     11  O   UNL     1       0.976   4.239  20.533  0.00  0.00    +0.000 OA
ENDBRANCH   6   9
ENDBRANCH   1   3
BRANCH   1  12
ATOM     12  C   UNL     1       6.993   6.601  17.633  0.00  0.00    +0.000 C 
ATOM     13  O   UNL     1       7.424   6.322  18.746  0.00  0.00    +0.000 OA
BRANCH  12  15
ATOM     14  C   UNL     1       7.914   8.752  17.784  0.00  0.00    +0.000 C 
ATOM     15  O   UNL     1       7.358   7.730  16.952  0.00  0.00    +0.000 OA
ENDBRANCH  12  15
ENDBRANCH   1  12
BRANCH   1  16
ATOM     16  C   UNL     1       6.634   4.659  16.082  0.00  0.00    +0.000 C 
ATOM     17  O   UNL     1       7.799   4.310  16.234  0.00  0.00    +0.000 OA
BRANCH  16  18
ATOM     18  O   UNL     1       5.751   4.014  15.260  0.00  0.00    +0.000 OA
ATOM     19  C   UNL     1       6.175   3.863  13.905  0.00  0.00    +0.000 C 
ENDBRANCH  16  18
ENDBRANCH   1  16
TORSDOF 6
ENDMDL
MODEL 7
REMARK VINA RESULT:      -6.3      1.190      3.280
REMARK  Name = 
REMARK  9 active torsions:
REMARK  status: ('A' for Active; 'I' for Inactive)
REMARK    1  A    between atoms: C_1  and  O_2
REMARK    2  A    between atoms: O_2  and  C_3
REMARK    3  A    between atoms: C_3  and  C_5
REMARK    4  A    between atoms: C_5  and  C_6
REMARK    5  A    between atoms: C_5  and  C_7
REMARK    6  A    between atoms: C_5  and  C_11
REMARK    7  A    between atoms: C_7  and  O_9
REMARK    8  A    between atoms: O_9  and  C_10
REMARK    9  A    between atoms: C_14  and  N_15
REMARK                            x       y       z     vdW  Elec       q    Type
REMARK                         _______ _______ _______ _____ _____    ______ ____
ROOT
ATOM      1  C   UNL     1       6.279   5.195  17.035  0.00  0.00    +0.000 C 
ATOM      2  C   UNL     1       7.612   4.488  17.377  0.00  0.00    +0.000 C 
ENDROOT
BRANCH   1   3
ATOM      3  C   UNL     1       5.083   4.491  17.696  0.00  0.00    +0.000 A 
ATOM      4  C   UNL     1       3.835   4.435  17.058  0.00  0.00    +0.000 A 
ATOM      5  C   UNL     1       2.774   3.768  17.673  0.00  0.00    +0.000 A 
ATOM      6  C   UNL     1       2.982   3.183  18.920  0.00  0.00    +0.000 A 
ATOM      7  C   UNL     1       4.231   3.286  19.506  0.00  0.00    +0.000 A 
ATOM      8  N   UNL     1       5.273   3.927  18.920  0.00  0.00    +0.000 NA
BRANCH   6   9
ATOM      9  N   UNL     1       1.914   2.474  19.608  0.00  0.00    +0.000 N 
ATOM     10  O   UNL     1       1.974   2.403  20.844  0.00  0.00    +0.000 OA
ATOM     11  O   UNL     1       1.013   1.979  18.917  0.00  0.00    +0.000 OA
ENDBRANCH   6   9
ENDBRANCH   1   3
BRANCH   1  12
ATOM     12  C   UNL     1       6.148   5.144  15.512  0.00  0.00    +0.000 C 
ATOM     13  O   UNL     1       5.785   6.074  14.800  0.00  0.00    +0.000 OA
BRANCH  12  15
ATOM     14  C   UNL     1       6.238   3.769  13.615  0.00  0.00    +0.000 C 
ATOM     15  O   UNL     1       6.442   3.900  15.024  0.00  0.00    +0.000 OA
ENDBRANCH  12  15
ENDBRANCH   1  12
BRANCH   1  16
ATOM     16  C   UNL     1       6.313   6.640  17.523  0.00  0.00    +0.000 C 
ATOM     17  O   UNL     1       5.329   7.360  17.637  0.00  0.00    +0.000 OA
BRANCH  16  18
ATOM     18  O   UNL     1       7.571   7.008  17.912  0.00  0.00    +0.000 OA
ATOM     19  C   UNL     1       7.898   8.383  17.705  0.00  0.00    +0.000 C 
ENDBRANCH  16  18
ENDBRANCH   1  16
TORSDOF 6
ENDMDL
MODEL 8
REMARK VINA RESULT:      -6.3      1.438      1.875
REMARK  Name = 
REMARK  9 active torsions:
REMARK  status: ('A' for Active; 'I' for Inactive)
REMARK    1  A    between atoms: C_1  and  O_2
REMARK    2  A    between atoms: O_2  and  C_3
REMARK    3  A    between atoms: C_3  and  C_5
REMARK    4  A    between atoms: C_5  and  C_6
REMARK    5  A    between atoms: C_5  and  C_7
REMARK    6  A    between atoms: C_5  and  C_11
REMARK    7  A    between atoms: C_7  and  O_9
REMARK    8  A    between atoms: O_9  and  C_10
REMARK    9  A    between atoms: C_14  and  N_15
REMARK                            x       y       z     vdW  Elec       q    Type
REMARK                         _______ _______ _______ _____ _____    ______ ____
ROOT
ATOM      1  C   UNL     1       5.671   5.699  16.489  0.00  0.00    +0.000 C 
ATOM      2  C   UNL     1       5.153   6.720  15.447  0.00  0.00    +0.000 C 
ENDROOT
BRANCH   1   3
ATOM      3  C   UNL     1       4.513   5.020  17.236  0.00  0.00    +0.000 A 
ATOM      4  C   UNL     1       4.578   3.666  17.594  0.00  0.00    +0.000 A 
ATOM      5  C   UNL     1       3.520   3.084  18.293  0.00  0.00    +0.000 A 
ATOM      6  C   UNL     1       2.411   3.867  18.607  0.00  0.00    +0.000 A 
ATOM      7  C   UNL     1       2.398   5.193  18.212  0.00  0.00    +0.000 A 
ATOM      8  N   UNL     1       3.419   5.775  17.536  0.00  0.00    +0.000 NA
BRANCH   6   9
ATOM      9  N   UNL     1       1.279   3.315  19.335  0.00  0.00    +0.000 N 
ATOM     10  O   UNL     1       0.641   2.399  18.797  0.00  0.00    +0.000 OA
ATOM     11  O   UNL     1       1.018   3.797  20.446  0.00  0.00    +0.000 OA
ENDBRANCH   6   9
ENDBRANCH   1   3
BRANCH   1  12
ATOM     12  C   UNL     1       6.540   6.492  17.467  0.00  0.00    +0.000 C 
ATOM     13  O   UNL     1       7.207   7.481  17.183  0.00  0.00    +0.000 OA
BRANCH  12  15
ATOM     14  C   UNL     1       7.827   5.754  19.283  0.00  0.00    +0.000 C 
ATOM     15  O   UNL     1       6.526   5.934  18.716  0.00  0.00    +0.000 OA
ENDBRANCH  12  15
ENDBRANCH   1  12
BRANCH   1  16
ATOM     16  C   UNL     1       6.494   4.617  15.797  0.00  0.00    +0.000 C 
ATOM     17  O   UNL     1       7.644   4.319  16.095  0.00  0.00    +0.000 OA
BRANCH  16  18
ATOM     18  O   UNL     1       5.756   3.949  14.859  0.00  0.00    +0.000 OA
ATOM     19  C   UNL     1       6.342   3.873  13.559  0.00  0.00    +0.000 C 
ENDBRANCH  16  18
ENDBRANCH   1  16
TORSDOF 6
ENDMDL
MODEL 9
REMARK VINA RESULT:      -6.3      1.536      2.434
REMARK  Name = 
REMARK  9 active torsions:
REMARK  status: ('A' for Active; 'I' for Inactive)
REMARK    1  A    between atoms: C_1  and  O_2
REMARK    2  A    between atoms: O_2  and  C_3
REMARK    3  A    between atoms: C_3  and  C_5
REMARK    4  A    between atoms: C_5  and  C_6
REMARK    5  A    between atoms: C_5  and  C_7
REMARK    6  A    between atoms: C_5  and  C_11
REMARK    7  A    between atoms: C_7  and  O_9
REMARK    8  A    between atoms: O_9  and  C_10
REMARK    9  A    between atoms: C_14  and  N_15
REMARK                            x       y       z     vdW  Elec       q    Type
REMARK                         _______ _______ _______ _____ _____    ______ ____
ROOT
ATOM      1  C   UNL     1       5.779   4.863  16.676  0.00  0.00    +0.000 C 
ATOM      2  C   UNL     1       5.984   4.165  15.310  0.00  0.00    +0.000 C 
ENDROOT
BRANCH   1   3
ATOM      3  C   UNL     1       4.493   4.383  17.367  0.00  0.00    +0.000 A 
ATOM      4  C   UNL     1       3.443   5.272  17.638  0.00  0.00    +0.000 A 
ATOM      5  C   UNL     1       2.278   4.801  18.245  0.00  0.00    +0.000 A 
ATOM      6  C   UNL     1       2.194   3.451  18.580  0.00  0.00    +0.000 A 
ATOM      7  C   UNL     1       3.269   2.627  18.302  0.00  0.00    +0.000 A 
ATOM      8  N   UNL     1       4.407   3.068  17.709  0.00  0.00    +0.000 NA
BRANCH   6   9
ATOM      9  N   UNL     1       1.004   2.904  19.212  0.00  0.00    +0.000 N 
ATOM     10  O   UNL     1       0.216   2.265  18.500  0.00  0.00    +0.000 OA
ATOM     11  O   UNL     1       0.847   3.113  20.423  0.00  0.00    +0.000 OA
ENDBRANCH   6   9
ENDBRANCH   1   3
BRANCH   1  12
ATOM     12  C   UNL     1       5.694   6.361  16.381  0.00  0.00    +0.000 C 
ATOM     13  O   UNL     1       5.349   6.855  15.313  0.00  0.00    +0.000 OA
BRANCH  12  15
ATOM     14  C   UNL     1       7.244   7.925  17.187  0.00  0.00    +0.000 C 
ATOM     15  O   UNL     1       6.100   7.108  17.453  0.00  0.00    +0.000 OA
ENDBRANCH  12  15
ENDBRANCH   1  12
BRANCH   1  16
ATOM     16  C   UNL     1       6.957   4.564  17.598  0.00  0.00    +0.000 C 
ATOM     17  O   UNL     1       8.078   4.250  17.216  0.00  0.00    +0.000 OA
BRANCH  16  18
ATOM     18  O   UNL     1       6.637   4.783  18.909  0.00  0.00    +0.000 OA
ATOM     19  C   UNL     1       7.676   5.353  19.705  0.00  0.00    +0.000 C 
ENDBRANCH  16  18
ENDBRANCH   1  16
TORSDOF 6
ENDMDL
