MODEL 1
REMARK VINA RESULT:      -6.4      0.000      0.000
REMARK  Name = 
REMARK  7 active torsions:
REMARK  status: ('A' for Active; 'I' for Inactive)
REMARK    1  A    between atoms: C_1  and  C_2
REMARK    2  A    between atoms: C_2  and  C_3
REMARK    3  A    between atoms: C_2  and  N_9
REMARK    4  A    between atoms: C_3  and  C_4
REMARK    5  A    between atoms: C_10  and  C_12
REMARK    6  A    between atoms: C_12  and  S_13
REMARK    7  A    between atoms: S_13  and  C_14
REMARK                            x       y       z     vdW  Elec       q    Type
REMARK                         _______ _______ _______ _____ _____    ______ ____
ROOT
ATOM      1  N   UNL     1       4.314   5.505  18.219  0.00  0.00    +0.000 N 
ATOM      2  C   UNL     1       5.124   6.356  17.496  0.00  0.00    +0.000 C 
ATOM      3  O   UNL     1       4.691   7.101  16.619  0.00  0.00    +0.000 OA
ATOM      4  H   UNL     1       4.731   4.894  18.911  0.00  0.00    +0.000 HD
ENDROOT
BRANCH   1   6
ATOM      5  C   UNL     1       2.525   4.042  17.413  0.00  0.00    +0.000 C 
ATOM      6  C   UNL     1       2.870   5.417  17.991  0.00  0.00    +0.000 C 
BRANCH   6   7
ATOM      7  C   UNL     1       2.102   5.722  19.291  0.00  0.00    +0.000 C 
BRANCH   7   8
ATOM      8  C   UNL     1       1.917   4.518  20.149  0.00  0.00    +0.000 A 
ATOM      9  C   UNL     1       0.853   3.677  20.389  0.00  0.00    +0.000 A 
ATOM     10  C   UNL     1       1.321   2.689  21.290  0.00  0.00    +0.000 A 
ATOM     11  C   UNL     1       2.636   2.998  21.548  0.00  0.00    +0.000 A 
ATOM     12  O   UNL     1       3.002   4.113  20.867  0.00  0.00    +0.000 OA
ENDBRANCH   7   8
ENDBRANCH   6   7
ENDBRANCH   1   6
BRANCH   2  13
ATOM     13  C   UNL     1       6.595   6.317  17.871  0.00  0.00    +0.000 C 
BRANCH  13  14
ATOM     14  S   UNL     1       7.298   4.668  17.577  0.00  0.00    +0.000 S 
BRANCH  14  15
ATOM     15  C   UNL     1       6.968   4.478  15.903  0.00  0.00    +0.000 A 
ATOM     16  N   UNL     1       6.194   3.604  15.309  0.00  0.00    +0.000 NA
ATOM     17  N   UNL     1       6.287   3.833  13.952  0.00  0.00    +0.000 NA
ATOM     18  C   UNL     1       7.115   4.840  13.773  0.00  0.00    +0.000 A 
ATOM     19  N   UNL     1       7.561   5.281  14.981  0.00  0.00    +0.000 N 
ATOM     20  H   UNL     1       8.217   6.024  15.170  0.00  0.00    +0.000 HD
ENDBRANCH  14  15
ENDBRANCH  13  14
ENDBRANCH   2  13
TORSDOF 6
ENDMDL
MODEL 2
REMARK VINA RESULT:      -6.3      1.366      1.701
REMARK  Name = 
REMARK  7 active torsions:
REMARK  status: ('A' for Active; 'I' for Inactive)
REMARK    1  A    between atoms: C_1  and  C_2
REMARK    2  A    between atoms: C_2  and  C_3
REMARK    3  A    between atoms: C_2  and  N_9
REMARK    4  A    between atoms: C_3  and  C_4
REMARK    5  A    between atoms: C_10  and  C_12
REMARK    6  A    between atoms: C_12  and  S_13
REMARK    7  A    between atoms: S_13  and  C_14
REMARK                            x       y       z     vdW  Elec       q    Type
REMARK                         _______ _______ _______ _____ _____    ______ ____
ROOT
ATOM      1  N   UNL     1       3.773   5.421  19.024  0.00  0.00    +0.000 N 
ATOM      2  C   UNL     1       4.991   5.577  18.397  0.00  0.00    +0.000 C 
ATOM      3  O   UNL     1       5.444   6.678  18.088  0.00  0.00    +0.000 OA
ATOM      4  H   UNL     1       3.438   4.487  19.230  0.00  0.00    +0.000 HD
ENDROOT
BRANCH   1   6
ATOM      5  C   UNL     1       2.218   7.071  18.101  0.00  0.00    +0.000 C 
ATOM      6  C   UNL     1       2.916   6.560  19.364  0.00  0.00    +0.000 C 
BRANCH   6   7
ATOM      7  C   UNL     1       1.921   6.169  20.474  0.00  0.00    +0.000 C 
BRANCH   7   8
ATOM      8  C   UNL     1       1.739   4.695  20.593  0.00  0.00    +0.000 A 
ATOM      9  C   UNL     1       2.061   3.774  21.565  0.00  0.00    +0.000 A 
ATOM     10  C   UNL     1       1.594   2.521  21.097  0.00  0.00    +0.000 A 
ATOM     11  C   UNL     1       1.027   2.759  19.867  0.00  0.00    +0.000 A 
ATOM     12  O   UNL     1       1.121   4.075  19.549  0.00  0.00    +0.000 OA
ENDBRANCH   7   8
ENDBRANCH   6   7
ENDBRANCH   1   6
BRANCH   2  13
ATOM     13  C   UNL     1       5.745   4.287  18.126  0.00  0.00    +0.000 C 
BRANCH  13  14
ATOM     14  S   UNL     1       7.424   4.630  17.522  0.00  0.00    +0.000 S 
BRANCH  14  15
ATOM     15  C   UNL     1       7.152   4.644  15.827  0.00  0.00    +0.000 A 
ATOM     16  N   UNL     1       7.687   5.415  14.912  0.00  0.00    +0.000 NA
ATOM     17  N   UNL     1       7.121   5.068  13.704  0.00  0.00    +0.000 NA
ATOM     18  C   UNL     1       6.262   4.096  13.930  0.00  0.00    +0.000 A 
ATOM     19  N   UNL     1       6.257   3.794  15.256  0.00  0.00    +0.000 N 
ATOM     20  H   UNL     1       5.695   3.109  15.738  0.00  0.00    +0.000 HD
ENDBRANCH  14  15
ENDBRANCH  13  14
ENDBRANCH   2  13
TORSDOF 6
ENDMDL
MODEL 3
REMARK VINA RESULT:      -6.3      1.535      2.018
REMARK  Name = 
REMARK  7 active torsions:
REMARK  status: ('A' for Active; 'I' for Inactive)
REMARK    1  A    between atoms: C_1  and  C_2
REMARK    2  A    between atoms: C_2  and  C_3
REMARK    3  A    between atoms: C_2  and  N_9
REMARK    4  A    between atoms: C_3  and  C_4
REMARK    5  A    between atoms: C_10  and  C_12
REMARK    6  A    between atoms: C_12  and  S_13
REMARK    7  A    between atoms: S_13  and  C_14
REMARK                            x       y       z     vdW  Elec       q    Type
REMARK                         _______ _______ _______ _____ _____    ______ ____
ROOT
ATOM      1  N   UNL     1       4.336   5.408  17.726  0.00  0.00    +0.000 N 
ATOM      2  C   UNL     1       5.600   5.192  18.231  0.00  0.00    +0.000 C 
ATOM      3  O   UNL     1       5.897   5.424  19.403  0.00  0.00    +0.000 OA
ATOM      4  H   UNL     1       4.157   5.224  16.745  0.00  0.00    +0.000 HD
ENDROOT
BRANCH   1   6
ATOM      5  C   UNL     1       2.847   7.327  18.028  0.00  0.00    +0.000 C 
ATOM      6  C   UNL     1       3.246   5.943  18.545  0.00  0.00    +0.000 C 
BRANCH   6   7
ATOM      7  C   UNL     1       2.062   4.957  18.570  0.00  0.00    +0.000 C 
BRANCH   7   8
ATOM      8  C   UNL     1       2.111   4.024  19.731  0.00  0.00    +0.000 A 
ATOM      9  C   UNL     1       3.126   3.324  20.345  0.00  0.00    +0.000 A 
ATOM     10  C   UNL     1       2.533   2.628  21.426  0.00  0.00    +0.000 A 
ATOM     11  C   UNL     1       1.194   2.941  21.395  0.00  0.00    +0.000 A 
ATOM     12  O   UNL     1       0.928   3.779  20.362  0.00  0.00    +0.000 OA
ENDBRANCH   7   8
ENDBRANCH   6   7
ENDBRANCH   1   6
BRANCH   2  13
ATOM     13  C   UNL     1       6.603   4.630  17.239  0.00  0.00    +0.000 C 
BRANCH  13  14
ATOM     14  S   UNL     1       5.762   3.936  15.786  0.00  0.00    +0.000 S 
BRANCH  14  15
ATOM     15  C   UNL     1       6.750   4.554  14.525  0.00  0.00    +0.000 A 
ATOM     16  N   UNL     1       7.670   5.485  14.579  0.00  0.00    +0.000 NA
ATOM     17  N   UNL     1       8.156   5.653  13.300  0.00  0.00    +0.000 NA
ATOM     18  C   UNL     1       7.513   4.814  12.515  0.00  0.00    +0.000 A 
ATOM     19  N   UNL     1       6.622   4.096  13.251  0.00  0.00    +0.000 N 
ATOM     20  H   UNL     1       5.973   3.392  12.933  0.00  0.00    +0.000 HD
ENDBRANCH  14  15
ENDBRANCH  13  14
ENDBRANCH   2  13
TORSDOF 6
ENDMDL
MODEL 4
REMARK VINA RESULT:      -6.3      1.430      1.851
REMARK  Name = 
REMARK  7 active torsions:
REMARK  status: ('A' for Active; 'I' for Inactive)
REMARK    1  A    between atoms: C_1  and  C_2
REMARK    2  A    between atoms: C_2  and  C_3
REMARK    3  A    between atoms: C_2  and  N_9
REMARK    4  A    between atoms: C_3  and  C_4
REMARK    5  A    between atoms: C_10  and  C_12
REMARK    6  A    between atoms: C_12  and  S_13
REMARK    7  A    between atoms: S_13  and  C_14
REMARK                            x       y       z     vdW  Elec       q    Type
REMARK                         _______ _______ _______ _____ _____    ______ ____
ROOT
ATOM      1  N   UNL     1       4.254   6.668  17.964  0.00  0.00    +0.000 N 
ATOM      2  C   UNL     1       5.281   5.949  18.538  0.00  0.00    +0.000 C 
ATOM      3  O   UNL     1       5.101   5.146  19.453  0.00  0.00    +0.000 OA
ATOM      4  H   UNL     1       4.467   7.335  17.231  0.00  0.00    +0.000 HD
ENDROOT
BRANCH   1   6
ATOM      5  C   UNL     1       2.131   7.864  18.194  0.00  0.00    +0.000 C 
ATOM      6  C   UNL     1       2.864   6.537  18.406  0.00  0.00    +0.000 C 
BRANCH   6   7
ATOM      7  C   UNL     1       2.180   5.361  17.682  0.00  0.00    +0.000 C 
BRANCH   7   8
ATOM      8  C   UNL     1       1.689   4.312  18.619  0.00  0.00    +0.000 A 
ATOM      9  C   UNL     1       1.674   4.196  19.991  0.00  0.00    +0.000 A 
ATOM     10  C   UNL     1       1.039   2.963  20.280  0.00  0.00    +0.000 A 
ATOM     11  C   UNL     1       0.716   2.405  19.065  0.00  0.00    +0.000 A 
ATOM     12  O   UNL     1       1.118   3.213  18.052  0.00  0.00    +0.000 OA
ENDBRANCH   7   8
ENDBRANCH   6   7
ENDBRANCH   1   6
BRANCH   2  13
ATOM     13  C   UNL     1       6.657   6.209  17.950  0.00  0.00    +0.000 C 
BRANCH  13  14
ATOM     14  S   UNL     1       7.484   4.651  17.516  0.00  0.00    +0.000 S 
BRANCH  14  15
ATOM     15  C   UNL     1       6.977   4.468  15.886  0.00  0.00    +0.000 A 
ATOM     16  N   UNL     1       6.076   3.657  15.388  0.00  0.00    +0.000 NA
ATOM     17  N   UNL     1       6.055   3.859  14.025  0.00  0.00    +0.000 NA
ATOM     18  C   UNL     1       6.945   4.787  13.744  0.00  0.00    +0.000 A 
ATOM     19  N   UNL     1       7.544   5.204  14.893  0.00  0.00    +0.000 N 
ATOM     20  H   UNL     1       8.276   5.890  15.002  0.00  0.00    +0.000 HD
ENDBRANCH  14  15
ENDBRANCH  13  14
ENDBRANCH   2  13
TORSDOF 6
ENDMDL
MODEL 5
REMARK VINA RESULT:      -6.3      2.837      6.465
REMARK  Name = 
REMARK  7 active torsions:
REMARK  status: ('A' for Active; 'I' for Inactive)
REMARK    1  A    between atoms: C_1  and  C_2
REMARK    2  A    between atoms: C_2  and  C_3
REMARK    3  A    between atoms: C_2  and  N_9
REMARK    4  A    between atoms: C_3  and  C_4
REMARK    5  A    between atoms: C_10  and  C_12
REMARK    6  A    between atoms: C_12  and  S_13
REMARK    7  A    between atoms: S_13  and  C_14
REMARK                            x       y       z     vdW  Elec       q    Type
REMARK                         _______ _______ _______ _____ _____    ______ ____
ROOT
ATOM      1  N   UNL     1       4.737   4.608  16.112  0.00  0.00    +0.000 N 
ATOM      2  C   UNL     1       4.063   3.868  17.059  0.00  0.00    +0.000 C 
ATOM      3  O   UNL     1       4.330   2.691  17.298  0.00  0.00    +0.000 OA
ATOM      4  H   UNL     1       4.455   5.566  15.939  0.00  0.00    +0.000 HD
ENDROOT
BRANCH   1   6
ATOM      5  C   UNL     1       5.331   3.810  13.875  0.00  0.00    +0.000 C 
ATOM      6  C   UNL     1       5.823   4.045  15.305  0.00  0.00    +0.000 C 
BRANCH   6   7
ATOM      7  C   UNL     1       7.062   4.960  15.362  0.00  0.00    +0.000 C 
BRANCH   7   8
ATOM      8  C   UNL     1       7.349   5.460  16.735  0.00  0.00    +0.000 A 
ATOM      9  C   UNL     1       7.449   4.850  17.967  0.00  0.00    +0.000 A 
ATOM     10  C   UNL     1       7.776   5.872  18.891  0.00  0.00    +0.000 A 
ATOM     11  C   UNL     1       7.844   7.038  18.166  0.00  0.00    +0.000 A 
ATOM     12  O   UNL     1       7.575   6.798  16.858  0.00  0.00    +0.000 OA
ENDBRANCH   7   8
ENDBRANCH   6   7
ENDBRANCH   1   6
BRANCH   2  13
ATOM     13  C   UNL     1       2.970   4.616  17.802  0.00  0.00    +0.000 C 
BRANCH  13  14
ATOM     14  S   UNL     1       1.566   3.522  18.167  0.00  0.00    +0.000 S 
BRANCH  14  15
ATOM     15  C   UNL     1       1.866   3.164  19.819  0.00  0.00    +0.000 A 
ATOM     16  N   UNL     1       3.012   2.994  20.431  0.00  0.00    +0.000 NA
ATOM     17  N   UNL     1       2.731   2.690  21.746  0.00  0.00    +0.000 NA
ATOM     18  C   UNL     1       1.422   2.687  21.884  0.00  0.00    +0.000 A 
ATOM     19  N   UNL     1       0.839   2.990  20.693  0.00  0.00    +0.000 N 
ATOM     20  H   UNL     1      -0.145   3.047  20.476  0.00  0.00    +0.000 HD
ENDBRANCH  14  15
ENDBRANCH  13  14
ENDBRANCH   2  13
TORSDOF 6
ENDMDL
MODEL 6
REMARK VINA RESULT:      -6.3      2.628      6.484
REMARK  Name = 
REMARK  7 active torsions:
REMARK  status: ('A' for Active; 'I' for Inactive)
REMARK    1  A    between atoms: C_1  and  C_2
REMARK    2  A    between atoms: C_2  and  C_3
REMARK    3  A    between atoms: C_2  and  N_9
REMARK    4  A    between atoms: C_3  and  C_4
REMARK    5  A    between atoms: C_10  and  C_12
REMARK    6  A    between atoms: C_12  and  S_13
REMARK    7  A    between atoms: S_13  and  C_14
REMARK                            x       y       z     vdW  Elec       q    Type
REMARK                         _______ _______ _______ _____ _____    ______ ____
ROOT
ATOM      1  N   UNL     1       5.623   5.806  18.460  0.00  0.00    +0.000 N 
ATOM      2  C   UNL     1       4.474   6.316  17.893  0.00  0.00    +0.000 C 
ATOM      3  O   UNL     1       4.471   6.908  16.814  0.00  0.00    +0.000 OA
ATOM      4  H   UNL     1       5.568   5.352  19.365  0.00  0.00    +0.000 HD
ENDROOT
BRANCH   1   6
ATOM      5  C   UNL     1       7.945   6.481  18.838  0.00  0.00    +0.000 C 
ATOM      6  C   UNL     1       6.936   5.938  17.824  0.00  0.00    +0.000 C 
BRANCH   6   7
ATOM      7  C   UNL     1       7.373   4.591  17.216  0.00  0.00    +0.000 C 
BRANCH   7   8
ATOM      8  C   UNL     1       6.954   4.435  15.795  0.00  0.00    +0.000 A 
ATOM      9  C   UNL     1       5.979   3.690  15.169  0.00  0.00    +0.000 A 
ATOM     10  C   UNL     1       6.065   4.000  13.789  0.00  0.00    +0.000 A 
ATOM     11  C   UNL     1       7.092   4.907  13.664  0.00  0.00    +0.000 A 
ATOM     12  O   UNL     1       7.644   5.167  14.876  0.00  0.00    +0.000 OA
ENDBRANCH   7   8
ENDBRANCH   6   7
ENDBRANCH   1   6
BRANCH   2  13
ATOM     13  C   UNL     1       3.204   6.084  18.691  0.00  0.00    +0.000 C 
BRANCH  13  14
ATOM     14  S   UNL     1       2.474   4.467  18.296  0.00  0.00    +0.000 S 
BRANCH  14  15
ATOM     15  C   UNL     1       2.395   3.766  19.861  0.00  0.00    +0.000 A 
ATOM     16  N   UNL     1       1.701   4.151  20.904  0.00  0.00    +0.000 NA
ATOM     17  N   UNL     1       2.001   3.287  21.935  0.00  0.00    +0.000 NA
ATOM     18  C   UNL     1       2.868   2.408  21.480  0.00  0.00    +0.000 A 
ATOM     19  N   UNL     1       3.137   2.670  20.172  0.00  0.00    +0.000 N 
ATOM     20  H   UNL     1       3.773   2.186  19.556  0.00  0.00    +0.000 HD
ENDBRANCH  14  15
ENDBRANCH  13  14
ENDBRANCH   2  13
TORSDOF 6
ENDMDL
MODEL 7
REMARK VINA RESULT:      -6.2      2.690      6.072
REMARK  Name = 
REMARK  7 active torsions:
REMARK  status: ('A' for Active; 'I' for Inactive)
REMARK    1  A    between atoms: C_1  and  C_2
REMARK    2  A    between atoms: C_2  and  C_3
REMARK    3  A    between atoms: C_2  and  N_9
REMARK    4  A    between atoms: C_3  and  C_4
REMARK    5  A    between atoms: C_10  and  C_12
REMARK    6  A    between atoms: C_12  and  S_13
REMARK    7  A    between atoms: S_13  and  C_14
REMARK                            x       y       z     vdW  Elec       q    Type
REMARK                         _______ _______ _______ _____ _____    ______ ____
ROOT
ATOM      1  N   UNL     1       3.288   4.678  17.769  0.00  0.00    +0.000 N 
ATOM      2  C   UNL     1       2.227   3.826  17.543  0.00  0.00    +0.000 C 
ATOM      3  O   UNL     1       1.076   4.226  17.376  0.00  0.00    +0.000 OA
ATOM      4  H   UNL     1       4.210   4.288  17.927  0.00  0.00    +0.000 HD
ENDROOT
BRANCH   1   6
ATOM      5  C   UNL     1       2.813   6.546  19.278  0.00  0.00    +0.000 C 
ATOM      6  C   UNL     1       3.123   6.132  17.837  0.00  0.00    +0.000 C 
BRANCH   6   7
ATOM      7  C   UNL     1       4.371   6.839  17.273  0.00  0.00    +0.000 C 
BRANCH   7   8
ATOM      8  C   UNL     1       5.321   5.898  16.617  0.00  0.00    +0.000 A 
ATOM      9  C   UNL     1       5.555   5.544  15.306  0.00  0.00    +0.000 A 
ATOM     10  C   UNL     1       6.621   4.612  15.329  0.00  0.00    +0.000 A 
ATOM     11  C   UNL     1       6.961   4.451  16.652  0.00  0.00    +0.000 A 
ATOM     12  O   UNL     1       6.169   5.220  17.441  0.00  0.00    +0.000 OA
ENDBRANCH   7   8
ENDBRANCH   6   7
ENDBRANCH   1   6
BRANCH   2  13
ATOM     13  C   UNL     1       2.584   2.351  17.501  0.00  0.00    +0.000 C 
BRANCH  13  14
ATOM     14  S   UNL     1       3.806   1.940  18.782  0.00  0.00    +0.000 S 
BRANCH  14  15
ATOM     15  C   UNL     1       2.933   2.367  20.197  0.00  0.00    +0.000 A 
ATOM     16  N   UNL     1       3.382   2.579  21.410  0.00  0.00    +0.000 NA
ATOM     17  N   UNL     1       2.291   2.857  22.206  0.00  0.00    +0.000 NA
ATOM     18  C   UNL     1       1.218   2.805  21.445  0.00  0.00    +0.000 A 
ATOM     19  N   UNL     1       1.581   2.506  20.168  0.00  0.00    +0.000 N 
ATOM     20  H   UNL     1       0.986   2.379  19.363  0.00  0.00    +0.000 HD
ENDBRANCH  14  15
ENDBRANCH  13  14
ENDBRANCH   2  13
TORSDOF 6
ENDMDL
MODEL 8
REMARK VINA RESULT:      -6.2      0.828      1.280
REMARK  Name = 
REMARK  7 active torsions:
REMARK  status: ('A' for Active; 'I' for Inactive)
REMARK    1  A    between atoms: C_1  and  C_2
REMARK    2  A    between atoms: C_2  and  C_3
REMARK    3  A    between atoms: C_2  and  N_9
REMARK    4  A    between atoms: C_3  and  C_4
REMARK    5  A    between atoms: C_10  and  C_12
REMARK    6  A    between atoms: C_12  and  S_13
REMARK    7  A    between atoms: S_13  and  C_14
REMARK                            x       y       z     vdW  Elec       q    Type
REMARK                         _______ _______ _______ _____ _____    ______ ____
ROOT
ATOM      1  N   UNL     1       4.346   5.002  17.976  0.00  0.00    +0.000 N 
ATOM      2  C   UNL     1       5.022   6.123  17.541  0.00  0.00    +0.000 C 
ATOM      3  O   UNL     1       4.482   7.011  16.882  0.00  0.00    +0.000 OA
ATOM      4  H   UNL     1       4.850   4.290  18.493  0.00  0.00    +0.000 HD
ENDROOT
BRANCH   1   6
ATOM      5  C   UNL     1       2.722   3.321  17.249  0.00  0.00    +0.000 C 
ATOM      6  C   UNL     1       2.930   4.776  17.677  0.00  0.00    +0.000 C 
BRANCH   6   7
ATOM      7  C   UNL     1       2.059   5.168  18.886  0.00  0.00    +0.000 C 
BRANCH   7   8
ATOM      8  C   UNL     1       2.095   4.154  19.977  0.00  0.00    +0.000 A 
ATOM      9  C   UNL     1       3.108   3.608  20.733  0.00  0.00    +0.000 A 
ATOM     10  C   UNL     1       2.491   2.709  21.637  0.00  0.00    +0.000 A 
ATOM     11  C   UNL     1       1.143   2.759  21.367  0.00  0.00    +0.000 A 
ATOM     12  O   UNL     1       0.896   3.626  20.353  0.00  0.00    +0.000 OA
ENDBRANCH   7   8
ENDBRANCH   6   7
ENDBRANCH   1   6
BRANCH   2  13
ATOM     13  C   UNL     1       6.483   6.192  17.947  0.00  0.00    +0.000 C 
BRANCH  13  14
ATOM     14  S   UNL     1       7.351   4.654  17.519  0.00  0.00    +0.000 S 
BRANCH  14  15
ATOM     15  C   UNL     1       7.134   4.634  15.816  0.00  0.00    +0.000 A 
ATOM     16  N   UNL     1       7.610   5.457  14.914  0.00  0.00    +0.000 NA
ATOM     17  N   UNL     1       7.127   5.046  13.691  0.00  0.00    +0.000 NA
ATOM     18  C   UNL     1       6.374   3.985  13.895  0.00  0.00    +0.000 A 
ATOM     19  N   UNL     1       6.359   3.688  15.222  0.00  0.00    +0.000 N 
ATOM     20  H   UNL     1       5.861   2.946  15.690  0.00  0.00    +0.000 HD
ENDBRANCH  14  15
ENDBRANCH  13  14
ENDBRANCH   2  13
TORSDOF 6
ENDMDL
MODEL 9
REMARK VINA RESULT:      -6.2      2.816      6.534
REMARK  Name = 
REMARK  7 active torsions:
REMARK  status: ('A' for Active; 'I' for Inactive)
REMARK    1  A    between atoms: C_1  and  C_2
REMARK    2  A    between atoms: C_2  and  C_3
REMARK    3  A    between atoms: C_2  and  N_9
REMARK    4  A    between atoms: C_3  and  C_4
REMARK    5  A    between atoms: C_10  and  C_12
REMARK    6  A    between atoms: C_12  and  S_13
REMARK    7  A    between atoms: S_13  and  C_14
REMARK                            x       y       z     vdW  Elec       q    Type
REMARK                         _______ _______ _______ _____ _____    ______ ____
ROOT
ATOM      1  N   UNL     1       4.577   3.887  16.090  0.00  0.00    +0.000 N 
ATOM      2  C   UNL     1       4.157   3.528  17.353  0.00  0.00    +0.000 C 
ATOM      3  O   UNL     1       4.845   3.702  18.358  0.00  0.00    +0.000 OA
ATOM      4  H   UNL     1       3.978   3.693  15.296  0.00  0.00    +0.000 HD
ENDROOT
BRANCH   1   6
ATOM      5  C   UNL     1       6.402   4.068  14.469  0.00  0.00    +0.000 C 
ATOM      6  C   UNL     1       5.885   4.498  15.844  0.00  0.00    +0.000 C 
BRANCH   6   7
ATOM      7  C   UNL     1       5.797   6.030  15.990  0.00  0.00    +0.000 C 
BRANCH   7   8
ATOM      8  C   UNL     1       6.742   6.569  17.007  0.00  0.00    +0.000 A 
ATOM      9  C   UNL     1       7.355   6.029  18.116  0.00  0.00    +0.000 A 
ATOM     10  C   UNL     1       8.172   7.052  18.658  0.00  0.00    +0.000 A 
ATOM     11  C   UNL     1       7.996   8.151  17.850  0.00  0.00    +0.000 A 
ATOM     12  O   UNL     1       7.120   7.869  16.852  0.00  0.00    +0.000 OA
ENDBRANCH   7   8
ENDBRANCH   6   7
ENDBRANCH   1   6
BRANCH   2  13
ATOM     13  C   UNL     1       2.771   2.911  17.420  0.00  0.00    +0.000 C 
BRANCH  13  14
ATOM     14  S   UNL     1       1.621   3.990  18.322  0.00  0.00    +0.000 S 
BRANCH  14  15
ATOM     15  C   UNL     1       1.751   3.336  19.904  0.00  0.00    +0.000 A 
ATOM     16  N   UNL     1       0.813   3.150  20.800  0.00  0.00    +0.000 NA
ATOM     17  N   UNL     1       1.420   2.633  21.925  0.00  0.00    +0.000 NA
ATOM     18  C   UNL     1       2.706   2.524  21.670  0.00  0.00    +0.000 A 
ATOM     19  N   UNL     1       2.956   2.950  20.402  0.00  0.00    +0.000 N 
ATOM     20  H   UNL     1       3.843   3.004  19.925  0.00  0.00    +0.000 HD
ENDBRANCH  14  15
ENDBRANCH  13  14
ENDBRANCH   2  13
TORSDOF 6
ENDMDL
