MODEL 1
REMARK VINA RESULT:      -9.7      0.000      0.000
REMARK  Name = 
REMARK  4 active torsions:
REMARK  status: ('A' for Active; 'I' for Inactive)
REMARK    1  A    between atoms: C_9  and  C_10
REMARK    2  A    between atoms: C_14  and  N_15
REMARK    3  A    between atoms: N_18  and  C_19
REMARK    4  A    between atoms: C_24  and  C_25
REMARK                            x       y       z     vdW  Elec       q    Type
REMARK                         _______ _______ _______ _____ _____    ______ ____
ROOT
ATOM      1  C   UNL     1      -0.947  10.744  19.211  0.00  0.00    +0.000 A 
ATOM      2  C   UNL     1      -0.474  11.878  19.883  0.00  0.00    +0.000 A 
ATOM      3  C   UNL     1       0.475  11.775  20.897  0.00  0.00    +0.000 A 
ATOM      4  C   UNL     1       1.056  10.545  21.183  0.00  0.00    +0.000 A 
ATOM      5  C   UNL     1       0.712   9.406  20.457  0.00  0.00    +0.000 A 
ATOM      6  C   UNL     1      -0.322   9.507  19.514  0.00  0.00    +0.000 A 
ENDROOT
BRANCH   1  15
ATOM      7  N   UNL     1      -3.460  12.586  20.630  0.00  0.00    +0.000 N 
ATOM      8  C   UNL     1      -3.919  12.285  19.406  0.00  0.00    +0.000 A 
ATOM      9  N   UNL     1      -5.122  12.713  19.033  0.00  0.00    +0.000 NA
ATOM     10  N   UNL     1      -5.268  12.219  17.804  0.00  0.00    +0.000 N 
ATOM     11  C   UNL     1      -4.199  11.494  17.354  0.00  0.00    +0.000 A 
ATOM     12  C   UNL     1      -4.018  10.840  16.134  0.00  0.00    +0.000 A 
ATOM     13  C   UNL     1      -2.805  10.195  15.932  0.00  0.00    +0.000 A 
ATOM     14  C   UNL     1      -1.828  10.202  16.925  0.00  0.00    +0.000 A 
ATOM     15  C   UNL     1      -2.014  10.830  18.186  0.00  0.00    +0.000 A 
ATOM     16  C   UNL     1      -3.255  11.515  18.389  0.00  0.00    +0.000 A 
ATOM     17  H   UNL     1      -4.139  13.012  21.252  0.00  0.00    +0.000 HD
ATOM     18  H   UNL     1      -2.837  11.944  21.105  0.00  0.00    +0.000 HD
ATOM     19  H   UNL     1      -6.134  12.408  17.313  0.00  0.00    +0.000 HD
ENDBRANCH   1  15
BRANCH   5  20
ATOM     20  N   UNL     1       1.386   8.164  20.603  0.00  0.00    +0.000 N 
ATOM     21  C   UNL     1       2.227   7.606  19.655  0.00  0.00    +0.000 C 
ATOM     22  O   UNL     1       2.549   8.138  18.597  0.00  0.00    +0.000 OA
ATOM     23  N   UNL     1       2.635   6.320  19.990  0.00  0.00    +0.000 N 
ATOM     24  H   UNL     1       1.156   7.610  21.416  0.00  0.00    +0.000 HD
ATOM     25  H   UNL     1       1.948   5.780  20.497  0.00  0.00    +0.000 HD
BRANCH  23  26
ATOM     26  C   UNL     1       3.452   5.602  19.082  0.00  0.00    +0.000 A 
ATOM     27  C   UNL     1       2.853   4.801  18.119  0.00  0.00    +0.000 A 
ATOM     28  C   UNL     1       3.639   4.228  17.116  0.00  0.00    +0.000 A 
ATOM     29  C   UNL     1       5.033   4.401  17.105  0.00  0.00    +0.000 A 
ATOM     30 CL   UNL     1       5.880   3.684  15.784  0.00  0.00    +0.000 Cl
ATOM     31  C   UNL     1       5.666   5.131  18.115  0.00  0.00    +0.000 A 
ATOM     32  C   UNL     1       4.849   5.728  19.100  0.00  0.00    +0.000 A 
BRANCH  31  33
ATOM     33  C   UNL     1       7.155   5.349  18.221  0.00  0.00    +0.000 C 
ATOM     34  F   UNL     1       7.946   4.271  18.015  0.00  0.00    +0.000 F 
ATOM     35  F   UNL     1       7.596   6.303  17.347  0.00  0.00    +0.000 F 
ATOM     36  F   UNL     1       7.493   5.820  19.461  0.00  0.00    +0.000 F 
ENDBRANCH  31  33
ENDBRANCH  23  26
ENDBRANCH   5  20
TORSDOF 4
ENDMDL
MODEL 2
REMARK VINA RESULT:      -9.4      2.804      3.674
REMARK  Name = 
REMARK  4 active torsions:
REMARK  status: ('A' for Active; 'I' for Inactive)
REMARK    1  A    between atoms: C_9  and  C_10
REMARK    2  A    between atoms: C_14  and  N_15
REMARK    3  A    between atoms: N_18  and  C_19
REMARK    4  A    between atoms: C_24  and  C_25
REMARK                            x       y       z     vdW  Elec       q    Type
REMARK                         _______ _______ _______ _____ _____    ______ ____
ROOT
ATOM      1  C   UNL     1      -1.536  12.221  19.837  0.00  0.00    +0.000 A 
ATOM      2  C   UNL     1      -0.759  13.376  19.680  0.00  0.00    +0.000 A 
ATOM      3  C   UNL     1       0.570  13.415  20.090  0.00  0.00    +0.000 A 
ATOM      4  C   UNL     1       1.187  12.262  20.561  0.00  0.00    +0.000 A 
ATOM      5  C   UNL     1       0.494  11.054  20.618  0.00  0.00    +0.000 A 
ATOM      6  C   UNL     1      -0.874  11.057  20.305  0.00  0.00    +0.000 A 
ENDROOT
BRANCH   1  15
ATOM      7  N   UNL     1      -1.698  10.728  16.760  0.00  0.00    +0.000 N 
ATOM      8  C   UNL     1      -2.975  11.007  17.062  0.00  0.00    +0.000 A 
ATOM      9  N   UNL     1      -3.937  10.684  16.203  0.00  0.00    +0.000 NA
ATOM     10  N   UNL     1      -5.049  11.122  16.792  0.00  0.00    +0.000 N 
ATOM     11  C   UNL     1      -4.851  11.708  18.012  0.00  0.00    +0.000 A 
ATOM     12  C   UNL     1      -5.779  12.271  18.890  0.00  0.00    +0.000 A 
ATOM     13  C   UNL     1      -5.295  12.776  20.089  0.00  0.00    +0.000 A 
ATOM     14  C   UNL     1      -3.934  12.723  20.379  0.00  0.00    +0.000 A 
ATOM     15  C   UNL     1      -2.974  12.189  19.479  0.00  0.00    +0.000 A 
ATOM     16  C   UNL     1      -3.472  11.647  18.251  0.00  0.00    +0.000 A 
ATOM     17  H   UNL     1      -1.539  10.409  15.811  0.00  0.00    +0.000 HD
ATOM     18  H   UNL     1      -0.958  11.328  17.105  0.00  0.00    +0.000 HD
ATOM     19  H   UNL     1      -5.930  10.996  16.306  0.00  0.00    +0.000 HD
ENDBRANCH   1  15
BRANCH   5  20
ATOM     20  N   UNL     1       1.119   9.820  20.943  0.00  0.00    +0.000 N 
ATOM     21  C   UNL     1       1.412   8.820  20.031  0.00  0.00    +0.000 C 
ATOM     22  O   UNL     1       1.230   8.895  18.819  0.00  0.00    +0.000 OA
ATOM     23  N   UNL     1       1.887   7.662  20.637  0.00  0.00    +0.000 N 
ATOM     24  H   UNL     1       1.270   9.625  21.922  0.00  0.00    +0.000 HD
ATOM     25  H   UNL     1       1.491   7.473  21.547  0.00  0.00    +0.000 HD
BRANCH  23  26
ATOM     26  C   UNL     1       2.172   6.533  19.830  0.00  0.00    +0.000 A 
ATOM     27  C   UNL     1       3.071   6.662  18.779  0.00  0.00    +0.000 A 
ATOM     28  C   UNL     1       3.488   5.520  18.089  0.00  0.00    +0.000 A 
ATOM     29  C   UNL     1       2.963   4.256  18.403  0.00  0.00    +0.000 A 
ATOM     30 CL   UNL     1       3.599   2.923  17.509  0.00  0.00    +0.000 Cl
ATOM     31  C   UNL     1       1.992   4.117  19.397  0.00  0.00    +0.000 A 
ATOM     32  C   UNL     1       1.609   5.278  20.105  0.00  0.00    +0.000 A 
BRANCH  31  33
ATOM     33  C   UNL     1       1.336   2.817  19.790  0.00  0.00    +0.000 C 
ATOM     34  F   UNL     1       2.148   1.746  19.948  0.00  0.00    +0.000 F 
ATOM     35  F   UNL     1       0.639   2.927  20.961  0.00  0.00    +0.000 F 
ATOM     36  F   UNL     1       0.407   2.437  18.858  0.00  0.00    +0.000 F 
ENDBRANCH  31  33
ENDBRANCH  23  26
ENDBRANCH   5  20
TORSDOF 4
ENDMDL
MODEL 3
REMARK VINA RESULT:      -9.4      1.853      2.716
REMARK  Name = 
REMARK  4 active torsions:
REMARK  status: ('A' for Active; 'I' for Inactive)
REMARK    1  A    between atoms: C_9  and  C_10
REMARK    2  A    between atoms: C_14  and  N_15
REMARK    3  A    between atoms: N_18  and  C_19
REMARK    4  A    between atoms: C_24  and  C_25
REMARK                            x       y       z     vdW  Elec       q    Type
REMARK                         _______ _______ _______ _____ _____    ______ ____
ROOT
ATOM      1  C   UNL     1      -1.354  11.989  19.496  0.00  0.00    +0.000 A 
ATOM      2  C   UNL     1      -0.465  12.958  19.014  0.00  0.00    +0.000 A 
ATOM      3  C   UNL     1       0.899  12.886  19.281  0.00  0.00    +0.000 A 
ATOM      4  C   UNL     1       1.421  11.779  19.941  0.00  0.00    +0.000 A 
ATOM      5  C   UNL     1       0.596  10.725  20.331  0.00  0.00    +0.000 A 
ATOM      6  C   UNL     1      -0.789  10.864  20.151  0.00  0.00    +0.000 A 
ENDROOT
BRANCH   1  15
ATOM      7  N   UNL     1      -1.950  10.674  16.391  0.00  0.00    +0.000 N 
ATOM      8  C   UNL     1      -3.161  11.042  16.835  0.00  0.00    +0.000 A 
ATOM      9  N   UNL     1      -4.229  10.845  16.067  0.00  0.00    +0.000 NA
ATOM     10  N   UNL     1      -5.234  11.343  16.785  0.00  0.00    +0.000 N 
ATOM     11  C   UNL     1      -4.865  11.847  18.002  0.00  0.00    +0.000 A 
ATOM     12  C   UNL     1      -5.649  12.439  18.994  0.00  0.00    +0.000 A 
ATOM     13  C   UNL     1      -5.006  12.840  20.157  0.00  0.00    +0.000 A 
ATOM     14  C   UNL     1      -3.633  12.660  20.303  0.00  0.00    +0.000 A 
ATOM     15  C   UNL     1      -2.817  12.095  19.287  0.00  0.00    +0.000 A 
ATOM     16  C   UNL     1      -3.480  11.660  18.095  0.00  0.00    +0.000 A 
ATOM     17  H   UNL     1      -1.914  10.392  15.418  0.00  0.00    +0.000 HD
ATOM     18  H   UNL     1      -1.130  11.193  16.683  0.00  0.00    +0.000 HD
ATOM     19  H   UNL     1      -6.166  11.315  16.387  0.00  0.00    +0.000 HD
ENDBRANCH   1  15
BRANCH   5  20
ATOM     20  N   UNL     1       1.097   9.509  20.866  0.00  0.00    +0.000 N 
ATOM     21  C   UNL     1       1.478   8.412  20.110  0.00  0.00    +0.000 C 
ATOM     22  O   UNL     1       1.492   8.371  18.883  0.00  0.00    +0.000 OA
ATOM     23  N   UNL     1       1.791   7.304  20.891  0.00  0.00    +0.000 N 
ATOM     24  H   UNL     1       1.083   9.408  21.870  0.00  0.00    +0.000 HD
ATOM     25  H   UNL     1       1.250   7.223  21.738  0.00  0.00    +0.000 HD
BRANCH  23  26
ATOM     26  C   UNL     1       2.141   6.091  20.249  0.00  0.00    +0.000 A 
ATOM     27  C   UNL     1       1.356   4.964  20.458  0.00  0.00    +0.000 A 
ATOM     28  C   UNL     1       1.590   3.814  19.699  0.00  0.00    +0.000 A 
ATOM     29  C   UNL     1       2.646   3.763  18.774  0.00  0.00    +0.000 A 
ATOM     30 CL   UNL     1       2.795   2.303  17.866  0.00  0.00    +0.000 Cl
ATOM     31  C   UNL     1       3.501   4.856  18.611  0.00  0.00    +0.000 A 
ATOM     32  C   UNL     1       3.227   6.019  19.364  0.00  0.00    +0.000 A 
BRANCH  31  33
ATOM     33  C   UNL     1       4.684   4.897  17.676  0.00  0.00    +0.000 C 
ATOM     34  F   UNL     1       4.438   4.648  16.369  0.00  0.00    +0.000 F 
ATOM     35  F   UNL     1       5.321   6.106  17.709  0.00  0.00    +0.000 F 
ATOM     36  F   UNL     1       5.635   3.984  18.050  0.00  0.00    +0.000 F 
ENDBRANCH  31  33
ENDBRANCH  23  26
ENDBRANCH   5  20
TORSDOF 4
ENDMDL
MODEL 4
REMARK VINA RESULT:      -9.3      2.993      3.802
REMARK  Name = 
REMARK  4 active torsions:
REMARK  status: ('A' for Active; 'I' for Inactive)
REMARK    1  A    between atoms: C_9  and  C_10
REMARK    2  A    between atoms: C_14  and  N_15
REMARK    3  A    between atoms: N_18  and  C_19
REMARK    4  A    between atoms: C_24  and  C_25
REMARK                            x       y       z     vdW  Elec       q    Type
REMARK                         _______ _______ _______ _____ _____    ______ ____
ROOT
ATOM      1  C   UNL     1      -0.626  11.885  19.124  0.00  0.00    +0.000 A 
ATOM      2  C   UNL     1       0.281  12.948  19.205  0.00  0.00    +0.000 A 
ATOM      3  C   UNL     1       1.639  12.761  18.964  0.00  0.00    +0.000 A 
ATOM      4  C   UNL     1       2.104  11.527  18.524  0.00  0.00    +0.000 A 
ATOM      5  C   UNL     1       1.223  10.469  18.305  0.00  0.00    +0.000 A 
ATOM      6  C   UNL     1      -0.125  10.643  18.656  0.00  0.00    +0.000 A 
ENDROOT
BRANCH   1  15
ATOM      7  N   UNL     1      -2.337  11.174  16.245  0.00  0.00    +0.000 N 
ATOM      8  C   UNL     1      -3.294  11.474  17.135  0.00  0.00    +0.000 A 
ATOM      9  N   UNL     1      -4.570  11.441  16.762  0.00  0.00    +0.000 NA
ATOM     10  N   UNL     1      -5.231  11.815  17.856  0.00  0.00    +0.000 N 
ATOM     11  C   UNL     1      -4.435  12.080  18.936  0.00  0.00    +0.000 A 
ATOM     12  C   UNL     1      -4.789  12.494  20.222  0.00  0.00    +0.000 A 
ATOM     13  C   UNL     1      -3.762  12.663  21.140  0.00  0.00    +0.000 A 
ATOM     14  C   UNL     1      -2.439  12.435  20.770  0.00  0.00    +0.000 A 
ATOM     15  C   UNL     1      -2.061  12.052  19.455  0.00  0.00    +0.000 A 
ATOM     16  C   UNL     1      -3.120  11.856  18.511  0.00  0.00    +0.000 A 
ATOM     17  H   UNL     1      -2.654  11.075  15.286  0.00  0.00    +0.000 HD
ATOM     18  H   UNL     1      -1.428  11.615  16.317  0.00  0.00    +0.000 HD
ATOM     19  H   UNL     1      -6.242  11.877  17.806  0.00  0.00    +0.000 HD
ENDBRANCH   1  15
BRANCH   5  20
ATOM     20  N   UNL     1       1.622   9.241  17.711  0.00  0.00    +0.000 N 
ATOM     21  C   UNL     1       1.975   8.102  18.415  0.00  0.00    +0.000 C 
ATOM     22  O   UNL     1       1.928   7.984  19.635  0.00  0.00    +0.000 OA
ATOM     23  N   UNL     1       2.464   7.093  17.592  0.00  0.00    +0.000 N 
ATOM     24  H   UNL     1       1.746   9.235  16.709  0.00  0.00    +0.000 HD
ATOM     25  H   UNL     1       2.979   7.421  16.788  0.00  0.00    +0.000 HD
BRANCH  23  26
ATOM     26  C   UNL     1       2.920   5.889  18.182  0.00  0.00    +0.000 A 
ATOM     27  C   UNL     1       4.257   5.775  18.542  0.00  0.00    +0.000 A 
ATOM     28  C   UNL     1       4.678   4.664  19.278  0.00  0.00    +0.000 A 
ATOM     29  C   UNL     1       3.781   3.633  19.604  0.00  0.00    +0.000 A 
ATOM     30 CL   UNL     1       4.416   2.343  20.559  0.00  0.00    +0.000 Cl
ATOM     31  C   UNL     1       2.452   3.687  19.176  0.00  0.00    +0.000 A 
ATOM     32  C   UNL     1       2.040   4.833  18.463  0.00  0.00    +0.000 A 
BRANCH  31  33
ATOM     33  C   UNL     1       1.416   2.622  19.438  0.00  0.00    +0.000 C 
ATOM     34  F   UNL     1       0.236   2.746  18.789  0.00  0.00    +0.000 F 
ATOM     35  F   UNL     1       1.877   1.372  19.132  0.00  0.00    +0.000 F 
ATOM     36  F   UNL     1       1.098   2.567  20.770  0.00  0.00    +0.000 F 
ENDBRANCH  31  33
ENDBRANCH  23  26
ENDBRANCH   5  20
TORSDOF 4
ENDMDL
MODEL 5
REMARK VINA RESULT:      -9.1      3.138      4.144
REMARK  Name = 
REMARK  4 active torsions:
REMARK  status: ('A' for Active; 'I' for Inactive)
REMARK    1  A    between atoms: C_9  and  C_10
REMARK    2  A    between atoms: C_14  and  N_15
REMARK    3  A    between atoms: N_18  and  C_19
REMARK    4  A    between atoms: C_24  and  C_25
REMARK                            x       y       z     vdW  Elec       q    Type
REMARK                         _______ _______ _______ _____ _____    ______ ____
ROOT
ATOM      1  C   UNL     1       0.176  11.933  19.844  0.00  0.00    +0.000 A 
ATOM      2  C   UNL     1       0.950  13.014  19.401  0.00  0.00    +0.000 A 
ATOM      3  C   UNL     1       2.058  12.822  18.581  0.00  0.00    +0.000 A 
ATOM      4  C   UNL     1       2.350  11.554  18.092  0.00  0.00    +0.000 A 
ATOM      5  C   UNL     1       1.537  10.465  18.400  0.00  0.00    +0.000 A 
ATOM      6  C   UNL     1       0.489  10.655  19.314  0.00  0.00    +0.000 A 
ENDROOT
BRANCH   1  15
ATOM      7  N   UNL     1      -2.632  12.081  17.891  0.00  0.00    +0.000 N 
ATOM      8  C   UNL     1      -3.091  12.218  19.144  0.00  0.00    +0.000 A 
ATOM      9  N   UNL     1      -4.396  12.367  19.352  0.00  0.00    +0.000 NA
ATOM     10  N   UNL     1      -4.494  12.504  20.673  0.00  0.00    +0.000 N 
ATOM     11  C   UNL     1      -3.301  12.436  21.340  0.00  0.00    +0.000 A 
ATOM     12  C   UNL     1      -3.039  12.541  22.707  0.00  0.00    +0.000 A 
ATOM     13  C   UNL     1      -1.719  12.405  23.114  0.00  0.00    +0.000 A 
ATOM     14  C   UNL     1      -0.711  12.184  22.178  0.00  0.00    +0.000 A 
ATOM     15  C   UNL     1      -0.958  12.114  20.781  0.00  0.00    +0.000 A 
ATOM     16  C   UNL     1      -2.322  12.232  20.360  0.00  0.00    +0.000 A 
ATOM     17  H   UNL     1      -3.316  12.246  17.161  0.00  0.00    +0.000 HD
ATOM     18  H   UNL     1      -1.709  12.426  17.654  0.00  0.00    +0.000 HD
ATOM     19  H   UNL     1      -5.414  12.647  21.073  0.00  0.00    +0.000 HD
ENDBRANCH   1  15
BRANCH   5  20
ATOM     20  N   UNL     1       1.700   9.186  17.804  0.00  0.00    +0.000 N 
ATOM     21  C   UNL     1       2.115   8.048  18.477  0.00  0.00    +0.000 C 
ATOM     22  O   UNL     1       2.333   7.982  19.682  0.00  0.00    +0.000 OA
ATOM     23  N   UNL     1       2.331   6.970  17.625  0.00  0.00    +0.000 N 
ATOM     24  H   UNL     1       1.597   9.130  16.801  0.00  0.00    +0.000 HD
ATOM     25  H   UNL     1       2.677   7.221  16.711  0.00  0.00    +0.000 HD
BRANCH  23  26
ATOM     26  C   UNL     1       2.816   5.755  18.169  0.00  0.00    +0.000 A 
ATOM     27  C   UNL     1       4.186   5.583  18.328  0.00  0.00    +0.000 A 
ATOM     28  C   UNL     1       4.661   4.465  19.019  0.00  0.00    +0.000 A 
ATOM     29  C   UNL     1       3.778   3.484  19.498  0.00  0.00    +0.000 A 
ATOM     30 CL   UNL     1       4.490   2.180  20.377  0.00  0.00    +0.000 Cl
ATOM     31  C   UNL     1       2.403   3.594  19.272  0.00  0.00    +0.000 A 
ATOM     32  C   UNL     1       1.941   4.747  18.601  0.00  0.00    +0.000 A 
BRANCH  31  33
ATOM     33  C   UNL     1       1.372   2.584  19.709  0.00  0.00    +0.000 C 
ATOM     34  F   UNL     1       0.092   2.819  19.338  0.00  0.00    +0.000 F 
ATOM     35  F   UNL     1       1.662   1.326  19.260  0.00  0.00    +0.000 F 
ATOM     36  F   UNL     1       1.343   2.475  21.074  0.00  0.00    +0.000 F 
ENDBRANCH  31  33
ENDBRANCH  23  26
ENDBRANCH   5  20
TORSDOF 4
ENDMDL
MODEL 6
REMARK VINA RESULT:      -9.1      1.400      1.624
REMARK  Name = 
REMARK  4 active torsions:
REMARK  status: ('A' for Active; 'I' for Inactive)
REMARK    1  A    between atoms: C_9  and  C_10
REMARK    2  A    between atoms: C_14  and  N_15
REMARK    3  A    between atoms: N_18  and  C_19
REMARK    4  A    between atoms: C_24  and  C_25
REMARK                            x       y       z     vdW  Elec       q    Type
REMARK                         _______ _______ _______ _____ _____    ______ ____
ROOT
ATOM      1  C   UNL     1      -1.149  11.168  18.624  0.00  0.00    +0.000 A 
ATOM      2  C   UNL     1      -0.583  12.424  18.876  0.00  0.00    +0.000 A 
ATOM      3  C   UNL     1       0.369  12.601  19.877  0.00  0.00    +0.000 A 
ATOM      4  C   UNL     1       0.859  11.501  20.572  0.00  0.00    +0.000 A 
ATOM      5  C   UNL     1       0.421  10.212  20.272  0.00  0.00    +0.000 A 
ATOM      6  C   UNL     1      -0.616  10.064  19.337  0.00  0.00    +0.000 A 
ENDROOT
BRANCH   1  15
ATOM      7  N   UNL     1      -3.919  12.723  19.904  0.00  0.00    +0.000 N 
ATOM      8  C   UNL     1      -4.328  12.231  18.725  0.00  0.00    +0.000 A 
ATOM      9  N   UNL     1      -5.585  12.424  18.335  0.00  0.00    +0.000 NA
ATOM     10  N   UNL     1      -5.655  11.791  17.164  0.00  0.00    +0.000 N 
ATOM     11  C   UNL     1      -4.486  11.203  16.767  0.00  0.00    +0.000 A 
ATOM     12  C   UNL     1      -4.208  10.467  15.614  0.00  0.00    +0.000 A 
ATOM     13  C   UNL     1      -2.909  10.004  15.453  0.00  0.00    +0.000 A 
ATOM     14  C   UNL     1      -1.941  10.266  16.420  0.00  0.00    +0.000 A 
ATOM     15  C   UNL     1      -2.220  10.980  17.616  0.00  0.00    +0.000 A 
ATOM     16  C   UNL     1      -3.553  11.477  17.775  0.00  0.00    +0.000 A 
ATOM     17  H   UNL     1      -4.654  13.096  20.494  0.00  0.00    +0.000 HD
ATOM     18  H   UNL     1      -3.199  12.238  20.427  0.00  0.00    +0.000 HD
ATOM     19  H   UNL     1      -6.542  11.791  16.673  0.00  0.00    +0.000 HD
ENDBRANCH   1  15
BRANCH   5  20
ATOM     20  N   UNL     1       1.000   9.047  20.841  0.00  0.00    +0.000 N 
ATOM     21  C   UNL     1       1.549   8.003  20.114  0.00  0.00    +0.000 C 
ATOM     22  O   UNL     1       1.664   7.978  18.893  0.00  0.00    +0.000 OA
ATOM     23  N   UNL     1       1.912   6.925  20.914  0.00  0.00    +0.000 N 
ATOM     24  H   UNL     1       0.917   8.934  21.841  0.00  0.00    +0.000 HD
ATOM     25  H   UNL     1       1.316   6.779  21.716  0.00  0.00    +0.000 HD
BRANCH  23  26
ATOM     26  C   UNL     1       2.433   5.760  20.298  0.00  0.00    +0.000 A 
ATOM     27  C   UNL     1       1.770   4.551  20.465  0.00  0.00    +0.000 A 
ATOM     28  C   UNL     1       2.177   3.437  19.726  0.00  0.00    +0.000 A 
ATOM     29  C   UNL     1       3.284   3.509  18.863  0.00  0.00    +0.000 A 
ATOM     30 CL   UNL     1       3.649   2.078  17.971  0.00  0.00    +0.000 Cl
ATOM     31  C   UNL     1       4.018   4.692  18.747  0.00  0.00    +0.000 A 
ATOM     32  C   UNL     1       3.570   5.815  19.478  0.00  0.00    +0.000 A 
BRANCH  31  33
ATOM     33  C   UNL     1       5.240   4.870  17.881  0.00  0.00    +0.000 C 
ATOM     34  F   UNL     1       6.307   4.087  18.164  0.00  0.00    +0.000 F 
ATOM     35  F   UNL     1       4.967   4.658  16.559  0.00  0.00    +0.000 F 
ATOM     36  F   UNL     1       5.703   6.157  17.947  0.00  0.00    +0.000 F 
ENDBRANCH  31  33
ENDBRANCH  23  26
ENDBRANCH   5  20
TORSDOF 4
ENDMDL
MODEL 7
REMARK VINA RESULT:      -9.1      6.503      8.981
REMARK  Name = 
REMARK  4 active torsions:
REMARK  status: ('A' for Active; 'I' for Inactive)
REMARK    1  A    between atoms: C_9  and  C_10
REMARK    2  A    between atoms: C_14  and  N_15
REMARK    3  A    between atoms: N_18  and  C_19
REMARK    4  A    between atoms: C_24  and  C_25
REMARK                            x       y       z     vdW  Elec       q    Type
REMARK                         _______ _______ _______ _____ _____    ______ ____
ROOT
ATOM      1  C   UNL     1       4.931   4.546  17.379  0.00  0.00    +0.000 A 
ATOM      2  C   UNL     1       5.157   4.399  16.005  0.00  0.00    +0.000 A 
ATOM      3  C   UNL     1       6.115   5.163  15.343  0.00  0.00    +0.000 A 
ATOM      4  C   UNL     1       6.947   6.011  16.064  0.00  0.00    +0.000 A 
ATOM      5  C   UNL     1       6.848   6.100  17.452  0.00  0.00    +0.000 A 
ATOM      6  C   UNL     1       5.807   5.406  18.089  0.00  0.00    +0.000 A 
ENDROOT
BRANCH   1  15
ATOM      7  N   UNL     1       3.189   6.878  19.182  0.00  0.00    +0.000 N 
ATOM      8  C   UNL     1       2.573   5.718  19.455  0.00  0.00    +0.000 A 
ATOM      9  N   UNL     1       1.528   5.708  20.278  0.00  0.00    +0.000 NA
ATOM     10  N   UNL     1       1.191   4.422  20.349  0.00  0.00    +0.000 N 
ATOM     11  C   UNL     1       1.968   3.590  19.591  0.00  0.00    +0.000 A 
ATOM     12  C   UNL     1       1.898   2.204  19.434  0.00  0.00    +0.000 A 
ATOM     13  C   UNL     1       2.809   1.615  18.568  0.00  0.00    +0.000 A 
ATOM     14  C   UNL     1       3.753   2.392  17.902  0.00  0.00    +0.000 A 
ATOM     15  C   UNL     1       3.861   3.798  18.081  0.00  0.00    +0.000 A 
ATOM     16  C   UNL     1       2.909   4.411  18.957  0.00  0.00    +0.000 A 
ATOM     17  H   UNL     1       2.894   7.667  19.748  0.00  0.00    +0.000 HD
ATOM     18  H   UNL     1       4.182   6.884  18.983  0.00  0.00    +0.000 HD
ATOM     19  H   UNL     1       0.411   4.163  20.942  0.00  0.00    +0.000 HD
ENDBRANCH   1  15
BRANCH   5  20
ATOM     20  N   UNL     1       7.772   6.828  18.248  0.00  0.00    +0.000 N 
ATOM     21  C   UNL     1       7.912   8.206  18.232  0.00  0.00    +0.000 C 
ATOM     22  O   UNL     1       7.217   8.979  17.580  0.00  0.00    +0.000 OA
ATOM     23  N   UNL     1       8.988   8.645  18.997  0.00  0.00    +0.000 N 
ATOM     24  H   UNL     1       8.434   6.292  18.790  0.00  0.00    +0.000 HD
ATOM     25  H   UNL     1       9.777   8.015  19.011  0.00  0.00    +0.000 HD
BRANCH  23  26
ATOM     26  C   UNL     1       9.288  10.029  19.025  0.00  0.00    +0.000 A 
ATOM     27  C   UNL     1       9.674  10.663  17.851  0.00  0.00    +0.000 A 
ATOM     28  C   UNL     1       9.805  12.054  17.832  0.00  0.00    +0.000 A 
ATOM     29  C   UNL     1       9.612  12.812  18.999  0.00  0.00    +0.000 A 
ATOM     30 CL   UNL     1       9.755  14.524  18.829  0.00  0.00    +0.000 Cl
ATOM     31  C   UNL     1       9.309  12.186  20.211  0.00  0.00    +0.000 A 
ATOM     32  C   UNL     1       9.150  10.783  20.200  0.00  0.00    +0.000 A 
BRANCH  31  33
ATOM     33  C   UNL     1       9.118  12.897  21.527  0.00  0.00    +0.000 C 
ATOM     34  F   UNL     1       8.055  13.728  21.623  0.00  0.00    +0.000 F 
ATOM     35  F   UNL     1       8.996  12.021  22.570  0.00  0.00    +0.000 F 
ATOM     36  F   UNL     1      10.211  13.663  21.833  0.00  0.00    +0.000 F 
ENDBRANCH  31  33
ENDBRANCH  23  26
ENDBRANCH   5  20
TORSDOF 4
ENDMDL
MODEL 8
REMARK VINA RESULT:      -9.1      1.366      2.130
REMARK  Name = 
REMARK  4 active torsions:
REMARK  status: ('A' for Active; 'I' for Inactive)
REMARK    1  A    between atoms: C_9  and  C_10
REMARK    2  A    between atoms: C_14  and  N_15
REMARK    3  A    between atoms: N_18  and  C_19
REMARK    4  A    between atoms: C_24  and  C_25
REMARK                            x       y       z     vdW  Elec       q    Type
REMARK                         _______ _______ _______ _____ _____    ______ ____
ROOT
ATOM      1  C   UNL     1      -1.061  11.672  19.021  0.00  0.00    +0.000 A 
ATOM      2  C   UNL     1      -0.177  12.653  18.555  0.00  0.00    +0.000 A 
ATOM      3  C   UNL     1       1.202  12.475  18.621  0.00  0.00    +0.000 A 
ATOM      4  C   UNL     1       1.727  11.261  19.051  0.00  0.00    +0.000 A 
ATOM      5  C   UNL     1       0.887  10.206  19.407  0.00  0.00    +0.000 A 
ATOM      6  C   UNL     1      -0.496  10.439  19.437  0.00  0.00    +0.000 A 
ENDROOT
BRANCH   1  15
ATOM      7  N   UNL     1      -2.180  10.563  15.982  0.00  0.00    +0.000 N 
ATOM      8  C   UNL     1      -3.287  10.982  16.611  0.00  0.00    +0.000 A 
ATOM      9  N   UNL     1      -4.464  10.893  15.997  0.00  0.00    +0.000 NA
ATOM     10  N   UNL     1      -5.321  11.415  16.874  0.00  0.00    +0.000 N 
ATOM     11  C   UNL     1      -4.750  11.830  18.045  0.00  0.00    +0.000 A 
ATOM     12  C   UNL     1      -5.343  12.418  19.164  0.00  0.00    +0.000 A 
ATOM     13  C   UNL     1      -4.516  12.716  20.239  0.00  0.00    +0.000 A 
ATOM     14  C   UNL     1      -3.151  12.442  20.177  0.00  0.00    +0.000 A 
ATOM     15  C   UNL     1      -2.529  11.881  19.030  0.00  0.00    +0.000 A 
ATOM     16  C   UNL     1      -3.382  11.552  17.929  0.00  0.00    +0.000 A 
ATOM     17  H   UNL     1      -2.302  10.331  15.002  0.00  0.00    +0.000 HD
ATOM     18  H   UNL     1      -1.293  11.012  16.174  0.00  0.00    +0.000 HD
ATOM     19  H   UNL     1      -6.299  11.467  16.614  0.00  0.00    +0.000 HD
ENDBRANCH   1  15
BRANCH   5  20
ATOM     20  N   UNL     1       1.368   8.902  19.701  0.00  0.00    +0.000 N 
ATOM     21  C   UNL     1       2.231   8.179  18.895  0.00  0.00    +0.000 C 
ATOM     22  O   UNL     1       2.742   8.592  17.859  0.00  0.00    +0.000 OA
ATOM     23  N   UNL     1       2.424   6.878  19.347  0.00  0.00    +0.000 N 
ATOM     24  H   UNL     1       0.975   8.439  20.508  0.00  0.00    +0.000 HD
ATOM     25  H   UNL     1       1.617   6.465  19.793  0.00  0.00    +0.000 HD
BRANCH  23  26
ATOM     26  C   UNL     1       3.237   6.002  18.587  0.00  0.00    +0.000 A 
ATOM     27  C   UNL     1       2.638   4.984  17.856  0.00  0.00    +0.000 A 
ATOM     28  C   UNL     1       3.412   4.227  16.972  0.00  0.00    +0.000 A 
ATOM     29  C   UNL     1       4.795   4.441  16.859  0.00  0.00    +0.000 A 
ATOM     30 CL   UNL     1       5.624   3.473  15.695  0.00  0.00    +0.000 Cl
ATOM     31  C   UNL     1       5.432   5.401  17.650  0.00  0.00    +0.000 A 
ATOM     32  C   UNL     1       4.627   6.177  18.512  0.00  0.00    +0.000 A 
BRANCH  31  33
ATOM     33  C   UNL     1       6.913   5.688  17.636  0.00  0.00    +0.000 C 
ATOM     34  F   UNL     1       7.733   4.684  18.022  0.00  0.00    +0.000 F 
ATOM     35  F   UNL     1       7.350   6.067  16.397  0.00  0.00    +0.000 F 
ATOM     36  F   UNL     1       7.214   6.743  18.456  0.00  0.00    +0.000 F 
ENDBRANCH  31  33
ENDBRANCH  23  26
ENDBRANCH   5  20
TORSDOF 4
ENDMDL
MODEL 9
REMARK VINA RESULT:      -9.0      6.396     10.583
REMARK  Name = 
REMARK  4 active torsions:
REMARK  status: ('A' for Active; 'I' for Inactive)
REMARK    1  A    between atoms: C_9  and  C_10
REMARK    2  A    between atoms: C_14  and  N_15
REMARK    3  A    between atoms: N_18  and  C_19
REMARK    4  A    between atoms: C_24  and  C_25
REMARK                            x       y       z     vdW  Elec       q    Type
REMARK                         _______ _______ _______ _____ _____    ______ ____
ROOT
ATOM      1  C   UNL     1       2.094   6.649  19.466  0.00  0.00    +0.000 A 
ATOM      2  C   UNL     1       2.426   7.083  18.176  0.00  0.00    +0.000 A 
ATOM      3  C   UNL     1       2.147   8.380  17.755  0.00  0.00    +0.000 A 
ATOM      4  C   UNL     1       1.633   9.308  18.653  0.00  0.00    +0.000 A 
ATOM      5  C   UNL     1       1.403   8.962  19.984  0.00  0.00    +0.000 A 
ATOM      6  C   UNL     1       1.587   7.623  20.364  0.00  0.00    +0.000 A 
ENDROOT
BRANCH   1  15
ATOM      7  N   UNL     1       5.287   5.862  18.511  0.00  0.00    +0.000 N 
ATOM      8  C   UNL     1       4.832   4.747  19.102  0.00  0.00    +0.000 A 
ATOM      9  N   UNL     1       5.622   3.681  19.187  0.00  0.00    +0.000 NA
ATOM     10  N   UNL     1       4.860   2.767  19.787  0.00  0.00    +0.000 N 
ATOM     11  C   UNL     1       3.604   3.201  20.110  0.00  0.00    +0.000 A 
ATOM     12  C   UNL     1       2.559   2.516  20.733  0.00  0.00    +0.000 A 
ATOM     13  C   UNL     1       1.385   3.221  20.965  0.00  0.00    +0.000 A 
ATOM     14  C   UNL     1       1.272   4.552  20.572  0.00  0.00    +0.000 A 
ATOM     15  C   UNL     1       2.313   5.250  19.902  0.00  0.00    +0.000 A 
ATOM     16  C   UNL     1       3.532   4.533  19.682  0.00  0.00    +0.000 A 
ATOM     17  H   UNL     1       6.176   5.765  18.034  0.00  0.00    +0.000 HD
ATOM     18  H   UNL     1       4.641   6.471  18.023  0.00  0.00    +0.000 HD
ATOM     19  H   UNL     1       5.255   1.848  19.951  0.00  0.00    +0.000 HD
ENDBRANCH   1  15
BRANCH   5  20
ATOM     20  N   UNL     1       1.028   9.908  20.974  0.00  0.00    +0.000 N 
ATOM     21  C   UNL     1      -0.093  10.719  20.907  0.00  0.00    +0.000 C 
ATOM     22  O   UNL     1      -0.939  10.680  20.019  0.00  0.00    +0.000 OA
ATOM     23  N   UNL     1      -0.142  11.654  21.935  0.00  0.00    +0.000 N 
ATOM     24  H   UNL     1       1.678  10.064  21.731  0.00  0.00    +0.000 HD
ATOM     25  H   UNL     1       0.759  11.993  22.237  0.00  0.00    +0.000 HD
BRANCH  23  26
ATOM     26  C   UNL     1      -1.205  12.591  21.958  0.00  0.00    +0.000 A 
ATOM     27  C   UNL     1      -1.169  13.678  21.095  0.00  0.00    +0.000 A 
ATOM     28  C   UNL     1      -2.288  14.509  20.990  0.00  0.00    +0.000 A 
ATOM     29  C   UNL     1      -3.423  14.295  21.789  0.00  0.00    +0.000 A 
ATOM     30 CL   UNL     1      -4.754  15.361  21.525  0.00  0.00    +0.000 Cl
ATOM     31  C   UNL     1      -3.446  13.259  22.727  0.00  0.00    +0.000 A 
ATOM     32  C   UNL     1      -2.318  12.412  22.794  0.00  0.00    +0.000 A 
BRANCH  31  33
ATOM     33  C   UNL     1      -4.594  12.962  23.659  0.00  0.00    +0.000 C 
ATOM     34  F   UNL     1      -5.053  13.990  24.409  0.00  0.00    +0.000 F 
ATOM     35  F   UNL     1      -5.683  12.476  22.992  0.00  0.00    +0.000 F 
ATOM     36  F   UNL     1      -4.256  11.980  24.552  0.00  0.00    +0.000 F 
ENDBRANCH  31  33
ENDBRANCH  23  26
ENDBRANCH   5  20
TORSDOF 4
ENDMDL
