MODEL 1
REMARK VINA RESULT:      -8.5      0.000      0.000
REMARK  Name = 
REMARK  3 active torsions:
REMARK  status: ('A' for Active; 'I' for Inactive)
REMARK    1  A    between atoms: C_2  and  C_11
REMARK    2  A    between atoms: N_3  and  C_4
REMARK    3  A    between atoms: C_14  and  C_15
REMARK                            x       y       z     vdW  Elec       q    Type
REMARK                         _______ _______ _______ _____ _____    ______ ____
ROOT
ATOM      1  C   UNL     1       7.832   6.773  17.627  0.00  0.00    +0.000 C 
ATOM      2  C   UNL     1       6.667   6.019  18.283  0.00  0.00    +0.000 C 
ATOM      3  C   UNL     1       6.023   5.400  17.102  0.00  0.00    +0.000 A 
ATOM      4  C   UNL     1       4.882   4.603  16.976  0.00  0.00    +0.000 A 
ATOM      5  C   UNL     1       4.625   4.128  15.673  0.00  0.00    +0.000 A 
ATOM      6  C   UNL     1       5.486   4.446  14.623  0.00  0.00    +0.000 A 
ATOM      7  N   UNL     1       6.581   5.220  14.751  0.00  0.00    +0.000 NA
ATOM      8  C   UNL     1       6.799   5.667  15.990  0.00  0.00    +0.000 A 
ATOM      9  O   UNL     1       7.901   6.462  16.226  0.00  0.00    +0.000 OA
ENDROOT
BRANCH   4  10
ATOM     10  C   UNL     1       3.994   4.229  18.107  0.00  0.00    +0.000 A 
ATOM     11  C   UNL     1       4.376   3.289  19.082  0.00  0.00    +0.000 A 
ATOM     12  C   UNL     1       3.512   2.895  20.112  0.00  0.00    +0.000 A 
ATOM     13  C   UNL     1       2.255   3.473  20.218  0.00  0.00    +0.000 A 
ATOM     14 CL   UNL     1       1.195   2.996  21.484  0.00  0.00    +0.000 Cl
ATOM     15  C   UNL     1       1.858   4.441  19.304  0.00  0.00    +0.000 A 
ATOM     16  C   UNL     1       2.714   4.802  18.255  0.00  0.00    +0.000 A 
ENDBRANCH   4  10
BRANCH   1  18
ATOM     17  O   UNL     1       6.706   8.895  17.529  0.00  0.00    +0.000 OA
ATOM     18  C   UNL     1       7.715   8.288  17.880  0.00  0.00    +0.000 C 
ATOM     19  N   UNL     1       8.803   8.837  18.535  0.00  0.00    +0.000 N 
ATOM     20  H   UNL     1       9.613   8.228  18.633  0.00  0.00    +0.000 HD
BRANCH  19  21
ATOM     21  C   UNL     1       8.968  10.197  18.872  0.00  0.00    +0.000 A 
ATOM     22  C   UNL     1       8.890  11.235  17.937  0.00  0.00    +0.000 A 
ATOM     23  C   UNL     1       9.138  12.558  18.310  0.00  0.00    +0.000 A 
ATOM     24  C   UNL     1       9.457  12.856  19.630  0.00  0.00    +0.000 A 
ATOM     25 CL   UNL     1       9.810  14.477  20.078  0.00  0.00    +0.000 Cl
ATOM     26  C   UNL     1       9.497  11.842  20.584  0.00  0.00    +0.000 A 
ATOM     27  C   UNL     1       9.243  10.516  20.207  0.00  0.00    +0.000 A 
ENDBRANCH  19  21
ENDBRANCH   1  18
TORSDOF 3
ENDMDL
MODEL 2
REMARK VINA RESULT:      -8.4      0.353      1.005
REMARK  Name = 
REMARK  3 active torsions:
REMARK  status: ('A' for Active; 'I' for Inactive)
REMARK    1  A    between atoms: C_2  and  C_11
REMARK    2  A    between atoms: N_3  and  C_4
REMARK    3  A    between atoms: C_14  and  C_15
REMARK                            x       y       z     vdW  Elec       q    Type
REMARK                         _______ _______ _______ _____ _____    ______ ____
ROOT
ATOM      1  C   UNL     1       7.931   6.778  17.722  0.00  0.00    +0.000 C 
ATOM      2  C   UNL     1       6.796   6.023  18.429  0.00  0.00    +0.000 C 
ATOM      3  C   UNL     1       6.085   5.424  17.277  0.00  0.00    +0.000 A 
ATOM      4  C   UNL     1       4.934   4.637  17.202  0.00  0.00    +0.000 A 
ATOM      5  C   UNL     1       4.604   4.180  15.909  0.00  0.00    +0.000 A 
ATOM      6  C   UNL     1       5.410   4.505  14.818  0.00  0.00    +0.000 A 
ATOM      7  N   UNL     1       6.516   5.270  14.898  0.00  0.00    +0.000 NA
ATOM      8  C   UNL     1       6.803   5.700  16.129  0.00  0.00    +0.000 A 
ATOM      9  O   UNL     1       7.922   6.484  16.315  0.00  0.00    +0.000 OA
ENDROOT
BRANCH   4  10
ATOM     10  C   UNL     1       4.104   4.254  18.374  0.00  0.00    +0.000 A 
ATOM     11  C   UNL     1       4.223   3.000  19.000  0.00  0.00    +0.000 A 
ATOM     12  C   UNL     1       3.398   2.621  20.066  0.00  0.00    +0.000 A 
ATOM     13  C   UNL     1       2.460   3.514  20.566  0.00  0.00    +0.000 A 
ATOM     14 CL   UNL     1       1.450   3.054  21.877  0.00  0.00    +0.000 Cl
ATOM     15  C   UNL     1       2.344   4.781  20.007  0.00  0.00    +0.000 A 
ATOM     16  C   UNL     1       3.149   5.139  18.916  0.00  0.00    +0.000 A 
ENDBRANCH   4  10
BRANCH   1  18
ATOM     17  O   UNL     1       6.867   8.932  17.605  0.00  0.00    +0.000 OA
ATOM     18  C   UNL     1       7.838   8.290  17.999  0.00  0.00    +0.000 C 
ATOM     19  N   UNL     1       8.901   8.797  18.726  0.00  0.00    +0.000 N 
ATOM     20  H   UNL     1       9.688   8.164  18.857  0.00  0.00    +0.000 HD
BRANCH  19  21
ATOM     21  C   UNL     1       9.082  10.145  19.101  0.00  0.00    +0.000 A 
ATOM     22  C   UNL     1       9.212  10.562  20.430  0.00  0.00    +0.000 A 
ATOM     23  C   UNL     1       9.310  11.918  20.751  0.00  0.00    +0.000 A 
ATOM     24  C   UNL     1       9.290  12.871  19.740  0.00  0.00    +0.000 A 
ATOM     25 CL   UNL     1       9.363  14.541  20.139  0.00  0.00    +0.000 Cl
ATOM     26  C   UNL     1       9.206  12.473  18.408  0.00  0.00    +0.000 A 
ATOM     27  C   UNL     1       9.111  11.111  18.089  0.00  0.00    +0.000 A 
ENDBRANCH  19  21
ENDBRANCH   1  18
TORSDOF 3
ENDMDL
MODEL 3
REMARK VINA RESULT:      -8.3      4.787      6.894
REMARK  Name = 
REMARK  3 active torsions:
REMARK  status: ('A' for Active; 'I' for Inactive)
REMARK    1  A    between atoms: C_2  and  C_11
REMARK    2  A    between atoms: N_3  and  C_4
REMARK    3  A    between atoms: C_14  and  C_15
REMARK                            x       y       z     vdW  Elec       q    Type
REMARK                         _______ _______ _______ _____ _____    ______ ____
ROOT
ATOM      1  C   UNL     1       5.969   4.557  19.322  0.00  0.00    +0.000 C 
ATOM      2  C   UNL     1       5.003   5.750  19.342  0.00  0.00    +0.000 C 
ATOM      3  C   UNL     1       3.704   5.067  19.538  0.00  0.00    +0.000 A 
ATOM      4  C   UNL     1       2.398   5.557  19.614  0.00  0.00    +0.000 A 
ATOM      5  C   UNL     1       1.411   4.589  19.894  0.00  0.00    +0.000 A 
ATOM      6  C   UNL     1       1.765   3.254  20.087  0.00  0.00    +0.000 A 
ATOM      7  N   UNL     1       3.027   2.789  20.006  0.00  0.00    +0.000 NA
ATOM      8  C   UNL     1       3.943   3.720  19.730  0.00  0.00    +0.000 A 
ATOM      9  O   UNL     1       5.266   3.343  19.635  0.00  0.00    +0.000 OA
ENDROOT
BRANCH   4  10
ATOM     10  C   UNL     1       2.030   6.988  19.453  0.00  0.00    +0.000 A 
ATOM     11  C   UNL     1       1.536   7.761  20.520  0.00  0.00    +0.000 A 
ATOM     12  C   UNL     1       1.134   9.091  20.350  0.00  0.00    +0.000 A 
ATOM     13  C   UNL     1       1.265   9.699  19.109  0.00  0.00    +0.000 A 
ATOM     14 CL   UNL     1       0.779  11.334  18.898  0.00  0.00    +0.000 Cl
ATOM     15  C   UNL     1       1.795   8.985  18.041  0.00  0.00    +0.000 A 
ATOM     16  C   UNL     1       2.160   7.643  18.211  0.00  0.00    +0.000 A 
ENDBRANCH   4  10
BRANCH   1  18
ATOM     17  O   UNL     1       7.927   4.366  17.939  0.00  0.00    +0.000 OA
ATOM     18  C   UNL     1       6.703   4.470  17.971  0.00  0.00    +0.000 C 
ATOM     19  N   UNL     1       5.864   4.492  16.870  0.00  0.00    +0.000 N 
ATOM     20  H   UNL     1       4.891   4.720  17.062  0.00  0.00    +0.000 HD
BRANCH  19  21
ATOM     21  C   UNL     1       6.268   4.448  15.519  0.00  0.00    +0.000 A 
ATOM     22  C   UNL     1       7.338   5.193  15.012  0.00  0.00    +0.000 A 
ATOM     23  C   UNL     1       7.648   5.172  13.650  0.00  0.00    +0.000 A 
ATOM     24  C   UNL     1       6.891   4.394  12.782  0.00  0.00    +0.000 A 
ATOM     25 CL   UNL     1       7.242   4.407  11.099  0.00  0.00    +0.000 Cl
ATOM     26  C   UNL     1       5.849   3.612  13.274  0.00  0.00    +0.000 A 
ATOM     27  C   UNL     1       5.544   3.632  14.642  0.00  0.00    +0.000 A 
ENDBRANCH  19  21
ENDBRANCH   1  18
TORSDOF 3
ENDMDL
MODEL 4
REMARK VINA RESULT:      -8.1      4.762      6.964
REMARK  Name = 
REMARK  3 active torsions:
REMARK  status: ('A' for Active; 'I' for Inactive)
REMARK    1  A    between atoms: C_2  and  C_11
REMARK    2  A    between atoms: N_3  and  C_4
REMARK    3  A    between atoms: C_14  and  C_15
REMARK                            x       y       z     vdW  Elec       q    Type
REMARK                         _______ _______ _______ _____ _____    ______ ____
ROOT
ATOM      1  C   UNL     1       5.960   4.661  19.267  0.00  0.00    +0.000 C 
ATOM      2  C   UNL     1       4.979   5.843  19.279  0.00  0.00    +0.000 C 
ATOM      3  C   UNL     1       3.706   5.158  19.599  0.00  0.00    +0.000 A 
ATOM      4  C   UNL     1       2.400   5.637  19.730  0.00  0.00    +0.000 A 
ATOM      5  C   UNL     1       1.448   4.676  20.130  0.00  0.00    +0.000 A 
ATOM      6  C   UNL     1       1.834   3.360  20.379  0.00  0.00    +0.000 A 
ATOM      7  N   UNL     1       3.095   2.904  20.245  0.00  0.00    +0.000 NA
ATOM      8  C   UNL     1       3.977   3.827  19.855  0.00  0.00    +0.000 A 
ATOM      9  O   UNL     1       5.298   3.461  19.697  0.00  0.00    +0.000 OA
ENDROOT
BRANCH   4  10
ATOM     10  C   UNL     1       2.001   7.051  19.509  0.00  0.00    +0.000 A 
ATOM     11  C   UNL     1       2.142   7.684  18.260  0.00  0.00    +0.000 A 
ATOM     12  C   UNL     1       1.821   9.034  18.071  0.00  0.00    +0.000 A 
ATOM     13  C   UNL     1       1.302   9.774  19.124  0.00  0.00    +0.000 A 
ATOM     14 CL   UNL     1       0.901  11.430  18.895  0.00  0.00    +0.000 Cl
ATOM     15  C   UNL     1       1.102   9.173  20.361  0.00  0.00    +0.000 A 
ATOM     16  C   UNL     1       1.460   7.832  20.551  0.00  0.00    +0.000 A 
ENDBRANCH   4  10
BRANCH   1  18
ATOM     17  O   UNL     1       7.814   4.290  17.781  0.00  0.00    +0.000 OA
ATOM     18  C   UNL     1       6.607   4.502  17.879  0.00  0.00    +0.000 C 
ATOM     19  N   UNL     1       5.713   4.590  16.825  0.00  0.00    +0.000 N 
ATOM     20  H   UNL     1       4.776   4.903  17.068  0.00  0.00    +0.000 HD
BRANCH  19  21
ATOM     21  C   UNL     1       6.036   4.502  15.455  0.00  0.00    +0.000 A 
ATOM     22  C   UNL     1       5.309   3.729  14.543  0.00  0.00    +0.000 A 
ATOM     23  C   UNL     1       5.717   3.615  13.212  0.00  0.00    +0.000 A 
ATOM     24  C   UNL     1       6.855   4.284  12.779  0.00  0.00    +0.000 A 
ATOM     25 CL   UNL     1       7.385   4.104  11.153  0.00  0.00    +0.000 Cl
ATOM     26  C   UNL     1       7.568   5.093  13.660  0.00  0.00    +0.000 A 
ATOM     27  C   UNL     1       7.153   5.209  14.994  0.00  0.00    +0.000 A 
ENDBRANCH  19  21
ENDBRANCH   1  18
TORSDOF 3
ENDMDL
MODEL 5
REMARK VINA RESULT:      -7.6      6.709      9.714
REMARK  Name = 
REMARK  3 active torsions:
REMARK  status: ('A' for Active; 'I' for Inactive)
REMARK    1  A    between atoms: C_2  and  C_11
REMARK    2  A    between atoms: N_3  and  C_4
REMARK    3  A    between atoms: C_14  and  C_15
REMARK                            x       y       z     vdW  Elec       q    Type
REMARK                         _______ _______ _______ _____ _____    ______ ____
ROOT
ATOM      1  C   UNL     1       1.619   9.470  19.451  0.00  0.00    +0.000 C 
ATOM      2  C   UNL     1       0.514   9.658  18.402  0.00  0.00    +0.000 C 
ATOM      3  C   UNL     1      -0.465  10.473  19.156  0.00  0.00    +0.000 A 
ATOM      4  C   UNL     1      -1.723  10.972  18.808  0.00  0.00    +0.000 A 
ATOM      5  C   UNL     1      -2.333  11.789  19.783  0.00  0.00    +0.000 A 
ATOM      6  C   UNL     1      -1.680  12.061  20.985  0.00  0.00    +0.000 A 
ATOM      7  N   UNL     1      -0.470  11.571  21.316  0.00  0.00    +0.000 NA
ATOM      8  C   UNL     1       0.084  10.792  20.383  0.00  0.00    +0.000 A 
ATOM      9  O   UNL     1       1.328  10.248  20.624  0.00  0.00    +0.000 OA
ENDROOT
BRANCH   4  10
ATOM     10  C   UNL     1      -2.394  10.717  17.507  0.00  0.00    +0.000 A 
ATOM     11  C   UNL     1      -1.922   9.756  16.595  0.00  0.00    +0.000 A 
ATOM     12  C   UNL     1      -2.522   9.561  15.344  0.00  0.00    +0.000 A 
ATOM     13  C   UNL     1      -3.647  10.297  14.996  0.00  0.00    +0.000 A 
ATOM     14 CL   UNL     1      -4.389  10.056  13.465  0.00  0.00    +0.000 Cl
ATOM     15  C   UNL     1      -4.173  11.222  15.889  0.00  0.00    +0.000 A 
ATOM     16  C   UNL     1      -3.545  11.436  17.123  0.00  0.00    +0.000 A 
ENDBRANCH   4  10
BRANCH   1  18
ATOM     17  O   UNL     1       1.487   7.539  20.880  0.00  0.00    +0.000 OA
ATOM     18  C   UNL     1       1.814   7.978  19.779  0.00  0.00    +0.000 C 
ATOM     19  N   UNL     1       2.340   7.235  18.736  0.00  0.00    +0.000 N 
ATOM     20  H   UNL     1       2.682   7.771  17.941  0.00  0.00    +0.000 HD
BRANCH  19  21
ATOM     21  C   UNL     1       2.639   5.857  18.768  0.00  0.00    +0.000 A 
ATOM     22  C   UNL     1       3.724   5.322  19.473  0.00  0.00    +0.000 A 
ATOM     23  C   UNL     1       4.021   3.959  19.408  0.00  0.00    +0.000 A 
ATOM     24  C   UNL     1       3.226   3.114  18.644  0.00  0.00    +0.000 A 
ATOM     25 CL   UNL     1       3.620   1.445  18.526  0.00  0.00    +0.000 Cl
ATOM     26  C   UNL     1       2.116   3.619  17.971  0.00  0.00    +0.000 A 
ATOM     27  C   UNL     1       1.818   4.987  18.041  0.00  0.00    +0.000 A 
ENDBRANCH  19  21
ENDBRANCH   1  18
TORSDOF 3
ENDMDL
MODEL 6
REMARK VINA RESULT:      -7.5      6.638      9.674
REMARK  Name = 
REMARK  3 active torsions:
REMARK  status: ('A' for Active; 'I' for Inactive)
REMARK    1  A    between atoms: C_2  and  C_11
REMARK    2  A    between atoms: N_3  and  C_4
REMARK    3  A    between atoms: C_14  and  C_15
REMARK                            x       y       z     vdW  Elec       q    Type
REMARK                         _______ _______ _______ _____ _____    ______ ____
ROOT
ATOM      1  C   UNL     1       1.708   9.381  19.209  0.00  0.00    +0.000 C 
ATOM      2  C   UNL     1       0.583   9.617  18.191  0.00  0.00    +0.000 C 
ATOM      3  C   UNL     1      -0.381  10.396  19.002  0.00  0.00    +0.000 A 
ATOM      4  C   UNL     1      -1.644  10.910  18.702  0.00  0.00    +0.000 A 
ATOM      5  C   UNL     1      -2.235  11.681  19.726  0.00  0.00    +0.000 A 
ATOM      6  C   UNL     1      -1.558  11.898  20.926  0.00  0.00    +0.000 A 
ATOM      7  N   UNL     1      -0.341  11.393  21.209  0.00  0.00    +0.000 NA
ATOM      8  C   UNL     1       0.193  10.658  20.231  0.00  0.00    +0.000 A 
ATOM      9  O   UNL     1       1.442  10.104  20.422  0.00  0.00    +0.000 OA
ENDROOT
BRANCH   4  10
ATOM     10  C   UNL     1      -2.342  10.716  17.405  0.00  0.00    +0.000 A 
ATOM     11  C   UNL     1      -3.476  11.465  17.042  0.00  0.00    +0.000 A 
ATOM     12  C   UNL     1      -4.165  11.237  15.845  0.00  0.00    +0.000 A 
ATOM     13  C   UNL     1      -3.703  10.279  14.953  0.00  0.00    +0.000 A 
ATOM     14 CL   UNL     1      -4.542  10.000  13.480  0.00  0.00    +0.000 Cl
ATOM     15  C   UNL     1      -2.557   9.551  15.251  0.00  0.00    +0.000 A 
ATOM     16  C   UNL     1      -1.895   9.760  16.469  0.00  0.00    +0.000 A 
ENDBRANCH   4  10
BRANCH   1  18
ATOM     17  O   UNL     1       1.650   7.395  20.565  0.00  0.00    +0.000 OA
ATOM     18  C   UNL     1       1.909   7.875  19.463  0.00  0.00    +0.000 C 
ATOM     19  N   UNL     1       2.358   7.171  18.360  0.00  0.00    +0.000 N 
ATOM     20  H   UNL     1       2.654   7.736  17.566  0.00  0.00    +0.000 HD
BRANCH  19  21
ATOM     21  C   UNL     1       2.645   5.791  18.318  0.00  0.00    +0.000 A 
ATOM     22  C   UNL     1       1.727   4.828  17.884  0.00  0.00    +0.000 A 
ATOM     23  C   UNL     1       2.034   3.467  17.936  0.00  0.00    +0.000 A 
ATOM     24  C   UNL     1       3.272   3.056  18.414  0.00  0.00    +0.000 A 
ATOM     25 CL   UNL     1       3.631   1.378  18.522  0.00  0.00    +0.000 Cl
ATOM     26  C   UNL     1       4.217   4.000  18.809  0.00  0.00    +0.000 A 
ATOM     27  C   UNL     1       3.906   5.366  18.751  0.00  0.00    +0.000 A 
ENDBRANCH  19  21
ENDBRANCH   1  18
TORSDOF 3
ENDMDL
MODEL 7
REMARK VINA RESULT:      -7.5      4.702      6.988
REMARK  Name = 
REMARK  3 active torsions:
REMARK  status: ('A' for Active; 'I' for Inactive)
REMARK    1  A    between atoms: C_2  and  C_11
REMARK    2  A    between atoms: N_3  and  C_4
REMARK    3  A    between atoms: C_14  and  C_15
REMARK                            x       y       z     vdW  Elec       q    Type
REMARK                         _______ _______ _______ _____ _____    ______ ____
ROOT
ATOM      1  C   UNL     1       3.578   4.506  19.212  0.00  0.00    +0.000 C 
ATOM      2  C   UNL     1       4.170   4.322  17.808  0.00  0.00    +0.000 C 
ATOM      3  C   UNL     1       5.562   4.780  18.019  0.00  0.00    +0.000 A 
ATOM      4  C   UNL     1       6.642   4.907  17.142  0.00  0.00    +0.000 A 
ATOM      5  C   UNL     1       7.855   5.308  17.740  0.00  0.00    +0.000 A 
ATOM      6  C   UNL     1       7.924   5.534  19.115  0.00  0.00    +0.000 A 
ATOM      7  N   UNL     1       6.875   5.415  19.953  0.00  0.00    +0.000 NA
ATOM      8  C   UNL     1       5.736   5.045  19.364  0.00  0.00    +0.000 A 
ATOM      9  O   UNL     1       4.607   4.887  20.140  0.00  0.00    +0.000 OA
ENDROOT
BRANCH   4  10
ATOM     10  C   UNL     1       6.576   4.621  15.685  0.00  0.00    +0.000 A 
ATOM     11  C   UNL     1       5.589   3.787  15.128  0.00  0.00    +0.000 A 
ATOM     12  C   UNL     1       5.567   3.471  13.764  0.00  0.00    +0.000 A 
ATOM     13  C   UNL     1       6.510   4.027  12.911  0.00  0.00    +0.000 A 
ATOM     14 CL   UNL     1       6.482   3.647  11.235  0.00  0.00    +0.000 Cl
ATOM     15  C   UNL     1       7.472   4.895  13.413  0.00  0.00    +0.000 A 
ATOM     16  C   UNL     1       7.510   5.176  14.786  0.00  0.00    +0.000 A 
ENDBRANCH   4  10
BRANCH   1  18
ATOM     17  O   UNL     1       1.348   5.217  18.659  0.00  0.00    +0.000 OA
ATOM     18  C   UNL     1       2.416   5.517  19.187  0.00  0.00    +0.000 C 
ATOM     19  N   UNL     1       2.697   6.715  19.820  0.00  0.00    +0.000 N 
ATOM     20  H   UNL     1       3.670   6.856  20.085  0.00  0.00    +0.000 HD
BRANCH  19  21
ATOM     21  C   UNL     1       1.826   7.820  19.928  0.00  0.00    +0.000 A 
ATOM     22  C   UNL     1       1.063   8.088  21.069  0.00  0.00    +0.000 A 
ATOM     23  C   UNL     1       0.157   9.151  21.095  0.00  0.00    +0.000 A 
ATOM     24  C   UNL     1       0.016   9.965  19.977  0.00  0.00    +0.000 A 
ATOM     25 CL   UNL     1      -1.133  11.244  19.992  0.00  0.00    +0.000 Cl
ATOM     26  C   UNL     1       0.799   9.742  18.847  0.00  0.00    +0.000 A 
ATOM     27  C   UNL     1       1.710   8.677  18.826  0.00  0.00    +0.000 A 
ENDBRANCH  19  21
ENDBRANCH   1  18
TORSDOF 3
ENDMDL
MODEL 8
REMARK VINA RESULT:      -7.4      7.093      9.903
REMARK  Name = 
REMARK  3 active torsions:
REMARK  status: ('A' for Active; 'I' for Inactive)
REMARK    1  A    between atoms: C_2  and  C_11
REMARK    2  A    between atoms: N_3  and  C_4
REMARK    3  A    between atoms: C_14  and  C_15
REMARK                            x       y       z     vdW  Elec       q    Type
REMARK                         _______ _______ _______ _____ _____    ______ ____
ROOT
ATOM      1  C   UNL     1       1.163  10.101  20.033  0.00  0.00    +0.000 C 
ATOM      2  C   UNL     1       0.160  10.147  18.872  0.00  0.00    +0.000 C 
ATOM      3  C   UNL     1      -0.926  10.963  19.461  0.00  0.00    +0.000 A 
ATOM      4  C   UNL     1      -2.165  11.365  18.956  0.00  0.00    +0.000 A 
ATOM      5  C   UNL     1      -2.906  12.221  19.799  0.00  0.00    +0.000 A 
ATOM      6  C   UNL     1      -2.389  12.620  21.031  0.00  0.00    +0.000 A 
ATOM      7  N   UNL     1      -1.195  12.222  21.513  0.00  0.00    +0.000 NA
ATOM      8  C   UNL     1      -0.516  11.405  20.704  0.00  0.00    +0.000 A 
ATOM      9  O   UNL     1       0.722  10.950  21.105  0.00  0.00    +0.000 OA
ENDROOT
BRANCH   4  10
ATOM     10  C   UNL     1      -2.692  10.975  17.623  0.00  0.00    +0.000 A 
ATOM     11  C   UNL     1      -2.056  10.014  16.816  0.00  0.00    +0.000 A 
ATOM     12  C   UNL     1      -2.522   9.693  15.535  0.00  0.00    +0.000 A 
ATOM     13  C   UNL     1      -3.674  10.296  15.048  0.00  0.00    +0.000 A 
ATOM     14 CL   UNL     1      -4.253   9.901  13.479  0.00  0.00    +0.000 Cl
ATOM     15  C   UNL     1      -4.359  11.215  15.833  0.00  0.00    +0.000 A 
ATOM     16  C   UNL     1      -3.865  11.558  17.099  0.00  0.00    +0.000 A 
ENDBRANCH   4  10
BRANCH   1  18
ATOM     17  O   UNL     1       0.978   8.281  21.594  0.00  0.00    +0.000 OA
ATOM     18  C   UNL     1       1.394   8.651  20.499  0.00  0.00    +0.000 C 
ATOM     19  N   UNL     1       2.058   7.861  19.577  0.00  0.00    +0.000 N 
ATOM     20  H   UNL     1       2.454   8.353  18.778  0.00  0.00    +0.000 HD
BRANCH  19  21
ATOM     21  C   UNL     1       2.418   6.508  19.750  0.00  0.00    +0.000 A 
ATOM     22  C   UNL     1       1.730   5.633  20.598  0.00  0.00    +0.000 A 
ATOM     23  C   UNL     1       2.174   4.323  20.793  0.00  0.00    +0.000 A 
ATOM     24  C   UNL     1       3.310   3.874  20.131  0.00  0.00    +0.000 A 
ATOM     25 CL   UNL     1       3.884   2.277  20.409  0.00  0.00    +0.000 Cl
ATOM     26  C   UNL     1       3.983   4.715  19.249  0.00  0.00    +0.000 A 
ATOM     27  C   UNL     1       3.532   6.028  19.052  0.00  0.00    +0.000 A 
ENDBRANCH  19  21
ENDBRANCH   1  18
TORSDOF 3
ENDMDL
MODEL 9
REMARK VINA RESULT:      -7.4      4.735      6.872
REMARK  Name = 
REMARK  3 active torsions:
REMARK  status: ('A' for Active; 'I' for Inactive)
REMARK    1  A    between atoms: C_2  and  C_11
REMARK    2  A    between atoms: N_3  and  C_4
REMARK    3  A    between atoms: C_14  and  C_15
REMARK                            x       y       z     vdW  Elec       q    Type
REMARK                         _______ _______ _______ _____ _____    ______ ____
ROOT
ATOM      1  C   UNL     1       3.438   4.638  18.824  0.00  0.00    +0.000 C 
ATOM      2  C   UNL     1       4.132   4.456  17.467  0.00  0.00    +0.000 C 
ATOM      3  C   UNL     1       5.528   4.815  17.806  0.00  0.00    +0.000 A 
ATOM      4  C   UNL     1       6.683   4.896  17.024  0.00  0.00    +0.000 A 
ATOM      5  C   UNL     1       7.865   5.199  17.732  0.00  0.00    +0.000 A 
ATOM      6  C   UNL     1       7.833   5.380  19.115  0.00  0.00    +0.000 A 
ATOM      7  N   UNL     1       6.713   5.306  19.861  0.00  0.00    +0.000 NA
ATOM      8  C   UNL     1       5.606   5.029  19.168  0.00  0.00    +0.000 A 
ATOM      9  O   UNL     1       4.408   4.923  19.844  0.00  0.00    +0.000 OA
ENDROOT
BRANCH   4  10
ATOM     10  C   UNL     1       6.720   4.656  15.558  0.00  0.00    +0.000 A 
ATOM     11  C   UNL     1       5.866   3.733  14.926  0.00  0.00    +0.000 A 
ATOM     12  C   UNL     1       5.946   3.467  13.554  0.00  0.00    +0.000 A 
ATOM     13  C   UNL     1       6.856   4.159  12.767  0.00  0.00    +0.000 A 
ATOM     14 CL   UNL     1       6.952   3.839  11.081  0.00  0.00    +0.000 Cl
ATOM     15  C   UNL     1       7.683   5.115  13.344  0.00  0.00    +0.000 A 
ATOM     16  C   UNL     1       7.623   5.349  14.725  0.00  0.00    +0.000 A 
ENDBRANCH   4  10
BRANCH   1  18
ATOM     17  O   UNL     1       1.327   5.524  18.086  0.00  0.00    +0.000 OA
ATOM     18  C   UNL     1       2.348   5.724  18.739  0.00  0.00    +0.000 C 
ATOM     19  N   UNL     1       2.632   6.865  19.469  0.00  0.00    +0.000 N 
ATOM     20  H   UNL     1       3.577   6.927  19.842  0.00  0.00    +0.000 HD
BRANCH  19  21
ATOM     21  C   UNL     1       1.823   8.018  19.552  0.00  0.00    +0.000 A 
ATOM     22  C   UNL     1       1.652   8.915  18.492  0.00  0.00    +0.000 A 
ATOM     23  C   UNL     1       0.902  10.083  18.651  0.00  0.00    +0.000 A 
ATOM     24  C   UNL     1       0.305  10.357  19.876  0.00  0.00    +0.000 A 
ATOM     25 CL   UNL     1      -0.578  11.818  20.086  0.00  0.00    +0.000 Cl
ATOM     26  C   UNL     1       0.426   9.455  20.930  0.00  0.00    +0.000 A 
ATOM     27  C   UNL     1       1.176   8.283  20.765  0.00  0.00    +0.000 A 
ENDBRANCH  19  21
ENDBRANCH   1  18
TORSDOF 3
ENDMDL
