MODEL 1
REMARK VINA RESULT:      -8.0      0.000      0.000
REMARK  Name = 
REMARK  4 active torsions:
REMARK  status: ('A' for Active; 'I' for Inactive)
REMARK    1  A    between atoms: N_1  and  C_2
REMARK    2  A    between atoms: C_2  and  C_4
REMARK    3  A    between atoms: C_8  and  C_9
REMARK    4  A    between atoms: C_15  and  O_16
REMARK                            x       y       z     vdW  Elec       q    Type
REMARK                         _______ _______ _______ _____ _____    ______ ____
ROOT
ATOM      1  C   UNL     1       5.684   4.946  15.744  0.00  0.00    +0.000 A 
ATOM      2  C   UNL     1       6.973   5.246  16.147  0.00  0.00    +0.000 A 
ATOM      3  N   UNL     1       7.601   5.622  15.000  0.00  0.00    +0.000 N 
ATOM      4  C   UNL     1       7.112   4.860  13.977  0.00  0.00    +0.000 A 
ATOM      5  C   UNL     1       7.687   4.575  12.736  0.00  0.00    +0.000 A 
ATOM      6  C   UNL     1       6.967   3.751  11.879  0.00  0.00    +0.000 A 
ATOM      7  C   UNL     1       5.691   3.323  12.245  0.00  0.00    +0.000 A 
ATOM      8  C   UNL     1       5.086   3.695  13.453  0.00  0.00    +0.000 A 
ATOM      9  C   UNL     1       5.843   4.429  14.399  0.00  0.00    +0.000 A 
ATOM     10  H   UNL     1       8.364   6.281  14.940  0.00  0.00    +0.000 HD
ENDROOT
BRANCH   1  15
ATOM     11  C   UNL     1       2.800   4.197  18.081  0.00  0.00    +0.000 A 
ATOM     12  C   UNL     1       2.549   5.459  18.622  0.00  0.00    +0.000 A 
ATOM     13  C   UNL     1       3.297   6.564  18.207  0.00  0.00    +0.000 A 
ATOM     14  C   UNL     1       4.317   6.438  17.249  0.00  0.00    +0.000 A 
ATOM     15  C   UNL     1       4.586   5.200  16.682  0.00  0.00    +0.000 A 
ATOM     16  C   UNL     1       3.811   4.090  17.117  0.00  0.00    +0.000 A 
BRANCH  11  17
ATOM     17  C   UNL     1       2.054   2.985  18.555  0.00  0.00    +0.000 C 
ATOM     18  S   UNL     1       0.954   2.941  19.817  0.00  0.00    +0.000 S 
BRANCH  17  19
ATOM     19  N   UNL     1       2.319   1.787  17.917  0.00  0.00    +0.000 N 
ATOM     20  H   UNL     1       2.898   1.802  17.082  0.00  0.00    +0.000 HD
ATOM     21  H   UNL     1       1.871   0.922  18.150  0.00  0.00    +0.000 HD
ENDBRANCH  17  19
ENDBRANCH  11  17
ENDBRANCH   1  15
BRANCH   7  22
ATOM     22  O   UNL     1       5.003   2.490  11.394  0.00  0.00    +0.000 OA
ATOM     23  H   UNL     1       4.692   1.718  11.899  0.00  0.00    +0.000 HD
ENDBRANCH   7  22
TORSDOF 4
ENDMDL
MODEL 2
REMARK VINA RESULT:      -8.0      2.063      2.526
REMARK  Name = 
REMARK  4 active torsions:
REMARK  status: ('A' for Active; 'I' for Inactive)
REMARK    1  A    between atoms: N_1  and  C_2
REMARK    2  A    between atoms: C_2  and  C_4
REMARK    3  A    between atoms: C_8  and  C_9
REMARK    4  A    between atoms: C_15  and  O_16
REMARK                            x       y       z     vdW  Elec       q    Type
REMARK                         _______ _______ _______ _____ _____    ______ ____
ROOT
ATOM      1  C   UNL     1       5.550   4.668  15.972  0.00  0.00    +0.000 A 
ATOM      2  C   UNL     1       6.749   5.164  16.453  0.00  0.00    +0.000 A 
ATOM      3  N   UNL     1       7.330   5.740  15.368  0.00  0.00    +0.000 N 
ATOM      4  C   UNL     1       7.022   4.988  14.269  0.00  0.00    +0.000 A 
ATOM      5  C   UNL     1       7.677   4.916  13.037  0.00  0.00    +0.000 A 
ATOM      6  C   UNL     1       7.149   4.047  12.090  0.00  0.00    +0.000 A 
ATOM      7  C   UNL     1       5.963   3.364  12.366  0.00  0.00    +0.000 A 
ATOM      8  C   UNL     1       5.264   3.520  13.569  0.00  0.00    +0.000 A 
ATOM      9  C   UNL     1       5.843   4.300  14.601  0.00  0.00    +0.000 A 
ATOM     10  H   UNL     1       7.959   6.530  15.391  0.00  0.00    +0.000 HD
ENDROOT
BRANCH   1  15
ATOM     11  C   UNL     1       2.840   5.975  18.272  0.00  0.00    +0.000 A 
ATOM     12  C   UNL     1       2.091   4.819  18.499  0.00  0.00    +0.000 A 
ATOM     13  C   UNL     1       2.480   3.605  17.927  0.00  0.00    +0.000 A 
ATOM     14  C   UNL     1       3.621   3.513  17.113  0.00  0.00    +0.000 A 
ATOM     15  C   UNL     1       4.396   4.640  16.876  0.00  0.00    +0.000 A 
ATOM     16  C   UNL     1       3.983   5.864  17.469  0.00  0.00    +0.000 A 
BRANCH  11  17
ATOM     17  C   UNL     1       2.408   7.303  18.822  0.00  0.00    +0.000 C 
ATOM     18  S   UNL     1       2.191   8.707  17.937  0.00  0.00    +0.000 S 
BRANCH  17  19
ATOM     19  N   UNL     1       2.201   7.387  20.187  0.00  0.00    +0.000 N 
ATOM     20  H   UNL     1       1.245   7.389  20.531  0.00  0.00    +0.000 HD
ATOM     21  H   UNL     1       2.929   7.575  20.849  0.00  0.00    +0.000 HD
ENDBRANCH  17  19
ENDBRANCH  11  17
ENDBRANCH   1  15
BRANCH   7  22
ATOM     22  O   UNL     1       5.468   2.493  11.424  0.00  0.00    +0.000 OA
ATOM     23  H   UNL     1       6.163   1.848  11.202  0.00  0.00    +0.000 HD
ENDBRANCH   7  22
TORSDOF 4
ENDMDL
MODEL 3
REMARK VINA RESULT:      -7.8      1.130      1.130
REMARK  Name = 
REMARK  4 active torsions:
REMARK  status: ('A' for Active; 'I' for Inactive)
REMARK    1  A    between atoms: N_1  and  C_2
REMARK    2  A    between atoms: C_2  and  C_4
REMARK    3  A    between atoms: C_8  and  C_9
REMARK    4  A    between atoms: C_15  and  O_16
REMARK                            x       y       z     vdW  Elec       q    Type
REMARK                         _______ _______ _______ _____ _____    ______ ____
ROOT
ATOM      1  C   UNL     1       5.852   4.812  15.870  0.00  0.00    +0.000 A 
ATOM      2  C   UNL     1       7.152   5.160  16.191  0.00  0.00    +0.000 A 
ATOM      3  N   UNL     1       7.668   5.630  15.024  0.00  0.00    +0.000 N 
ATOM      4  C   UNL     1       7.140   4.898  13.998  0.00  0.00    +0.000 A 
ATOM      5  C   UNL     1       7.630   4.711  12.703  0.00  0.00    +0.000 A 
ATOM      6  C   UNL     1       6.887   3.896  11.857  0.00  0.00    +0.000 A 
ATOM      7  C   UNL     1       5.666   3.380  12.294  0.00  0.00    +0.000 A 
ATOM      8  C   UNL     1       5.140   3.653  13.563  0.00  0.00    +0.000 A 
ATOM      9  C   UNL     1       5.931   4.376  14.489  0.00  0.00    +0.000 A 
ATOM     10  H   UNL     1       8.390   6.332  14.943  0.00  0.00    +0.000 HD
ENDROOT
BRANCH   1  15
ATOM     11  C   UNL     1       3.805   3.988  18.948  0.00  0.00    +0.000 A 
ATOM     12  C   UNL     1       3.015   5.133  19.067  0.00  0.00    +0.000 A 
ATOM     13  C   UNL     1       3.125   6.164  18.131  0.00  0.00    +0.000 A 
ATOM     14  C   UNL     1       4.026   6.084  17.057  0.00  0.00    +0.000 A 
ATOM     15  C   UNL     1       4.819   4.955  16.901  0.00  0.00    +0.000 A 
ATOM     16  C   UNL     1       4.690   3.918  17.863  0.00  0.00    +0.000 A 
BRANCH  11  17
ATOM     17  C   UNL     1       3.752   2.895  19.974  0.00  0.00    +0.000 C 
ATOM     18  S   UNL     1       2.552   2.686  21.123  0.00  0.00    +0.000 S 
BRANCH  17  19
ATOM     19  N   UNL     1       4.803   1.996  19.998  0.00  0.00    +0.000 N 
ATOM     20  H   UNL     1       5.737   2.350  20.182  0.00  0.00    +0.000 HD
ATOM     21  H   UNL     1       4.720   1.037  19.718  0.00  0.00    +0.000 HD
ENDBRANCH  17  19
ENDBRANCH  11  17
ENDBRANCH   1  15
BRANCH   7  22
ATOM     22  O   UNL     1       4.957   2.557  11.450  0.00  0.00    +0.000 OA
ATOM     23  H   UNL     1       4.744   1.735  11.926  0.00  0.00    +0.000 HD
ENDBRANCH   7  22
TORSDOF 4
ENDMDL
MODEL 4
REMARK VINA RESULT:      -7.7      3.298      5.967
REMARK  Name = 
REMARK  4 active torsions:
REMARK  status: ('A' for Active; 'I' for Inactive)
REMARK    1  A    between atoms: N_1  and  C_2
REMARK    2  A    between atoms: C_2  and  C_4
REMARK    3  A    between atoms: C_8  and  C_9
REMARK    4  A    between atoms: C_15  and  O_16
REMARK                            x       y       z     vdW  Elec       q    Type
REMARK                         _______ _______ _______ _____ _____    ______ ____
ROOT
ATOM      1  C   UNL     1       6.022   4.439  16.353  0.00  0.00    +0.000 A 
ATOM      2  C   UNL     1       6.898   4.854  17.340  0.00  0.00    +0.000 A 
ATOM      3  N   UNL     1       6.535   4.131  18.432  0.00  0.00    +0.000 N 
ATOM      4  C   UNL     1       5.177   3.981  18.413  0.00  0.00    +0.000 A 
ATOM      5  C   UNL     1       4.306   3.692  19.466  0.00  0.00    +0.000 A 
ATOM      6  C   UNL     1       2.952   3.608  19.163  0.00  0.00    +0.000 A 
ATOM      7  C   UNL     1       2.534   3.725  17.837  0.00  0.00    +0.000 A 
ATOM      8  C   UNL     1       3.429   3.920  16.777  0.00  0.00    +0.000 A 
ATOM      9  C   UNL     1       4.798   4.134  17.068  0.00  0.00    +0.000 A 
ATOM     10  H   UNL     1       7.155   3.842  19.176  0.00  0.00    +0.000 HD
ENDROOT
BRANCH   1  15
ATOM     11  C   UNL     1       6.111   3.554  12.671  0.00  0.00    +0.000 A 
ATOM     12  C   UNL     1       7.150   4.368  12.218  0.00  0.00    +0.000 A 
ATOM     13  C   UNL     1       7.845   5.186  13.113  0.00  0.00    +0.000 A 
ATOM     14  C   UNL     1       7.518   5.218  14.478  0.00  0.00    +0.000 A 
ATOM     15  C   UNL     1       6.498   4.413  14.966  0.00  0.00    +0.000 A 
ATOM     16  C   UNL     1       5.806   3.587  14.039  0.00  0.00    +0.000 A 
BRANCH  11  17
ATOM     17  C   UNL     1       5.308   2.714  11.721  0.00  0.00    +0.000 C 
ATOM     18  S   UNL     1       3.866   3.160  10.998  0.00  0.00    +0.000 S 
BRANCH  17  19
ATOM     19  N   UNL     1       5.783   1.446  11.440  0.00  0.00    +0.000 N 
ATOM     20  H   UNL     1       6.612   1.121  11.928  0.00  0.00    +0.000 HD
ATOM     21  H   UNL     1       5.435   0.877  10.692  0.00  0.00    +0.000 HD
ENDBRANCH  17  19
ENDBRANCH  11  17
ENDBRANCH   1  15
BRANCH   7  22
ATOM     22  O   UNL     1       1.189   3.662  17.560  0.00  0.00    +0.000 OA
ATOM     23  H   UNL     1       0.910   4.513  17.179  0.00  0.00    +0.000 HD
ENDBRANCH   7  22
TORSDOF 4
ENDMDL
MODEL 5
REMARK VINA RESULT:      -7.5      3.640      6.930
REMARK  Name = 
REMARK  4 active torsions:
REMARK  status: ('A' for Active; 'I' for Inactive)
REMARK    1  A    between atoms: N_1  and  C_2
REMARK    2  A    between atoms: C_2  and  C_4
REMARK    3  A    between atoms: C_8  and  C_9
REMARK    4  A    between atoms: C_15  and  O_16
REMARK                            x       y       z     vdW  Elec       q    Type
REMARK                         _______ _______ _______ _____ _____    ______ ____
ROOT
ATOM      1  C   UNL     1       3.742   3.808  17.736  0.00  0.00    +0.000 A 
ATOM      2  C   UNL     1       2.716   3.829  16.809  0.00  0.00    +0.000 A 
ATOM      3  N   UNL     1       1.634   4.248  17.520  0.00  0.00    +0.000 N 
ATOM      4  C   UNL     1       1.724   3.726  18.779  0.00  0.00    +0.000 A 
ATOM      5  C   UNL     1       0.714   3.522  19.724  0.00  0.00    +0.000 A 
ATOM      6  C   UNL     1       1.088   2.956  20.937  0.00  0.00    +0.000 A 
ATOM      7  C   UNL     1       2.436   2.701  21.192  0.00  0.00    +0.000 A 
ATOM      8  C   UNL     1       3.450   3.000  20.273  0.00  0.00    +0.000 A 
ATOM      9  C   UNL     1       3.089   3.460  18.983  0.00  0.00    +0.000 A 
ATOM     10  H   UNL     1       0.855   4.772  17.146  0.00  0.00    +0.000 HD
ENDROOT
BRANCH   1  15
ATOM     11  C   UNL     1       6.580   4.473  15.317  0.00  0.00    +0.000 A 
ATOM     12  C   UNL     1       7.603   4.846  16.190  0.00  0.00    +0.000 A 
ATOM     13  C   UNL     1       7.383   4.855  17.570  0.00  0.00    +0.000 A 
ATOM     14  C   UNL     1       6.138   4.499  18.113  0.00  0.00    +0.000 A 
ATOM     15  C   UNL     1       5.101   4.111  17.276  0.00  0.00    +0.000 A 
ATOM     16  C   UNL     1       5.348   4.107  15.876  0.00  0.00    +0.000 A 
BRANCH  11  17
ATOM     17  C   UNL     1       6.771   4.515  13.829  0.00  0.00    +0.000 C 
ATOM     18  S   UNL     1       6.007   3.527  12.714  0.00  0.00    +0.000 S 
BRANCH  17  19
ATOM     19  N   UNL     1       7.682   5.429  13.333  0.00  0.00    +0.000 N 
ATOM     20  H   UNL     1       7.579   5.740  12.371  0.00  0.00    +0.000 HD
ATOM     21  H   UNL     1       8.513   5.706  13.821  0.00  0.00    +0.000 HD
ENDBRANCH  17  19
ENDBRANCH  11  17
ENDBRANCH   1  15
BRANCH   7  22
ATOM     22  O   UNL     1       2.784   2.120  22.390  0.00  0.00    +0.000 OA
ATOM     23  H   UNL     1       2.250   1.315  22.510  0.00  0.00    +0.000 HD
ENDBRANCH   7  22
TORSDOF 4
ENDMDL
MODEL 6
REMARK VINA RESULT:      -7.4      3.446      6.115
REMARK  Name = 
REMARK  4 active torsions:
REMARK  status: ('A' for Active; 'I' for Inactive)
REMARK    1  A    between atoms: N_1  and  C_2
REMARK    2  A    between atoms: C_2  and  C_4
REMARK    3  A    between atoms: C_8  and  C_9
REMARK    4  A    between atoms: C_15  and  O_16
REMARK                            x       y       z     vdW  Elec       q    Type
REMARK                         _______ _______ _______ _____ _____    ______ ____
ROOT
ATOM      1  C   UNL     1       6.497   4.950  16.169  0.00  0.00    +0.000 A 
ATOM      2  C   UNL     1       7.352   4.431  17.124  0.00  0.00    +0.000 A 
ATOM      3  N   UNL     1       6.527   4.053  18.138  0.00  0.00    +0.000 N 
ATOM      4  C   UNL     1       5.504   4.956  18.214  0.00  0.00    +0.000 A 
ATOM      5  C   UNL     1       4.661   5.245  19.290  0.00  0.00    +0.000 A 
ATOM      6  C   UNL     1       3.701   6.231  19.094  0.00  0.00    +0.000 A 
ATOM      7  C   UNL     1       3.562   6.818  17.835  0.00  0.00    +0.000 A 
ATOM      8  C   UNL     1       4.352   6.450  16.738  0.00  0.00    +0.000 A 
ATOM      9  C   UNL     1       5.419   5.540  16.939  0.00  0.00    +0.000 A 
ATOM     10  H   UNL     1       6.699   3.293  18.781  0.00  0.00    +0.000 HD
ENDROOT
BRANCH   1  15
ATOM     11  C   UNL     1       6.287   3.722  12.592  0.00  0.00    +0.000 A 
ATOM     12  C   UNL     1       7.277   4.491  11.979  0.00  0.00    +0.000 A 
ATOM     13  C   UNL     1       8.037   5.391  12.732  0.00  0.00    +0.000 A 
ATOM     14  C   UNL     1       7.825   5.551  14.111  0.00  0.00    +0.000 A 
ATOM     15  C   UNL     1       6.856   4.794  14.756  0.00  0.00    +0.000 A 
ATOM     16  C   UNL     1       6.097   3.884  13.971  0.00  0.00    +0.000 A 
BRANCH  11  17
ATOM     17  C   UNL     1       5.416   2.796  11.796  0.00  0.00    +0.000 C 
ATOM     18  S   UNL     1       3.910   3.166  11.163  0.00  0.00    +0.000 S 
BRANCH  17  19
ATOM     19  N   UNL     1       5.879   1.509  11.591  0.00  0.00    +0.000 N 
ATOM     20  H   UNL     1       5.459   0.753  12.124  0.00  0.00    +0.000 HD
ATOM     21  H   UNL     1       6.691   1.291  11.045  0.00  0.00    +0.000 HD
ENDBRANCH  17  19
ENDBRANCH  11  17
ENDBRANCH   1  15
BRANCH   7  22
ATOM     22  O   UNL     1       2.622   7.807  17.667  0.00  0.00    +0.000 OA
ATOM     23  H   UNL     1       1.742   7.432  17.846  0.00  0.00    +0.000 HD
ENDBRANCH   7  22
TORSDOF 4
ENDMDL
MODEL 7
REMARK VINA RESULT:      -7.3      3.922      6.948
REMARK  Name = 
REMARK  4 active torsions:
REMARK  status: ('A' for Active; 'I' for Inactive)
REMARK    1  A    between atoms: N_1  and  C_2
REMARK    2  A    between atoms: C_2  and  C_4
REMARK    3  A    between atoms: C_8  and  C_9
REMARK    4  A    between atoms: C_15  and  O_16
REMARK                            x       y       z     vdW  Elec       q    Type
REMARK                         _______ _______ _______ _____ _____    ______ ____
ROOT
ATOM      1  C   UNL     1       3.455   3.941  17.635  0.00  0.00    +0.000 A 
ATOM      2  C   UNL     1       2.338   3.911  16.819  0.00  0.00    +0.000 A 
ATOM      3  N   UNL     1       1.312   4.240  17.649  0.00  0.00    +0.000 N 
ATOM      4  C   UNL     1       1.567   3.700  18.878  0.00  0.00    +0.000 A 
ATOM      5  C   UNL     1       0.677   3.408  19.915  0.00  0.00    +0.000 A 
ATOM      6  C   UNL     1       1.211   2.844  21.067  0.00  0.00    +0.000 A 
ATOM      7  C   UNL     1       2.593   2.676  21.175  0.00  0.00    +0.000 A 
ATOM      8  C   UNL     1       3.483   3.063  20.165  0.00  0.00    +0.000 A 
ATOM      9  C   UNL     1       2.960   3.524  18.932  0.00  0.00    +0.000 A 
ATOM     10  H   UNL     1       0.465   4.718  17.372  0.00  0.00    +0.000 HD
ENDROOT
BRANCH   1  15
ATOM     11  C   UNL     1       6.789   5.710  17.320  0.00  0.00    +0.000 A 
ATOM     12  C   UNL     1       7.307   5.117  16.167  0.00  0.00    +0.000 A 
ATOM     13  C   UNL     1       6.562   4.161  15.472  0.00  0.00    +0.000 A 
ATOM     14  C   UNL     1       5.286   3.768  15.910  0.00  0.00    +0.000 A 
ATOM     15  C   UNL     1       4.736   4.345  17.046  0.00  0.00    +0.000 A 
ATOM     16  C   UNL     1       5.510   5.317  17.736  0.00  0.00    +0.000 A 
BRANCH  11  17
ATOM     17  C   UNL     1       7.594   6.692  18.120  0.00  0.00    +0.000 C 
ATOM     18  S   UNL     1       7.833   8.305  17.739  0.00  0.00    +0.000 S 
BRANCH  17  19
ATOM     19  N   UNL     1       8.223   6.219  19.257  0.00  0.00    +0.000 N 
ATOM     20  H   UNL     1       8.044   6.690  20.139  0.00  0.00    +0.000 HD
ATOM     21  H   UNL     1       8.944   5.523  19.244  0.00  0.00    +0.000 HD
ENDBRANCH  17  19
ENDBRANCH  11  17
ENDBRANCH   1  15
BRANCH   7  22
ATOM     22  O   UNL     1       3.101   2.096  22.314  0.00  0.00    +0.000 OA
ATOM     23  H   UNL     1       3.154   2.773  23.010  0.00  0.00    +0.000 HD
ENDBRANCH   7  22
TORSDOF 4
ENDMDL
MODEL 8
REMARK VINA RESULT:      -7.3      3.327      6.043
REMARK  Name = 
REMARK  4 active torsions:
REMARK  status: ('A' for Active; 'I' for Inactive)
REMARK    1  A    between atoms: N_1  and  C_2
REMARK    2  A    between atoms: C_2  and  C_4
REMARK    3  A    between atoms: C_8  and  C_9
REMARK    4  A    between atoms: C_15  and  O_16
REMARK                            x       y       z     vdW  Elec       q    Type
REMARK                         _______ _______ _______ _____ _____    ______ ____
ROOT
ATOM      1  C   UNL     1       5.039   5.009  16.220  0.00  0.00    +0.000 A 
ATOM      2  C   UNL     1       4.888   6.326  16.615  0.00  0.00    +0.000 A 
ATOM      3  N   UNL     1       4.814   6.260  17.972  0.00  0.00    +0.000 N 
ATOM      4  C   UNL     1       4.142   5.118  18.306  0.00  0.00    +0.000 A 
ATOM      5  C   UNL     1       3.469   4.804  19.489  0.00  0.00    +0.000 A 
ATOM      6  C   UNL     1       2.853   3.560  19.557  0.00  0.00    +0.000 A 
ATOM      7  C   UNL     1       3.002   2.659  18.502  0.00  0.00    +0.000 A 
ATOM      8  C   UNL     1       3.761   2.950  17.360  0.00  0.00    +0.000 A 
ATOM      9  C   UNL     1       4.294   4.254  17.208  0.00  0.00    +0.000 A 
ATOM     10  H   UNL     1       5.118   6.980  18.611  0.00  0.00    +0.000 HD
ENDROOT
BRANCH   1  15
ATOM     11  C   UNL     1       5.889   3.625  12.798  0.00  0.00    +0.000 A 
ATOM     12  C   UNL     1       7.129   4.222  12.561  0.00  0.00    +0.000 A 
ATOM     13  C   UNL     1       7.705   5.053  13.524  0.00  0.00    +0.000 A 
ATOM     14  C   UNL     1       7.060   5.315  14.744  0.00  0.00    +0.000 A 
ATOM     15  C   UNL     1       5.833   4.730  15.019  0.00  0.00    +0.000 A 
ATOM     16  C   UNL     1       5.265   3.886  14.026  0.00  0.00    +0.000 A 
BRANCH  11  17
ATOM     17  C   UNL     1       5.220   2.779  11.756  0.00  0.00    +0.000 C 
ATOM     18  S   UNL     1       3.808   3.162  10.941  0.00  0.00    +0.000 S 
BRANCH  17  19
ATOM     19  N   UNL     1       5.800   1.559  11.461  0.00  0.00    +0.000 N 
ATOM     20  H   UNL     1       5.858   0.861  12.197  0.00  0.00    +0.000 HD
ATOM     21  H   UNL     1       6.282   1.366  10.604  0.00  0.00    +0.000 HD
ENDBRANCH  17  19
ENDBRANCH  11  17
ENDBRANCH   1  15
BRANCH   7  22
ATOM     22  O   UNL     1       2.367   1.441  18.577  0.00  0.00    +0.000 OA
ATOM     23  H   UNL     1       1.626   1.516  19.203  0.00  0.00    +0.000 HD
ENDBRANCH   7  22
TORSDOF 4
ENDMDL
MODEL 9
REMARK VINA RESULT:      -7.1      3.443      6.737
REMARK  Name = 
REMARK  4 active torsions:
REMARK  status: ('A' for Active; 'I' for Inactive)
REMARK    1  A    between atoms: N_1  and  C_2
REMARK    2  A    between atoms: C_2  and  C_4
REMARK    3  A    between atoms: C_8  and  C_9
REMARK    4  A    between atoms: C_15  and  O_16
REMARK                            x       y       z     vdW  Elec       q    Type
REMARK                         _______ _______ _______ _____ _____    ______ ____
ROOT
ATOM      1  C   UNL     1       4.087   3.435  17.545  0.00  0.00    +0.000 A 
ATOM      2  C   UNL     1       3.790   2.086  17.478  0.00  0.00    +0.000 A 
ATOM      3  N   UNL     1       2.448   2.030  17.693  0.00  0.00    +0.000 N 
ATOM      4  C   UNL     1       2.121   2.999  18.599  0.00  0.00    +0.000 A 
ATOM      5  C   UNL     1       1.001   3.089  19.430  0.00  0.00    +0.000 A 
ATOM      6  C   UNL     1       0.926   4.190  20.275  0.00  0.00    +0.000 A 
ATOM      7  C   UNL     1       1.904   5.183  20.201  0.00  0.00    +0.000 A 
ATOM      8  C   UNL     1       2.971   5.128  19.295  0.00  0.00    +0.000 A 
ATOM      9  C   UNL     1       3.142   3.960  18.511  0.00  0.00    +0.000 A 
ATOM     10  H   UNL     1       1.824   1.329  17.320  0.00  0.00    +0.000 HD
ENDROOT
BRANCH   1  15
ATOM     11  C   UNL     1       6.103   4.127  14.413  0.00  0.00    +0.000 A 
ATOM     12  C   UNL     1       7.082   4.992  14.903  0.00  0.00    +0.000 A 
ATOM     13  C   UNL     1       7.108   5.332  16.258  0.00  0.00    +0.000 A 
ATOM     14  C   UNL     1       6.157   4.822  17.157  0.00  0.00    +0.000 A 
ATOM     15  C   UNL     1       5.176   3.950  16.708  0.00  0.00    +0.000 A 
ATOM     16  C   UNL     1       5.169   3.617  15.326  0.00  0.00    +0.000 A 
BRANCH  11  17
ATOM     17  C   UNL     1       6.014   3.797  12.952  0.00  0.00    +0.000 C 
ATOM     18  S   UNL     1       4.664   3.202  12.161  0.00  0.00    +0.000 S 
BRANCH  17  19
ATOM     19  N   UNL     1       7.158   3.967  12.194  0.00  0.00    +0.000 N 
ATOM     20  H   UNL     1       7.985   4.349  12.645  0.00  0.00    +0.000 HD
ATOM     21  H   UNL     1       7.186   3.858  11.198  0.00  0.00    +0.000 HD
ENDBRANCH  17  19
ENDBRANCH  11  17
ENDBRANCH   1  15
BRANCH   7  22
ATOM     22  O   UNL     1       1.825   6.253  21.061  0.00  0.00    +0.000 OA
ATOM     23  H   UNL     1       1.845   5.920  21.975  0.00  0.00    +0.000 HD
ENDBRANCH   7  22
TORSDOF 4
ENDMDL
