MODEL 1
REMARK VINA RESULT:      -8.5      0.000      0.000
REMARK  Name = 
REMARK  8 active torsions:
REMARK  status: ('A' for Active; 'I' for Inactive)
REMARK    1  A    between atoms: C_1  and  C_2
REMARK    2  A    between atoms: C_2  and  O_3
REMARK    3  A    between atoms: O_3  and  C_4
REMARK    4  A    between atoms: C_4  and  C_6
REMARK    5  A    between atoms: C_6  and  C_7
REMARK    6  A    between atoms: C_6  and  C_14
REMARK    7  A    between atoms: C_7  and  C_8
REMARK    8  A    between atoms: C_14  and  C_15
REMARK                            x       y       z     vdW  Elec       q    Type
REMARK                         _______ _______ _______ _____ _____    ______ ____
ROOT
ATOM      1  C   UNL     1       5.804   5.169  16.708  0.00  0.00    +0.000 C 
ENDROOT
BRANCH   1   2
ATOM      2  C   UNL     1       4.549   5.499  17.549  0.00  0.00    +0.000 C 
ATOM      3  C   UNL     1       4.148   6.976  17.324  0.00  0.00    +0.000 C 
ATOM      4  O   UNL     1       3.492   4.637  17.017  0.00  0.00    +0.000 OA
ATOM      5  C   UNL     1       2.827   4.292  18.152  0.00  0.00    +0.000 A 
ATOM      6  C   UNL     1       1.668   3.550  18.206  0.00  0.00    +0.000 A 
ATOM      7  C   UNL     1       0.996   3.502  19.429  0.00  0.00    +0.000 A 
ATOM      8  C   UNL     1       1.504   4.206  20.541  0.00  0.00    +0.000 A 
ATOM      9  C   UNL     1       2.744   4.857  20.472  0.00  0.00    +0.000 A 
ATOM     10  C   UNL     1       3.413   4.835  19.270  0.00  0.00    +0.000 A 
ATOM     11  O   UNL     1       4.643   5.359  18.986  0.00  0.00    +0.000 OA
ENDBRANCH   1   2
BRANCH   1  12
ATOM     12  C   UNL     1       7.107   5.234  17.470  0.00  0.00    +0.000 C 
ATOM     13  O   UNL     1       7.554   4.381  18.221  0.00  0.00    +0.000 OA
BRANCH  12  14
ATOM     14  O   UNL     1       7.720   6.429  17.196  0.00  0.00    +0.000 OA
BRANCH  14  16
ATOM     15  C   UNL     1       8.066   8.733  17.867  0.00  0.00    +0.000 C 
ATOM     16  C   UNL     1       7.969   7.288  18.316  0.00  0.00    +0.000 C 
ENDBRANCH  14  16
ENDBRANCH  12  14
ENDBRANCH   1  12
BRANCH   1  17
ATOM     17  C   UNL     1       5.742   3.913  15.816  0.00  0.00    +0.000 C 
BRANCH  17  18
ATOM     18  C   UNL     1       6.227   4.087  14.404  0.00  0.00    +0.000 A 
ATOM     19  C   UNL     1       5.667   3.347  13.363  0.00  0.00    +0.000 A 
ATOM     20  C   UNL     1       6.153   3.478  12.062  0.00  0.00    +0.000 A 
ATOM     21  C   UNL     1       7.200   4.361  11.798  0.00  0.00    +0.000 A 
ATOM     22  C   UNL     1       7.743   5.127  12.820  0.00  0.00    +0.000 A 
ATOM     23  C   UNL     1       7.259   5.001  14.118  0.00  0.00    +0.000 A 
ENDBRANCH  17  18
ENDBRANCH   1  17
TORSDOF 6
ENDMDL
MODEL 2
REMARK VINA RESULT:      -8.1      0.547      1.144
REMARK  Name = 
REMARK  8 active torsions:
REMARK  status: ('A' for Active; 'I' for Inactive)
REMARK    1  A    between atoms: C_1  and  C_2
REMARK    2  A    between atoms: C_2  and  O_3
REMARK    3  A    between atoms: O_3  and  C_4
REMARK    4  A    between atoms: C_4  and  C_6
REMARK    5  A    between atoms: C_6  and  C_7
REMARK    6  A    between atoms: C_6  and  C_14
REMARK    7  A    between atoms: C_7  and  C_8
REMARK    8  A    between atoms: C_14  and  C_15
REMARK                            x       y       z     vdW  Elec       q    Type
REMARK                         _______ _______ _______ _____ _____    ______ ____
ROOT
ATOM      1  C   UNL     1       5.440   5.133  17.000  0.00  0.00    +0.000 C 
ENDROOT
BRANCH   1   2
ATOM      2  C   UNL     1       4.122   5.315  17.786  0.00  0.00    +0.000 C 
ATOM      3  C   UNL     1       3.537   6.718  17.499  0.00  0.00    +0.000 C 
ATOM      4  O   UNL     1       3.210   4.305  17.245  0.00  0.00    +0.000 OA
ATOM      5  C   UNL     1       2.553   3.905  18.367  0.00  0.00    +0.000 A 
ATOM      6  C   UNL     1       1.502   3.016  18.405  0.00  0.00    +0.000 A 
ATOM      7  C   UNL     1       0.795   2.912  19.605  0.00  0.00    +0.000 A 
ATOM      8  C   UNL     1       1.162   3.708  20.710  0.00  0.00    +0.000 A 
ATOM      9  C   UNL     1       2.306   4.518  20.663  0.00  0.00    +0.000 A 
ATOM     10  C   UNL     1       3.018   4.553  19.487  0.00  0.00    +0.000 A 
ATOM     11  O   UNL     1       4.177   5.229  19.229  0.00  0.00    +0.000 OA
ENDBRANCH   1   2
BRANCH   1  12
ATOM     12  C   UNL     1       6.694   5.342  17.818  0.00  0.00    +0.000 C 
ATOM     13  O   UNL     1       7.499   4.485  18.147  0.00  0.00    +0.000 OA
BRANCH  12  14
ATOM     14  O   UNL     1       6.786   6.668  18.154  0.00  0.00    +0.000 OA
BRANCH  14  16
ATOM     15  C   UNL     1       8.169   8.643  17.898  0.00  0.00    +0.000 C 
ATOM     16  C   UNL     1       8.110   7.190  18.327  0.00  0.00    +0.000 C 
ENDBRANCH  14  16
ENDBRANCH  12  14
ENDBRANCH   1  12
BRANCH   1  17
ATOM     17  C   UNL     1       5.560   3.882  16.107  0.00  0.00    +0.000 C 
BRANCH  17  18
ATOM     18  C   UNL     1       6.164   4.102  14.748  0.00  0.00    +0.000 A 
ATOM     19  C   UNL     1       7.225   4.991  14.576  0.00  0.00    +0.000 A 
ATOM     20  C   UNL     1       7.750   5.226  13.305  0.00  0.00    +0.000 A 
ATOM     21  C   UNL     1       7.218   4.563  12.200  0.00  0.00    +0.000 A 
ATOM     22  C   UNL     1       6.184   3.652  12.363  0.00  0.00    +0.000 A 
ATOM     23  C   UNL     1       5.659   3.412  13.629  0.00  0.00    +0.000 A 
ENDBRANCH  17  18
ENDBRANCH   1  17
TORSDOF 6
ENDMDL
MODEL 3
REMARK VINA RESULT:      -8.0      2.349      6.821
REMARK  Name = 
REMARK  8 active torsions:
REMARK  status: ('A' for Active; 'I' for Inactive)
REMARK    1  A    between atoms: C_1  and  C_2
REMARK    2  A    between atoms: C_2  and  O_3
REMARK    3  A    between atoms: O_3  and  C_4
REMARK    4  A    between atoms: C_4  and  C_6
REMARK    5  A    between atoms: C_6  and  C_7
REMARK    6  A    between atoms: C_6  and  C_14
REMARK    7  A    between atoms: C_7  and  C_8
REMARK    8  A    between atoms: C_14  and  C_15
REMARK                            x       y       z     vdW  Elec       q    Type
REMARK                         _______ _______ _______ _____ _____    ______ ____
ROOT
ATOM      1  C   UNL     1       2.600   5.111  18.584  0.00  0.00    +0.000 C 
ENDROOT
BRANCH   1   2
ATOM      2  C   UNL     1       3.974   4.577  18.121  0.00  0.00    +0.000 C 
ATOM      3  C   UNL     1       4.375   3.358  18.985  0.00  0.00    +0.000 C 
ATOM      4  O   UNL     1       3.768   4.129  16.742  0.00  0.00    +0.000 OA
ATOM      5  C   UNL     1       4.937   4.508  16.157  0.00  0.00    +0.000 A 
ATOM      6  C   UNL     1       5.306   4.236  14.859  0.00  0.00    +0.000 A 
ATOM      7  C   UNL     1       6.634   4.485  14.506  0.00  0.00    +0.000 A 
ATOM      8  C   UNL     1       7.537   4.985  15.468  0.00  0.00    +0.000 A 
ATOM      9  C   UNL     1       7.093   5.351  16.747  0.00  0.00    +0.000 A 
ATOM     10  C   UNL     1       5.765   5.151  17.046  0.00  0.00    +0.000 A 
ATOM     11  O   UNL     1       5.109   5.472  18.200  0.00  0.00    +0.000 OA
ENDBRANCH   1   2
BRANCH   1  12
ATOM     12  C   UNL     1       1.539   4.049  18.760  0.00  0.00    +0.000 C 
ATOM     13  O   UNL     1       1.131   3.279  17.906  0.00  0.00    +0.000 OA
BRANCH  12  14
ATOM     14  O   UNL     1       1.083   4.091  20.053  0.00  0.00    +0.000 OA
BRANCH  14  16
ATOM     15  C   UNL     1       2.198   2.917  21.858  0.00  0.00    +0.000 C 
ATOM     16  C   UNL     1       1.130   2.858  20.784  0.00  0.00    +0.000 C 
ENDBRANCH  14  16
ENDBRANCH  12  14
ENDBRANCH   1  12
BRANCH   1  17
ATOM     17  C   UNL     1       2.591   6.107  19.761  0.00  0.00    +0.000 C 
BRANCH  17  18
ATOM     18  C   UNL     1       2.105   7.493  19.443  0.00  0.00    +0.000 A 
ATOM     19  C   UNL     1       1.434   8.249  20.404  0.00  0.00    +0.000 A 
ATOM     20  C   UNL     1       0.944   9.517  20.089  0.00  0.00    +0.000 A 
ATOM     21  C   UNL     1       1.132  10.036  18.808  0.00  0.00    +0.000 A 
ATOM     22  C   UNL     1       1.827   9.306  17.854  0.00  0.00    +0.000 A 
ATOM     23  C   UNL     1       2.320   8.043  18.165  0.00  0.00    +0.000 A 
ENDBRANCH  17  18
ENDBRANCH   1  17
TORSDOF 6
ENDMDL
MODEL 4
REMARK VINA RESULT:      -7.7      3.020      6.909
REMARK  Name = 
REMARK  8 active torsions:
REMARK  status: ('A' for Active; 'I' for Inactive)
REMARK    1  A    between atoms: C_1  and  C_2
REMARK    2  A    between atoms: C_2  and  O_3
REMARK    3  A    between atoms: O_3  and  C_4
REMARK    4  A    between atoms: C_4  and  C_6
REMARK    5  A    between atoms: C_6  and  C_7
REMARK    6  A    between atoms: C_6  and  C_14
REMARK    7  A    between atoms: C_7  and  C_8
REMARK    8  A    between atoms: C_14  and  C_15
REMARK                            x       y       z     vdW  Elec       q    Type
REMARK                         _______ _______ _______ _____ _____    ______ ____
ROOT
ATOM      1  C   UNL     1       2.374   5.366  18.655  0.00  0.00    +0.000 C 
ENDROOT
BRANCH   1   2
ATOM      2  C   UNL     1       3.866   5.048  18.403  0.00  0.00    +0.000 C 
ATOM      3  C   UNL     1       3.999   3.635  17.787  0.00  0.00    +0.000 C 
ATOM      4  O   UNL     1       4.307   6.036  17.416  0.00  0.00    +0.000 OA
ATOM      5  C   UNL     1       5.564   6.316  17.855  0.00  0.00    +0.000 A 
ATOM      6  C   UNL     1       6.471   7.133  17.219  0.00  0.00    +0.000 A 
ATOM      7  C   UNL     1       7.788   7.109  17.682  0.00  0.00    +0.000 A 
ATOM      8  C   UNL     1       8.144   6.262  18.752  0.00  0.00    +0.000 A 
ATOM      9  C   UNL     1       7.167   5.530  19.443  0.00  0.00    +0.000 A 
ATOM     10  C   UNL     1       5.867   5.621  19.002  0.00  0.00    +0.000 A 
ATOM     11  O   UNL     1       4.757   5.037  19.543  0.00  0.00    +0.000 OA
ENDBRANCH   1   2
BRANCH   1  12
ATOM     12  C   UNL     1       1.454   4.169  18.577  0.00  0.00    +0.000 C 
ATOM     13  O   UNL     1       1.083   3.601  17.562  0.00  0.00    +0.000 OA
BRANCH  12  14
ATOM     14  O   UNL     1       1.079   3.817  19.848  0.00  0.00    +0.000 OA
BRANCH  14  16
ATOM     15  C   UNL     1       2.401   2.784  21.597  0.00  0.00    +0.000 C 
ATOM     16  C   UNL     1       1.585   2.569  20.338  0.00  0.00    +0.000 C 
ENDBRANCH  14  16
ENDBRANCH  12  14
ENDBRANCH   1  12
BRANCH   1  17
ATOM     17  C   UNL     1       2.038   6.248  19.874  0.00  0.00    +0.000 C 
BRANCH  17  18
ATOM     18  C   UNL     1       1.745   7.691  19.578  0.00  0.00    +0.000 A 
ATOM     19  C   UNL     1       1.206   8.524  20.559  0.00  0.00    +0.000 A 
ATOM     20  C   UNL     1       0.892   9.851  20.264  0.00  0.00    +0.000 A 
ATOM     21  C   UNL     1       1.126  10.352  18.984  0.00  0.00    +0.000 A 
ATOM     22  C   UNL     1       1.694   9.543  18.010  0.00  0.00    +0.000 A 
ATOM     23  C   UNL     1       2.010   8.220  18.300  0.00  0.00    +0.000 A 
ENDBRANCH  17  18
ENDBRANCH   1  17
TORSDOF 6
ENDMDL
MODEL 5
REMARK VINA RESULT:      -7.6      0.901      1.007
REMARK  Name = 
REMARK  8 active torsions:
REMARK  status: ('A' for Active; 'I' for Inactive)
REMARK    1  A    between atoms: C_1  and  C_2
REMARK    2  A    between atoms: C_2  and  O_3
REMARK    3  A    between atoms: O_3  and  C_4
REMARK    4  A    between atoms: C_4  and  C_6
REMARK    5  A    between atoms: C_6  and  C_7
REMARK    6  A    between atoms: C_6  and  C_14
REMARK    7  A    between atoms: C_7  and  C_8
REMARK    8  A    between atoms: C_14  and  C_15
REMARK                            x       y       z     vdW  Elec       q    Type
REMARK                         _______ _______ _______ _____ _____    ______ ____
ROOT
ATOM      1  C   UNL     1       6.327   5.548  17.571  0.00  0.00    +0.000 C 
ENDROOT
BRANCH   1   2
ATOM      2  C   UNL     1       4.802   5.597  17.817  0.00  0.00    +0.000 C 
ATOM      3  C   UNL     1       4.202   6.833  17.105  0.00  0.00    +0.000 C 
ATOM      4  O   UNL     1       4.271   4.387  17.186  0.00  0.00    +0.000 OA
ATOM      5  C   UNL     1       3.303   4.023  18.070  0.00  0.00    +0.000 A 
ATOM      6  C   UNL     1       2.421   2.979  17.905  0.00  0.00    +0.000 A 
ATOM      7  C   UNL     1       1.344   2.906  18.791  0.00  0.00    +0.000 A 
ATOM      8  C   UNL     1       1.191   3.883  19.797  0.00  0.00    +0.000 A 
ATOM      9  C   UNL     1       2.172   4.865  19.999  0.00  0.00    +0.000 A 
ATOM     10  C   UNL     1       3.253   4.875  19.148  0.00  0.00    +0.000 A 
ATOM     11  O   UNL     1       4.340   5.702  19.184  0.00  0.00    +0.000 OA
ENDBRANCH   1   2
BRANCH   1  12
ATOM     12  C   UNL     1       7.170   5.856  18.787  0.00  0.00    +0.000 C 
ATOM     13  O   UNL     1       7.050   5.366  19.899  0.00  0.00    +0.000 OA
BRANCH  12  14
ATOM     14  O   UNL     1       8.104   6.801  18.449  0.00  0.00    +0.000 OA
BRANCH  14  16
ATOM     15  C   UNL     1       8.308   9.180  18.031  0.00  0.00    +0.000 C 
ATOM     16  C   UNL     1       7.646   7.880  17.622  0.00  0.00    +0.000 C 
ENDBRANCH  14  16
ENDBRANCH  12  14
ENDBRANCH   1  12
BRANCH   1  17
ATOM     17  C   UNL     1       6.877   4.327  16.807  0.00  0.00    +0.000 C 
BRANCH  17  18
ATOM     18  C   UNL     1       6.800   4.403  15.308  0.00  0.00    +0.000 A 
ATOM     19  C   UNL     1       5.851   3.661  14.605  0.00  0.00    +0.000 A 
ATOM     20  C   UNL     1       5.815   3.700  13.211  0.00  0.00    +0.000 A 
ATOM     21  C   UNL     1       6.727   4.491  12.515  0.00  0.00    +0.000 A 
ATOM     22  C   UNL     1       7.655   5.260  13.204  0.00  0.00    +0.000 A 
ATOM     23  C   UNL     1       7.692   5.226  14.594  0.00  0.00    +0.000 A 
ENDBRANCH  17  18
ENDBRANCH   1  17
TORSDOF 6
ENDMDL
MODEL 6
REMARK VINA RESULT:      -7.6      3.024      5.168
REMARK  Name = 
REMARK  8 active torsions:
REMARK  status: ('A' for Active; 'I' for Inactive)
REMARK    1  A    between atoms: C_1  and  C_2
REMARK    2  A    between atoms: C_2  and  O_3
REMARK    3  A    between atoms: O_3  and  C_4
REMARK    4  A    between atoms: C_4  and  C_6
REMARK    5  A    between atoms: C_6  and  C_7
REMARK    6  A    between atoms: C_6  and  C_14
REMARK    7  A    between atoms: C_7  and  C_8
REMARK    8  A    between atoms: C_14  and  C_15
REMARK                            x       y       z     vdW  Elec       q    Type
REMARK                         _______ _______ _______ _____ _____    ______ ____
ROOT
ATOM      1  C   UNL     1       3.921   4.202  18.483  0.00  0.00    +0.000 C 
ENDROOT
BRANCH   1   2
ATOM      2  C   UNL     1       2.774   5.228  18.335  0.00  0.00    +0.000 C 
ATOM      3  C   UNL     1       1.554   4.550  17.669  0.00  0.00    +0.000 C 
ATOM      4  O   UNL     1       2.416   5.604  19.704  0.00  0.00    +0.000 OA
ATOM      5  C   UNL     1       2.163   6.933  19.563  0.00  0.00    +0.000 A 
ATOM      6  C   UNL     1       1.687   7.766  20.551  0.00  0.00    +0.000 A 
ATOM      7  C   UNL     1       1.255   9.036  20.163  0.00  0.00    +0.000 A 
ATOM      8  C   UNL     1       1.307   9.414  18.805  0.00  0.00    +0.000 A 
ATOM      9  C   UNL     1       1.901   8.577  17.849  0.00  0.00    +0.000 A 
ATOM     10  C   UNL     1       2.373   7.356  18.272  0.00  0.00    +0.000 A 
ATOM     11  O   UNL     1       3.022   6.407  17.534  0.00  0.00    +0.000 OA
ENDBRANCH   1   2
BRANCH   1  12
ATOM     12  C   UNL     1       3.467   2.768  18.628  0.00  0.00    +0.000 C 
ATOM     13  O   UNL     1       3.289   1.966  17.725  0.00  0.00    +0.000 OA
BRANCH  12  14
ATOM     14  O   UNL     1       3.267   2.500  19.959  0.00  0.00    +0.000 OA
BRANCH  14  16
ATOM     15  C   UNL     1       1.593   2.833  21.680  0.00  0.00    +0.000 C 
ATOM     16  C   UNL     1       1.923   2.189  20.349  0.00  0.00    +0.000 C 
ENDBRANCH  14  16
ENDBRANCH  12  14
ENDBRANCH   1  12
BRANCH   1  17
ATOM     17  C   UNL     1       5.099   4.316  17.495  0.00  0.00    +0.000 C 
BRANCH  17  18
ATOM     18  C   UNL     1       6.157   5.323  17.850  0.00  0.00    +0.000 A 
ATOM     19  C   UNL     1       6.394   6.425  17.028  0.00  0.00    +0.000 A 
ATOM     20  C   UNL     1       7.408   7.331  17.338  0.00  0.00    +0.000 A 
ATOM     21  C   UNL     1       8.186   7.140  18.480  0.00  0.00    +0.000 A 
ATOM     22  C   UNL     1       7.938   6.066  19.322  0.00  0.00    +0.000 A 
ATOM     23  C   UNL     1       6.925   5.161  19.019  0.00  0.00    +0.000 A 
ENDBRANCH  17  18
ENDBRANCH   1  17
TORSDOF 6
ENDMDL
MODEL 7
REMARK VINA RESULT:      -7.6      0.891      1.296
REMARK  Name = 
REMARK  8 active torsions:
REMARK  status: ('A' for Active; 'I' for Inactive)
REMARK    1  A    between atoms: C_1  and  C_2
REMARK    2  A    between atoms: C_2  and  O_3
REMARK    3  A    between atoms: O_3  and  C_4
REMARK    4  A    between atoms: C_4  and  C_6
REMARK    5  A    between atoms: C_6  and  C_7
REMARK    6  A    between atoms: C_6  and  C_14
REMARK    7  A    between atoms: C_7  and  C_8
REMARK    8  A    between atoms: C_14  and  C_15
REMARK                            x       y       z     vdW  Elec       q    Type
REMARK                         _______ _______ _______ _____ _____    ______ ____
ROOT
ATOM      1  C   UNL     1       5.244   5.812  16.649  0.00  0.00    +0.000 C 
ENDROOT
BRANCH   1   2
ATOM      2  C   UNL     1       4.053   5.888  17.632  0.00  0.00    +0.000 C 
ATOM      3  C   UNL     1       3.439   7.307  17.594  0.00  0.00    +0.000 C 
ATOM      4  O   UNL     1       3.069   4.934  17.118  0.00  0.00    +0.000 OA
ATOM      5  C   UNL     1       2.580   4.402  18.270  0.00  0.00    +0.000 A 
ATOM      6  C   UNL     1       1.541   3.502  18.358  0.00  0.00    +0.000 A 
ATOM      7  C   UNL     1       1.015   3.254  19.627  0.00  0.00    +0.000 A 
ATOM      8  C   UNL     1       1.541   3.924  20.752  0.00  0.00    +0.000 A 
ATOM      9  C   UNL     1       2.670   4.749  20.632  0.00  0.00    +0.000 A 
ATOM     10  C   UNL     1       3.205   4.925  19.377  0.00  0.00    +0.000 A 
ATOM     11  O   UNL     1       4.317   5.640  19.033  0.00  0.00    +0.000 OA
ENDBRANCH   1   2
BRANCH   1  12
ATOM     12  C   UNL     1       6.454   6.617  17.063  0.00  0.00    +0.000 C 
ATOM     13  O   UNL     1       6.630   7.811  16.883  0.00  0.00    +0.000 OA
BRANCH  12  14
ATOM     14  O   UNL     1       7.353   5.780  17.673  0.00  0.00    +0.000 OA
BRANCH  14  16
ATOM     15  C   UNL     1       7.745   5.453  20.043  0.00  0.00    +0.000 C 
ATOM     16  C   UNL     1       8.031   6.305  18.823  0.00  0.00    +0.000 C 
ENDBRANCH  14  16
ENDBRANCH  12  14
ENDBRANCH   1  12
BRANCH   1  17
ATOM     17  C   UNL     1       5.651   4.414  16.144  0.00  0.00    +0.000 C 
BRANCH  17  18
ATOM     18  C   UNL     1       6.089   4.337  14.708  0.00  0.00    +0.000 A 
ATOM     19  C   UNL     1       5.389   3.553  13.792  0.00  0.00    +0.000 A 
ATOM     20  C   UNL     1       5.827   3.449  12.471  0.00  0.00    +0.000 A 
ATOM     21  C   UNL     1       6.967   4.139  12.062  0.00  0.00    +0.000 A 
ATOM     22  C   UNL     1       7.654   4.948  12.956  0.00  0.00    +0.000 A 
ATOM     23  C   UNL     1       7.218   5.057  14.273  0.00  0.00    +0.000 A 
ENDBRANCH  17  18
ENDBRANCH   1  17
TORSDOF 6
ENDMDL
MODEL 8
REMARK VINA RESULT:      -7.6      1.176      5.802
REMARK  Name = 
REMARK  8 active torsions:
REMARK  status: ('A' for Active; 'I' for Inactive)
REMARK    1  A    between atoms: C_1  and  C_2
REMARK    2  A    between atoms: C_2  and  O_3
REMARK    3  A    between atoms: O_3  and  C_4
REMARK    4  A    between atoms: C_4  and  C_6
REMARK    5  A    between atoms: C_6  and  C_7
REMARK    6  A    between atoms: C_6  and  C_14
REMARK    7  A    between atoms: C_7  and  C_8
REMARK    8  A    between atoms: C_14  and  C_15
REMARK                            x       y       z     vdW  Elec       q    Type
REMARK                         _______ _______ _______ _____ _____    ______ ____
ROOT
ATOM      1  C   UNL     1       5.917   4.689  17.744  0.00  0.00    +0.000 C 
ENDROOT
BRANCH   1   2
ATOM      2  C   UNL     1       5.632   5.019  16.261  0.00  0.00    +0.000 C 
ATOM      3  C   UNL     1       4.711   6.258  16.173  0.00  0.00    +0.000 C 
ATOM      4  O   UNL     1       6.936   5.358  15.687  0.00  0.00    +0.000 OA
ATOM      5  C   UNL     1       6.842   4.798  14.451  0.00  0.00    +0.000 A 
ATOM      6  C   UNL     1       7.780   4.906  13.449  0.00  0.00    +0.000 A 
ATOM      7  C   UNL     1       7.408   4.476  12.174  0.00  0.00    +0.000 A 
ATOM      8  C   UNL     1       6.111   3.968  11.953  0.00  0.00    +0.000 A 
ATOM      9  C   UNL     1       5.224   3.773  13.022  0.00  0.00    +0.000 A 
ATOM     10  C   UNL     1       5.642   4.149  14.277  0.00  0.00    +0.000 A 
ATOM     11  O   UNL     1       4.971   4.012  15.459  0.00  0.00    +0.000 OA
ENDBRANCH   1   2
BRANCH   1  12
ATOM     12  C   UNL     1       7.312   5.034  18.209  0.00  0.00    +0.000 C 
ATOM     13  O   UNL     1       8.322   4.369  18.037  0.00  0.00    +0.000 OA
BRANCH  12  14
ATOM     14  O   UNL     1       7.272   6.228  18.884  0.00  0.00    +0.000 OA
BRANCH  14  16
ATOM     15  C   UNL     1       7.654   8.244  17.593  0.00  0.00    +0.000 C 
ATOM     16  C   UNL     1       8.257   7.201  18.513  0.00  0.00    +0.000 C 
ENDBRANCH  14  16
ENDBRANCH  12  14
ENDBRANCH   1  12
BRANCH   1  17
ATOM     17  C   UNL     1       4.861   5.130  18.778  0.00  0.00    +0.000 C 
BRANCH  17  18
ATOM     18  C   UNL     1       3.694   4.201  18.960  0.00  0.00    +0.000 A 
ATOM     19  C   UNL     1       3.800   2.852  18.624  0.00  0.00    +0.000 A 
ATOM     20  C   UNL     1       2.699   2.004  18.751  0.00  0.00    +0.000 A 
ATOM     21  C   UNL     1       1.487   2.505  19.225  0.00  0.00    +0.000 A 
ATOM     22  C   UNL     1       1.379   3.839  19.594  0.00  0.00    +0.000 A 
ATOM     23  C   UNL     1       2.475   4.687  19.471  0.00  0.00    +0.000 A 
ENDBRANCH  17  18
ENDBRANCH   1  17
TORSDOF 6
ENDMDL
MODEL 9
REMARK VINA RESULT:      -7.6      2.723      5.484
REMARK  Name = 
REMARK  8 active torsions:
REMARK  status: ('A' for Active; 'I' for Inactive)
REMARK    1  A    between atoms: C_1  and  C_2
REMARK    2  A    between atoms: C_2  and  O_3
REMARK    3  A    between atoms: O_3  and  C_4
REMARK    4  A    between atoms: C_4  and  C_6
REMARK    5  A    between atoms: C_6  and  C_7
REMARK    6  A    between atoms: C_6  and  C_14
REMARK    7  A    between atoms: C_7  and  C_8
REMARK    8  A    between atoms: C_14  and  C_15
REMARK                            x       y       z     vdW  Elec       q    Type
REMARK                         _______ _______ _______ _____ _____    ______ ____
ROOT
ATOM      1  C   UNL     1       4.024   6.724  17.683  0.00  0.00    +0.000 C 
ENDROOT
BRANCH   1   2
ATOM      2  C   UNL     1       3.628   5.269  18.021  0.00  0.00    +0.000 C 
ATOM      3  C   UNL     1       4.579   4.290  17.293  0.00  0.00    +0.000 C 
ATOM      4  O   UNL     1       3.834   5.140  19.465  0.00  0.00    +0.000 OA
ATOM      5  C   UNL     1       2.779   4.359  19.822  0.00  0.00    +0.000 A 
ATOM      6  C   UNL     1       2.548   3.853  21.081  0.00  0.00    +0.000 A 
ATOM      7  C   UNL     1       1.557   2.876  21.205  0.00  0.00    +0.000 A 
ATOM      8  C   UNL     1       0.850   2.440  20.066  0.00  0.00    +0.000 A 
ATOM      9  C   UNL     1       1.040   3.060  18.822  0.00  0.00    +0.000 A 
ATOM     10  C   UNL     1       1.980   4.062  18.743  0.00  0.00    +0.000 A 
ATOM     11  O   UNL     1       2.298   4.828  17.658  0.00  0.00    +0.000 OA
ENDBRANCH   1   2
BRANCH   1  12
ATOM     12  C   UNL     1       5.246   6.856  16.804  0.00  0.00    +0.000 C 
ATOM     13  O   UNL     1       5.305   6.638  15.604  0.00  0.00    +0.000 OA
BRANCH  12  14
ATOM     14  O   UNL     1       6.307   7.252  17.578  0.00  0.00    +0.000 OA
BRANCH  14  16
ATOM     15  C   UNL     1       7.668   5.806  18.969  0.00  0.00    +0.000 C 
ATOM     16  C   UNL     1       7.448   6.383  17.584  0.00  0.00    +0.000 C 
ENDBRANCH  14  16
ENDBRANCH  12  14
ENDBRANCH   1  12
BRANCH   1  17
ATOM     17  C   UNL     1       2.898   7.670  17.217  0.00  0.00    +0.000 C 
BRANCH  17  18
ATOM     18  C   UNL     1       2.145   8.379  18.307  0.00  0.00    +0.000 A 
ATOM     19  C   UNL     1       2.069   7.835  19.590  0.00  0.00    +0.000 A 
ATOM     20  C   UNL     1       1.329   8.474  20.585  0.00  0.00    +0.000 A 
ATOM     21  C   UNL     1       0.668   9.668  20.300  0.00  0.00    +0.000 A 
ATOM     22  C   UNL     1       0.763  10.236  19.037  0.00  0.00    +0.000 A 
ATOM     23  C   UNL     1       1.502   9.603  18.043  0.00  0.00    +0.000 A 
ENDBRANCH  17  18
ENDBRANCH   1  17
TORSDOF 6
ENDMDL
