MODEL 1
REMARK VINA RESULT:      -7.5      0.000      0.000
REMARK  Name = 
REMARK  11 active torsions:
REMARK  status: ('A' for Active; 'I' for Inactive)
REMARK    1  A    between atoms: C_1  and  C_2
REMARK    2  A    between atoms: C_2  and  C_3
REMARK    3  A    between atoms: C_14  and  C_15
REMARK    4  A    between atoms: C_15  and  C_16
REMARK    5  A    between atoms: C_15  and  C_17
REMARK    6  A    between atoms: C_15  and  C_18
REMARK    7  A    between atoms: C_20  and  C_21
REMARK    8  A    between atoms: C_21  and  C_22
REMARK    9  A    between atoms: C_21  and  C_23
REMARK   10  A    between atoms: C_21  and  C_24
REMARK   11  A    between atoms: C_25  and  C_26
REMARK                            x       y       z     vdW  Elec       q    Type
REMARK                         _______ _______ _______ _____ _____    ______ ____
ROOT
ATOM      1  C   UNL     1      -1.571  15.837  25.948  0.00  0.00    +0.000 C 
ATOM      2  C   UNL     1      -2.347  15.226  24.771  0.00  0.00    +0.000 C 
ATOM      3  C   UNL     1      -3.159  16.352  24.095  0.00  0.00    +0.000 C 
ATOM      4  C   UNL     1      -3.282  14.107  25.262  0.00  0.00    +0.000 C 
ATOM      5  C   UNL     1      -3.888  13.291  24.124  0.00  0.00    +0.000 C 
ATOM      6  O   UNL     1      -4.811  12.509  24.348  0.00  0.00    +0.000 OA
ATOM      7  C   UNL     1      -3.279  13.379  22.767  0.00  0.00    +0.000 C 
ATOM      8  C   UNL     1      -2.068  13.935  22.652  0.00  0.00    +0.000 C 
ATOM      9  C   UNL     1      -1.351  14.611  23.778  0.00  0.00    +0.000 C 
ATOM     10  O   UNL     1      -1.363  13.970  21.474  0.00  0.00    +0.000 OA
ATOM     11  C   UNL     1      -1.733  13.148  20.436  0.00  0.00    +0.000 A 
ATOM     12  C   UNL     1      -3.005  12.536  20.388  0.00  0.00    +0.000 A 
ATOM     13  C   UNL     1      -3.275  11.648  19.325  0.00  0.00    +0.000 A 
ATOM     14  C   UNL     1      -2.359  11.444  18.296  0.00  0.00    +0.000 A 
ATOM     15  C   UNL     1      -1.098  12.055  18.416  0.00  0.00    +0.000 A 
ATOM     16  C   UNL     1      -0.746  12.922  19.451  0.00  0.00    +0.000 A 
ATOM     17  C   UNL     1      -3.922  12.664  21.609  0.00  0.00    +0.000 C 
ENDROOT
BRANCH  17  18
ATOM     18  C   UNL     1      -5.292  13.146  21.169  0.00  0.00    +0.000 A 
ATOM     19  C   UNL     1      -6.374  12.270  21.220  0.00  0.00    +0.000 A 
ATOM     20  N   UNL     1      -7.496  12.998  20.956  0.00  0.00    +0.000 N 
ATOM     21  C   UNL     1      -7.109  14.011  20.122  0.00  0.00    +0.000 A 
ATOM     22  C   UNL     1      -7.800  14.637  19.087  0.00  0.00    +0.000 A 
ATOM     23  C   UNL     1      -7.231  15.798  18.581  0.00  0.00    +0.000 A 
ATOM     24  C   UNL     1      -6.118  16.360  19.207  0.00  0.00    +0.000 A 
ATOM     25  C   UNL     1      -5.397  15.656  20.201  0.00  0.00    +0.000 A 
ATOM     26  C   UNL     1      -5.825  14.358  20.557  0.00  0.00    +0.000 A 
ATOM     27  H   UNL     1      -8.214  13.133  21.660  0.00  0.00    +0.000 HD
ENDBRANCH  17  18
BRANCH  14  28
ATOM     28  C   UNL     1      -2.622  10.544  17.074  0.00  0.00    +0.000 C 
ATOM     29  C   UNL     1      -2.900  11.316  15.762  0.00  0.00    +0.000 C 
ATOM     30  C   UNL     1      -1.367   9.669  16.842  0.00  0.00    +0.000 C 
ATOM     31  C   UNL     1      -3.834   9.605  17.305  0.00  0.00    +0.000 C 
ENDBRANCH  14  28
BRANCH  16  32
ATOM     32  C   UNL     1       0.652  13.578  19.478  0.00  0.00    +0.000 C 
ATOM     33  C   UNL     1       1.356  13.481  20.860  0.00  0.00    +0.000 C 
ATOM     34  C   UNL     1       1.588  12.874  18.472  0.00  0.00    +0.000 C 
ATOM     35  C   UNL     1       0.574  15.088  19.157  0.00  0.00    +0.000 C 
ENDBRANCH  16  32
TORSDOF 3
ENDMDL
MODEL 2
REMARK VINA RESULT:      -7.3      0.273      1.088
REMARK  Name = 
REMARK  11 active torsions:
REMARK  status: ('A' for Active; 'I' for Inactive)
REMARK    1  A    between atoms: C_1  and  C_2
REMARK    2  A    between atoms: C_2  and  C_3
REMARK    3  A    between atoms: C_14  and  C_15
REMARK    4  A    between atoms: C_15  and  C_16
REMARK    5  A    between atoms: C_15  and  C_17
REMARK    6  A    between atoms: C_15  and  C_18
REMARK    7  A    between atoms: C_20  and  C_21
REMARK    8  A    between atoms: C_21  and  C_22
REMARK    9  A    between atoms: C_21  and  C_23
REMARK   10  A    between atoms: C_21  and  C_24
REMARK   11  A    between atoms: C_25  and  C_26
REMARK                            x       y       z     vdW  Elec       q    Type
REMARK                         _______ _______ _______ _____ _____    ______ ____
ROOT
ATOM      1  C   UNL     1      -1.396  16.117  26.030  0.00  0.00    +0.000 C 
ATOM      2  C   UNL     1      -2.191  15.472  24.886  0.00  0.00    +0.000 C 
ATOM      3  C   UNL     1      -3.038  16.572  24.210  0.00  0.00    +0.000 C 
ATOM      4  C   UNL     1      -3.096  14.348  25.422  0.00  0.00    +0.000 C 
ATOM      5  C   UNL     1      -3.718  13.501  24.316  0.00  0.00    +0.000 C 
ATOM      6  O   UNL     1      -4.622  12.709  24.579  0.00  0.00    +0.000 OA
ATOM      7  C   UNL     1      -3.145  13.572  22.942  0.00  0.00    +0.000 C 
ATOM      8  C   UNL     1      -1.946  14.144  22.786  0.00  0.00    +0.000 C 
ATOM      9  C   UNL     1      -1.211  14.853  23.880  0.00  0.00    +0.000 C 
ATOM     10  O   UNL     1      -1.272  14.167  21.589  0.00  0.00    +0.000 OA
ATOM     11  C   UNL     1      -1.655  13.319  20.578  0.00  0.00    +0.000 A 
ATOM     12  C   UNL     1      -2.918  12.687  20.573  0.00  0.00    +0.000 A 
ATOM     13  C   UNL     1      -3.201  11.775  19.535  0.00  0.00    +0.000 A 
ATOM     14  C   UNL     1      -2.308  11.564  18.487  0.00  0.00    +0.000 A 
ATOM     15  C   UNL     1      -1.054  12.197  18.563  0.00  0.00    +0.000 A 
ATOM     16  C   UNL     1      -0.690  13.089  19.571  0.00  0.00    +0.000 A 
ATOM     17  C   UNL     1      -3.805  12.825  21.815  0.00  0.00    +0.000 C 
ENDROOT
BRANCH  17  18
ATOM     18  C   UNL     1      -5.194  13.277  21.401  0.00  0.00    +0.000 A 
ATOM     19  C   UNL     1      -6.265  12.394  21.523  0.00  0.00    +0.000 A 
ATOM     20  N   UNL     1      -7.402  13.101  21.267  0.00  0.00    +0.000 N 
ATOM     21  C   UNL     1      -7.053  14.084  20.381  0.00  0.00    +0.000 A 
ATOM     22  C   UNL     1      -7.783  14.662  19.346  0.00  0.00    +0.000 A 
ATOM     23  C   UNL     1      -7.242  15.806  18.776  0.00  0.00    +0.000 A 
ATOM     24  C   UNL     1      -6.115  16.402  19.342  0.00  0.00    +0.000 A 
ATOM     25  C   UNL     1      -5.355  15.745  20.338  0.00  0.00    +0.000 A 
ATOM     26  C   UNL     1      -5.758  14.459  20.759  0.00  0.00    +0.000 A 
ATOM     27  H   UNL     1      -8.099  13.258  21.988  0.00  0.00    +0.000 HD
ENDBRANCH  17  18
BRANCH  14  28
ATOM     28  C   UNL     1      -2.588  10.637  17.290  0.00  0.00    +0.000 C 
ATOM     29  C   UNL     1      -3.861   9.770  17.440  0.00  0.00    +0.000 C 
ATOM     30  C   UNL     1      -2.771  11.517  16.031  0.00  0.00    +0.000 C 
ATOM     31  C   UNL     1      -1.410   9.661  17.034  0.00  0.00    +0.000 C 
ENDBRANCH  14  28
BRANCH  16  32
ATOM     32  C   UNL     1       0.698  13.767  19.550  0.00  0.00    +0.000 C 
ATOM     33  C   UNL     1       1.618  13.262  18.404  0.00  0.00    +0.000 C 
ATOM     34  C   UNL     1       0.541  15.288  19.333  0.00  0.00    +0.000 C 
ATOM     35  C   UNL     1       1.478  13.500  20.857  0.00  0.00    +0.000 C 
ENDBRANCH  16  32
TORSDOF 3
ENDMDL
MODEL 3
REMARK VINA RESULT:      -7.3      0.984      1.451
REMARK  Name = 
REMARK  11 active torsions:
REMARK  status: ('A' for Active; 'I' for Inactive)
REMARK    1  A    between atoms: C_1  and  C_2
REMARK    2  A    between atoms: C_2  and  C_3
REMARK    3  A    between atoms: C_14  and  C_15
REMARK    4  A    between atoms: C_15  and  C_16
REMARK    5  A    between atoms: C_15  and  C_17
REMARK    6  A    between atoms: C_15  and  C_18
REMARK    7  A    between atoms: C_20  and  C_21
REMARK    8  A    between atoms: C_21  and  C_22
REMARK    9  A    between atoms: C_21  and  C_23
REMARK   10  A    between atoms: C_21  and  C_24
REMARK   11  A    between atoms: C_25  and  C_26
REMARK                            x       y       z     vdW  Elec       q    Type
REMARK                         _______ _______ _______ _____ _____    ______ ____
ROOT
ATOM      1  C   UNL     1      -1.050  15.671  25.920  0.00  0.00    +0.000 C 
ATOM      2  C   UNL     1      -1.933  15.344  24.706  0.00  0.00    +0.000 C 
ATOM      3  C   UNL     1      -2.246  16.665  23.971  0.00  0.00    +0.000 C 
ATOM      4  C   UNL     1      -3.234  14.654  25.153  0.00  0.00    +0.000 C 
ATOM      5  C   UNL     1      -4.035  14.076  23.990  0.00  0.00    +0.000 C 
ATOM      6  O   UNL     1      -5.189  13.687  24.168  0.00  0.00    +0.000 OA
ATOM      7  C   UNL     1      -3.366  13.895  22.671  0.00  0.00    +0.000 C 
ATOM      8  C   UNL     1      -2.032  13.972  22.623  0.00  0.00    +0.000 C 
ATOM      9  C   UNL     1      -1.177  14.380  23.781  0.00  0.00    +0.000 C 
ATOM     10  O   UNL     1      -1.302  13.713  21.488  0.00  0.00    +0.000 OA
ATOM     11  C   UNL     1      -1.891  13.047  20.440  0.00  0.00    +0.000 A 
ATOM     12  C   UNL     1      -3.293  12.934  20.322  0.00  0.00    +0.000 A 
ATOM     13  C   UNL     1      -3.811  12.169  19.255  0.00  0.00    +0.000 A 
ATOM     14  C   UNL     1      -2.980  11.616  18.285  0.00  0.00    +0.000 A 
ATOM     15  C   UNL     1      -1.591  11.734  18.473  0.00  0.00    +0.000 A 
ATOM     16  C   UNL     1      -1.003  12.448  19.517  0.00  0.00    +0.000 A 
ATOM     17  C   UNL     1      -4.163  13.423  21.485  0.00  0.00    +0.000 C 
ENDROOT
BRANCH  17  18
ATOM     18  C   UNL     1      -5.242  14.353  20.959  0.00  0.00    +0.000 A 
ATOM     19  C   UNL     1      -6.548  13.884  20.834  0.00  0.00    +0.000 A 
ATOM     20  N   UNL     1      -7.334  14.954  20.527  0.00  0.00    +0.000 N 
ATOM     21  C   UNL     1      -6.544  15.820  19.820  0.00  0.00    +0.000 A 
ATOM     22  C   UNL     1      -6.869  16.688  18.780  0.00  0.00    +0.000 A 
ATOM     23  C   UNL     1      -5.899  17.616  18.428  0.00  0.00    +0.000 A 
ATOM     24  C   UNL     1      -4.745  17.747  19.201  0.00  0.00    +0.000 A 
ATOM     25  C   UNL     1      -4.412  16.798  20.197  0.00  0.00    +0.000 A 
ATOM     26  C   UNL     1      -5.277  15.700  20.402  0.00  0.00    +0.000 A 
ATOM     27  H   UNL     1      -8.046  15.286  21.169  0.00  0.00    +0.000 HD
ENDBRANCH  17  18
BRANCH  14  28
ATOM     28  C   UNL     1      -3.488  10.832  17.060  0.00  0.00    +0.000 C 
ATOM     29  C   UNL     1      -2.609  10.987  15.796  0.00  0.00    +0.000 C 
ATOM     30  C   UNL     1      -3.514   9.330  17.427  0.00  0.00    +0.000 C 
ATOM     31  C   UNL     1      -4.924  11.261  16.662  0.00  0.00    +0.000 C 
ENDBRANCH  14  28
BRANCH  16  32
ATOM     32  C   UNL     1       0.534  12.556  19.620  0.00  0.00    +0.000 C 
ATOM     33  C   UNL     1       1.290  11.587  18.669  0.00  0.00    +0.000 C 
ATOM     34  C   UNL     1       0.993  13.979  19.233  0.00  0.00    +0.000 C 
ATOM     35  C   UNL     1       1.031  12.213  21.043  0.00  0.00    +0.000 C 
ENDBRANCH  16  32
TORSDOF 3
ENDMDL
MODEL 4
REMARK VINA RESULT:      -7.2      2.580      6.624
REMARK  Name = 
REMARK  11 active torsions:
REMARK  status: ('A' for Active; 'I' for Inactive)
REMARK    1  A    between atoms: C_1  and  C_2
REMARK    2  A    between atoms: C_2  and  C_3
REMARK    3  A    between atoms: C_14  and  C_15
REMARK    4  A    between atoms: C_15  and  C_16
REMARK    5  A    between atoms: C_15  and  C_17
REMARK    6  A    between atoms: C_15  and  C_18
REMARK    7  A    between atoms: C_20  and  C_21
REMARK    8  A    between atoms: C_21  and  C_22
REMARK    9  A    between atoms: C_21  and  C_23
REMARK   10  A    between atoms: C_21  and  C_24
REMARK   11  A    between atoms: C_25  and  C_26
REMARK                            x       y       z     vdW  Elec       q    Type
REMARK                         _______ _______ _______ _____ _____    ______ ____
ROOT
ATOM      1  C   UNL     1       1.137   9.446  18.017  0.00  0.00    +0.000 C 
ATOM      2  C   UNL     1       0.484  10.455  18.974  0.00  0.00    +0.000 C 
ATOM      3  C   UNL     1       1.012  11.862  18.622  0.00  0.00    +0.000 C 
ATOM      4  C   UNL     1       0.813  10.105  20.436  0.00  0.00    +0.000 C 
ATOM      5  C   UNL     1      -0.005  10.908  21.442  0.00  0.00    +0.000 C 
ATOM      6  O   UNL     1       0.295  10.892  22.635  0.00  0.00    +0.000 OA
ATOM      7  C   UNL     1      -1.227  11.621  20.975  0.00  0.00    +0.000 C 
ATOM      8  C   UNL     1      -1.722  11.307  19.773  0.00  0.00    +0.000 C 
ATOM      9  C   UNL     1      -1.040  10.395  18.803  0.00  0.00    +0.000 C 
ATOM     10  O   UNL     1      -2.902  11.816  19.287  0.00  0.00    +0.000 OA
ATOM     11  C   UNL     1      -3.788  12.417  20.148  0.00  0.00    +0.000 A 
ATOM     12  C   UNL     1      -3.397  12.859  21.431  0.00  0.00    +0.000 A 
ATOM     13  C   UNL     1      -4.388  13.399  22.279  0.00  0.00    +0.000 A 
ATOM     14  C   UNL     1      -5.697  13.583  21.843  0.00  0.00    +0.000 A 
ATOM     15  C   UNL     1      -6.034  13.095  20.568  0.00  0.00    +0.000 A 
ATOM     16  C   UNL     1      -5.119  12.524  19.684  0.00  0.00    +0.000 A 
ATOM     17  C   UNL     1      -1.992  12.500  21.927  0.00  0.00    +0.000 C 
ENDROOT
BRANCH  17  18
ATOM     18  C   UNL     1      -1.294  13.752  22.429  0.00  0.00    +0.000 A 
ATOM     19  C   UNL     1      -1.509  14.175  23.739  0.00  0.00    +0.000 A 
ATOM     20  N   UNL     1      -0.633  15.191  23.984  0.00  0.00    +0.000 N 
ATOM     21  C   UNL     1      -0.428  15.818  22.785  0.00  0.00    +0.000 A 
ATOM     22  C   UNL     1      -0.189  17.161  22.501  0.00  0.00    +0.000 A 
ATOM     23  C   UNL     1       0.220  17.453  21.208  0.00  0.00    +0.000 A 
ATOM     24  C   UNL     1       0.520  16.419  20.320  0.00  0.00    +0.000 A 
ATOM     25  C   UNL     1       0.189  15.075  20.614  0.00  0.00    +0.000 A 
ATOM     26  C   UNL     1      -0.458  14.789  21.837  0.00  0.00    +0.000 A 
ATOM     27  H   UNL     1       0.110  15.093  24.668  0.00  0.00    +0.000 HD
ENDBRANCH  17  18
BRANCH  14  28
ATOM     28  C   UNL     1      -6.805  14.231  22.695  0.00  0.00    +0.000 C 
ATOM     29  C   UNL     1      -7.506  13.259  23.674  0.00  0.00    +0.000 C 
ATOM     30  C   UNL     1      -6.166  15.360  23.538  0.00  0.00    +0.000 C 
ATOM     31  C   UNL     1      -7.916  14.854  21.810  0.00  0.00    +0.000 C 
ENDBRANCH  14  28
BRANCH  16  32
ATOM     32  C   UNL     1      -5.574  12.051  18.286  0.00  0.00    +0.000 C 
ATOM     33  C   UNL     1      -6.455  13.089  17.536  0.00  0.00    +0.000 C 
ATOM     34  C   UNL     1      -4.346  11.802  17.384  0.00  0.00    +0.000 C 
ATOM     35  C   UNL     1      -6.430  10.767  18.374  0.00  0.00    +0.000 C 
ENDBRANCH  16  32
TORSDOF 3
ENDMDL
MODEL 5
REMARK VINA RESULT:      -7.1      2.639      5.910
REMARK  Name = 
REMARK  11 active torsions:
REMARK  status: ('A' for Active; 'I' for Inactive)
REMARK    1  A    between atoms: C_1  and  C_2
REMARK    2  A    between atoms: C_2  and  C_3
REMARK    3  A    between atoms: C_14  and  C_15
REMARK    4  A    between atoms: C_15  and  C_16
REMARK    5  A    between atoms: C_15  and  C_17
REMARK    6  A    between atoms: C_15  and  C_18
REMARK    7  A    between atoms: C_20  and  C_21
REMARK    8  A    between atoms: C_21  and  C_22
REMARK    9  A    between atoms: C_21  and  C_23
REMARK   10  A    between atoms: C_21  and  C_24
REMARK   11  A    between atoms: C_25  and  C_26
REMARK                            x       y       z     vdW  Elec       q    Type
REMARK                         _______ _______ _______ _____ _____    ______ ____
ROOT
ATOM      1  C   UNL     1      -1.219  18.000  24.772  0.00  0.00    +0.000 C 
ATOM      2  C   UNL     1      -1.300  16.867  23.738  0.00  0.00    +0.000 C 
ATOM      3  C   UNL     1      -0.401  15.709  24.222  0.00  0.00    +0.000 C 
ATOM      4  C   UNL     1      -0.843  17.362  22.354  0.00  0.00    +0.000 C 
ATOM      5  C   UNL     1      -1.138  16.368  21.235  0.00  0.00    +0.000 C 
ATOM      6  O   UNL     1      -0.644  16.530  20.120  0.00  0.00    +0.000 OA
ATOM      7  C   UNL     1      -2.110  15.267  21.484  0.00  0.00    +0.000 C 
ATOM      8  C   UNL     1      -2.897  15.350  22.563  0.00  0.00    +0.000 C 
ATOM      9  C   UNL     1      -2.758  16.402  23.618  0.00  0.00    +0.000 C 
ATOM     10  O   UNL     1      -3.903  14.454  22.833  0.00  0.00    +0.000 OA
ATOM     11  C   UNL     1      -4.355  13.621  21.838  0.00  0.00    +0.000 A 
ATOM     12  C   UNL     1      -3.606  13.386  20.664  0.00  0.00    +0.000 A 
ATOM     13  C   UNL     1      -4.178  12.575  19.661  0.00  0.00    +0.000 A 
ATOM     14  C   UNL     1      -5.404  11.942  19.848  0.00  0.00    +0.000 A 
ATOM     15  C   UNL     1      -6.118  12.240  21.023  0.00  0.00    +0.000 A 
ATOM     16  C   UNL     1      -5.633  13.053  22.046  0.00  0.00    +0.000 A 
ATOM     17  C   UNL     1      -2.339  14.217  20.431  0.00  0.00    +0.000 C 
ENDROOT
BRANCH  17  18
ATOM     18  C   UNL     1      -1.178  13.295  20.104  0.00  0.00    +0.000 A 
ATOM     19  C   UNL     1      -0.570  13.378  18.853  0.00  0.00    +0.000 A 
ATOM     20  N   UNL     1       0.542  12.590  18.892  0.00  0.00    +0.000 N 
ATOM     21  C   UNL     1       0.264  11.577  19.768  0.00  0.00    +0.000 A 
ATOM     22  C   UNL     1       0.673  10.245  19.762  0.00  0.00    +0.000 A 
ATOM     23  C   UNL     1       0.424   9.520  20.919  0.00  0.00    +0.000 A 
ATOM     24  C   UNL     1      -0.061  10.165  22.057  0.00  0.00    +0.000 A 
ATOM     25  C   UNL     1      -0.541  11.496  22.003  0.00  0.00    +0.000 A 
ATOM     26  C   UNL     1      -0.521  12.173  20.763  0.00  0.00    +0.000 A 
ATOM     27  H   UNL     1       1.472  12.987  18.815  0.00  0.00    +0.000 HD
ENDBRANCH  17  18
BRANCH  14  28
ATOM     28  C   UNL     1      -6.048  10.990  18.822  0.00  0.00    +0.000 C 
ATOM     29  C   UNL     1      -6.886   9.851  19.449  0.00  0.00    +0.000 C 
ATOM     30  C   UNL     1      -6.993  11.821  17.922  0.00  0.00    +0.000 C 
ATOM     31  C   UNL     1      -4.982  10.317  17.919  0.00  0.00    +0.000 C 
ENDBRANCH  14  28
BRANCH  16  32
ATOM     32  C   UNL     1      -6.474  13.291  23.320  0.00  0.00    +0.000 C 
ATOM     33  C   UNL     1      -7.912  12.708  23.232  0.00  0.00    +0.000 C 
ATOM     34  C   UNL     1      -5.807  12.603  24.531  0.00  0.00    +0.000 C 
ATOM     35  C   UNL     1      -6.654  14.800  23.605  0.00  0.00    +0.000 C 
ENDBRANCH  16  32
TORSDOF 3
ENDMDL
MODEL 6
REMARK VINA RESULT:      -7.1      2.820      6.097
REMARK  Name = 
REMARK  11 active torsions:
REMARK  status: ('A' for Active; 'I' for Inactive)
REMARK    1  A    between atoms: C_1  and  C_2
REMARK    2  A    between atoms: C_2  and  C_3
REMARK    3  A    between atoms: C_14  and  C_15
REMARK    4  A    between atoms: C_15  and  C_16
REMARK    5  A    between atoms: C_15  and  C_17
REMARK    6  A    between atoms: C_15  and  C_18
REMARK    7  A    between atoms: C_20  and  C_21
REMARK    8  A    between atoms: C_21  and  C_22
REMARK    9  A    between atoms: C_21  and  C_23
REMARK   10  A    between atoms: C_21  and  C_24
REMARK   11  A    between atoms: C_25  and  C_26
REMARK                            x       y       z     vdW  Elec       q    Type
REMARK                         _______ _______ _______ _____ _____    ______ ____
ROOT
ATOM      1  C   UNL     1       0.733  18.185  22.623  0.00  0.00    +0.000 C 
ATOM      2  C   UNL     1       0.201  16.848  22.086  0.00  0.00    +0.000 C 
ATOM      3  C   UNL     1       0.734  15.720  22.995  0.00  0.00    +0.000 C 
ATOM      4  C   UNL     1       0.655  16.629  20.632  0.00  0.00    +0.000 C 
ATOM      5  C   UNL     1      -0.042  15.452  19.958  0.00  0.00    +0.000 C 
ATOM      6  O   UNL     1       0.368  15.027  18.878  0.00  0.00    +0.000 OA
ATOM      7  C   UNL     1      -1.282  14.898  20.572  0.00  0.00    +0.000 C 
ATOM      8  C   UNL     1      -1.895  15.618  21.517  0.00  0.00    +0.000 C 
ATOM      9  C   UNL     1      -1.334  16.874  22.106  0.00  0.00    +0.000 C 
ATOM     10  O   UNL     1      -3.101  15.262  22.073  0.00  0.00    +0.000 OA
ATOM     11  C   UNL     1      -3.885  14.322  21.448  0.00  0.00    +0.000 A 
ATOM     12  C   UNL     1      -3.363  13.447  20.471  0.00  0.00    +0.000 A 
ATOM     13  C   UNL     1      -4.255  12.562  19.827  0.00  0.00    +0.000 A 
ATOM     14  C   UNL     1      -5.593  12.477  20.201  0.00  0.00    +0.000 A 
ATOM     15  C   UNL     1      -6.062  13.396  21.157  0.00  0.00    +0.000 A 
ATOM     16  C   UNL     1      -5.250  14.319  21.816  0.00  0.00    +0.000 A 
ATOM     17  C   UNL     1      -1.929  13.674  19.981  0.00  0.00    +0.000 C 
ENDROOT
BRANCH  17  18
ATOM     18  C   UNL     1      -1.152  12.372  20.058  0.00  0.00    +0.000 A 
ATOM     19  C   UNL     1      -0.799  11.716  18.880  0.00  0.00    +0.000 A 
ATOM     20  N   UNL     1       0.039  10.696  19.222  0.00  0.00    +0.000 N 
ATOM     21  C   UNL     1      -0.332  10.299  20.478  0.00  0.00    +0.000 A 
ATOM     22  C   UNL     1      -0.313   9.036  21.064  0.00  0.00    +0.000 A 
ATOM     23  C   UNL     1      -0.522   8.991  22.435  0.00  0.00    +0.000 A 
ATOM     24  C   UNL     1      -0.581  10.174  23.172  0.00  0.00    +0.000 A 
ATOM     25  C   UNL     1      -0.678  11.435  22.537  0.00  0.00    +0.000 A 
ATOM     26  C   UNL     1      -0.713  11.480  21.125  0.00  0.00    +0.000 A 
ATOM     27  H   UNL     1       1.009  10.690  18.926  0.00  0.00    +0.000 HD
ENDBRANCH  17  18
BRANCH  14  28
ATOM     28  C   UNL     1      -6.598  11.485  19.586  0.00  0.00    +0.000 C 
ATOM     29  C   UNL     1      -7.515  10.786  20.619  0.00  0.00    +0.000 C 
ATOM     30  C   UNL     1      -7.509  12.265  18.609  0.00  0.00    +0.000 C 
ATOM     31  C   UNL     1      -5.881  10.362  18.793  0.00  0.00    +0.000 C 
ENDBRANCH  14  28
BRANCH  16  32
ATOM     32  C   UNL     1      -5.847  15.263  22.883  0.00  0.00    +0.000 C 
ATOM     33  C   UNL     1      -4.912  15.491  24.103  0.00  0.00    +0.000 C 
ATOM     34  C   UNL     1      -6.101  16.659  22.272  0.00  0.00    +0.000 C 
ATOM     35  C   UNL     1      -7.161  14.697  23.467  0.00  0.00    +0.000 C 
ENDBRANCH  16  32
TORSDOF 3
ENDMDL
MODEL 7
REMARK VINA RESULT:      -7.1      2.570      6.578
REMARK  Name = 
REMARK  11 active torsions:
REMARK  status: ('A' for Active; 'I' for Inactive)
REMARK    1  A    between atoms: C_1  and  C_2
REMARK    2  A    between atoms: C_2  and  C_3
REMARK    3  A    between atoms: C_14  and  C_15
REMARK    4  A    between atoms: C_15  and  C_16
REMARK    5  A    between atoms: C_15  and  C_17
REMARK    6  A    between atoms: C_15  and  C_18
REMARK    7  A    between atoms: C_20  and  C_21
REMARK    8  A    between atoms: C_21  and  C_22
REMARK    9  A    between atoms: C_21  and  C_23
REMARK   10  A    between atoms: C_21  and  C_24
REMARK   11  A    between atoms: C_25  and  C_26
REMARK                            x       y       z     vdW  Elec       q    Type
REMARK                         _______ _______ _______ _____ _____    ______ ____
ROOT
ATOM      1  C   UNL     1       1.273   9.255  18.055  0.00  0.00    +0.000 C 
ATOM      2  C   UNL     1       0.624  10.327  18.943  0.00  0.00    +0.000 C 
ATOM      3  C   UNL     1       1.206  11.699  18.542  0.00  0.00    +0.000 C 
ATOM      4  C   UNL     1       0.900  10.037  20.430  0.00  0.00    +0.000 C 
ATOM      5  C   UNL     1       0.079  10.911  21.372  0.00  0.00    +0.000 C 
ATOM      6  O   UNL     1       0.344  10.943  22.573  0.00  0.00    +0.000 OA
ATOM      7  C   UNL     1      -1.107  11.637  20.836  0.00  0.00    +0.000 C 
ATOM      8  C   UNL     1      -1.576  11.281  19.635  0.00  0.00    +0.000 C 
ATOM      9  C   UNL     1      -0.896  10.304  18.730  0.00  0.00    +0.000 C 
ATOM     10  O   UNL     1      -2.725  11.802  19.090  0.00  0.00    +0.000 OA
ATOM     11  C   UNL     1      -3.617  12.470  19.896  0.00  0.00    +0.000 A 
ATOM     12  C   UNL     1      -3.249  12.960  21.167  0.00  0.00    +0.000 A 
ATOM     13  C   UNL     1      -4.246  13.569  21.959  0.00  0.00    +0.000 A 
ATOM     14  C   UNL     1      -5.536  13.772  21.476  0.00  0.00    +0.000 A 
ATOM     15  C   UNL     1      -5.851  13.234  20.215  0.00  0.00    +0.000 A 
ATOM     16  C   UNL     1      -4.929  12.594  19.387  0.00  0.00    +0.000 A 
ATOM     17  C   UNL     1      -1.870  12.584  21.722  0.00  0.00    +0.000 C 
ENDROOT
BRANCH  17  18
ATOM     18  C   UNL     1      -1.149  13.836  22.186  0.00  0.00    +0.000 A 
ATOM     19  C   UNL     1      -1.304  14.267  23.502  0.00  0.00    +0.000 A 
ATOM     20  N   UNL     1      -0.417  15.283  23.702  0.00  0.00    +0.000 N 
ATOM     21  C   UNL     1      -0.264  15.902  22.492  0.00  0.00    +0.000 A 
ATOM     22  C   UNL     1      -0.035  17.243  22.191  0.00  0.00    +0.000 A 
ATOM     23  C   UNL     1       0.318  17.527  20.879  0.00  0.00    +0.000 A 
ATOM     24  C   UNL     1       0.576  16.488  19.984  0.00  0.00    +0.000 A 
ATOM     25  C   UNL     1       0.256  15.146  20.300  0.00  0.00    +0.000 A 
ATOM     26  C   UNL     1      -0.337  14.868  21.551  0.00  0.00    +0.000 A 
ATOM     27  H   UNL     1       0.356  15.187  24.353  0.00  0.00    +0.000 HD
ENDBRANCH  17  18
BRANCH  14  28
ATOM     28  C   UNL     1      -6.647  14.492  22.262  0.00  0.00    +0.000 C 
ATOM     29  C   UNL     1      -7.914  14.807  21.431  0.00  0.00    +0.000 C 
ATOM     30  C   UNL     1      -7.076  13.579  23.435  0.00  0.00    +0.000 C 
ATOM     31  C   UNL     1      -6.152  15.839  22.850  0.00  0.00    +0.000 C 
ENDBRANCH  14  28
BRANCH  16  32
ATOM     32  C   UNL     1      -5.359  12.069  17.999  0.00  0.00    +0.000 C 
ATOM     33  C   UNL     1      -4.166  11.807  17.038  0.00  0.00    +0.000 C 
ATOM     34  C   UNL     1      -6.093  10.718  18.148  0.00  0.00    +0.000 C 
ATOM     35  C   UNL     1      -6.267  13.083  17.267  0.00  0.00    +0.000 C 
ENDBRANCH  16  32
TORSDOF 3
ENDMDL
MODEL 8
REMARK VINA RESULT:      -7.0      2.833      6.132
REMARK  Name = 
REMARK  11 active torsions:
REMARK  status: ('A' for Active; 'I' for Inactive)
REMARK    1  A    between atoms: C_1  and  C_2
REMARK    2  A    between atoms: C_2  and  C_3
REMARK    3  A    between atoms: C_14  and  C_15
REMARK    4  A    between atoms: C_15  and  C_16
REMARK    5  A    between atoms: C_15  and  C_17
REMARK    6  A    between atoms: C_15  and  C_18
REMARK    7  A    between atoms: C_20  and  C_21
REMARK    8  A    between atoms: C_21  and  C_22
REMARK    9  A    between atoms: C_21  and  C_23
REMARK   10  A    between atoms: C_21  and  C_24
REMARK   11  A    between atoms: C_25  and  C_26
REMARK                            x       y       z     vdW  Elec       q    Type
REMARK                         _______ _______ _______ _____ _____    ______ ____
ROOT
ATOM      1  C   UNL     1       1.845  17.666  21.710  0.00  0.00    +0.000 C 
ATOM      2  C   UNL     1       1.156  16.348  21.328  0.00  0.00    +0.000 C 
ATOM      3  C   UNL     1       1.538  15.284  22.378  0.00  0.00    +0.000 C 
ATOM      4  C   UNL     1       1.590  15.898  19.921  0.00  0.00    +0.000 C 
ATOM      5  C   UNL     1       0.757  14.741  19.379  0.00  0.00    +0.000 C 
ATOM      6  O   UNL     1       1.119  14.140  18.368  0.00  0.00    +0.000 OA
ATOM      7  C   UNL     1      -0.546  14.422  20.027  0.00  0.00    +0.000 C 
ATOM      8  C   UNL     1      -1.073  15.323  20.864  0.00  0.00    +0.000 C 
ATOM      9  C   UNL     1      -0.364  16.563  21.309  0.00  0.00    +0.000 C 
ATOM     10  O   UNL     1      -2.317  15.188  21.431  0.00  0.00    +0.000 OA
ATOM     11  C   UNL     1      -3.207  14.280  20.908  0.00  0.00    +0.000 A 
ATOM     12  C   UNL     1      -2.790  13.235  20.055  0.00  0.00    +0.000 A 
ATOM     13  C   UNL     1      -3.779  12.393  19.503  0.00  0.00    +0.000 A 
ATOM     14  C   UNL     1      -5.121  12.519  19.854  0.00  0.00    +0.000 A 
ATOM     15  C   UNL     1      -5.479  13.598  20.682  0.00  0.00    +0.000 A 
ATOM     16  C   UNL     1      -4.564  14.489  21.242  0.00  0.00    +0.000 A 
ATOM     17  C   UNL     1      -1.335  13.224  19.574  0.00  0.00    +0.000 C 
ENDROOT
BRANCH  17  18
ATOM     18  C   UNL     1      -0.726  11.856  19.826  0.00  0.00    +0.000 A 
ATOM     19  C   UNL     1      -0.427  11.031  18.743  0.00  0.00    +0.000 A 
ATOM     20  N   UNL     1       0.271   9.965  19.228  0.00  0.00    +0.000 N 
ATOM     21  C   UNL     1      -0.177   9.762  20.505  0.00  0.00    +0.000 A 
ATOM     22  C   UNL     1      -0.329   8.581  21.228  0.00  0.00    +0.000 A 
ATOM     23  C   UNL     1      -0.577   8.719  22.586  0.00  0.00    +0.000 A 
ATOM     24  C   UNL     1      -0.510   9.978  23.185  0.00  0.00    +0.000 A 
ATOM     25  C   UNL     1      -0.434  11.160  22.410  0.00  0.00    +0.000 A 
ATOM     26  C   UNL     1      -0.428  11.047  21.002  0.00  0.00    +0.000 A 
ATOM     27  H   UNL     1       1.240   9.810  18.973  0.00  0.00    +0.000 HD
ENDBRANCH  17  18
BRANCH  14  28
ATOM     28  C   UNL     1      -6.236  11.588  19.342  0.00  0.00    +0.000 C 
ATOM     29  C   UNL     1      -7.247  12.270  18.389  0.00  0.00    +0.000 C 
ATOM     30  C   UNL     1      -5.574  10.427  18.564  0.00  0.00    +0.000 C 
ATOM     31  C   UNL     1      -7.059  10.985  20.510  0.00  0.00    +0.000 C 
ENDBRANCH  14  28
BRANCH  16  32
ATOM     32  C   UNL     1      -5.048  15.623  22.173  0.00  0.00    +0.000 C 
ATOM     33  C   UNL     1      -4.711  17.045  21.644  0.00  0.00    +0.000 C 
ATOM     34  C   UNL     1      -6.585  15.573  22.315  0.00  0.00    +0.000 C 
ATOM     35  C   UNL     1      -4.387  15.531  23.567  0.00  0.00    +0.000 C 
ENDBRANCH  16  32
TORSDOF 3
ENDMDL
MODEL 9
REMARK VINA RESULT:      -7.0      2.474      6.741
REMARK  Name = 
REMARK  11 active torsions:
REMARK  status: ('A' for Active; 'I' for Inactive)
REMARK    1  A    between atoms: C_1  and  C_2
REMARK    2  A    between atoms: C_2  and  C_3
REMARK    3  A    between atoms: C_14  and  C_15
REMARK    4  A    between atoms: C_15  and  C_16
REMARK    5  A    between atoms: C_15  and  C_17
REMARK    6  A    between atoms: C_15  and  C_18
REMARK    7  A    between atoms: C_20  and  C_21
REMARK    8  A    between atoms: C_21  and  C_22
REMARK    9  A    between atoms: C_21  and  C_23
REMARK   10  A    between atoms: C_21  and  C_24
REMARK   11  A    between atoms: C_25  and  C_26
REMARK                            x       y       z     vdW  Elec       q    Type
REMARK                         _______ _______ _______ _____ _____    ______ ____
ROOT
ATOM      1  C   UNL     1       1.146   9.487  18.200  0.00  0.00    +0.000 C 
ATOM      2  C   UNL     1       0.459  10.505  19.122  0.00  0.00    +0.000 C 
ATOM      3  C   UNL     1       0.966  11.913  18.744  0.00  0.00    +0.000 C 
ATOM      4  C   UNL     1       0.771  10.197  20.597  0.00  0.00    +0.000 C 
ATOM      5  C   UNL     1      -0.079  11.007  21.571  0.00  0.00    +0.000 C 
ATOM      6  O   UNL     1       0.203  11.026  22.769  0.00  0.00    +0.000 OA
ATOM      7  C   UNL     1      -1.306  11.685  21.068  0.00  0.00    +0.000 C 
ATOM      8  C   UNL     1      -1.776  11.333  19.866  0.00  0.00    +0.000 C 
ATOM      9  C   UNL     1      -1.061  10.412  18.928  0.00  0.00    +0.000 C 
ATOM     10  O   UNL     1      -2.957  11.808  19.349  0.00  0.00    +0.000 OA
ATOM     11  C   UNL     1      -3.868  12.413  20.182  0.00  0.00    +0.000 A 
ATOM     12  C   UNL     1      -3.506  12.892  21.459  0.00  0.00    +0.000 A 
ATOM     13  C   UNL     1      -4.520  13.433  22.278  0.00  0.00    +0.000 A 
ATOM     14  C   UNL     1      -5.825  13.582  21.818  0.00  0.00    +0.000 A 
ATOM     15  C   UNL     1      -6.133  13.057  20.550  0.00  0.00    +0.000 A 
ATOM     16  C   UNL     1      -5.193  12.482  19.694  0.00  0.00    +0.000 A 
ATOM     17  C   UNL     1      -2.102  12.572  21.986  0.00  0.00    +0.000 C 
ENDROOT
BRANCH  17  18
ATOM     18  C   UNL     1      -1.437  13.849  22.469  0.00  0.00    +0.000 A 
ATOM     19  C   UNL     1      -0.251  14.270  21.870  0.00  0.00    +0.000 A 
ATOM     20  N   UNL     1       0.024  15.516  22.352  0.00  0.00    +0.000 N 
ATOM     21  C   UNL     1      -0.489  15.559  23.619  0.00  0.00    +0.000 A 
ATOM     22  C   UNL     1      -0.031  16.227  24.752  0.00  0.00    +0.000 A 
ATOM     23  C   UNL     1      -0.901  16.274  25.833  0.00  0.00    +0.000 A 
ATOM     24  C   UNL     1      -2.209  15.809  25.696  0.00  0.00    +0.000 A 
ATOM     25  C   UNL     1      -2.614  15.065  24.562  0.00  0.00    +0.000 A 
ATOM     26  C   UNL     1      -1.661  14.796  23.554  0.00  0.00    +0.000 A 
ATOM     27  H   UNL     1       0.014  16.329  21.745  0.00  0.00    +0.000 HD
ENDBRANCH  17  18
BRANCH  14  28
ATOM     28  C   UNL     1      -6.959  14.228  22.636  0.00  0.00    +0.000 C 
ATOM     29  C   UNL     1      -6.474  15.101  23.819  0.00  0.00    +0.000 C 
ATOM     30  C   UNL     1      -7.776  15.140  21.690  0.00  0.00    +0.000 C 
ATOM     31  C   UNL     1      -7.916  13.162  23.231  0.00  0.00    +0.000 C 
ENDBRANCH  14  28
BRANCH  16  32
ATOM     32  C   UNL     1      -5.617  11.968  18.301  0.00  0.00    +0.000 C 
ATOM     33  C   UNL     1      -6.303  10.574  18.337  0.00  0.00    +0.000 C 
ATOM     34  C   UNL     1      -6.643  12.933  17.669  0.00  0.00    +0.000 C 
ATOM     35  C   UNL     1      -4.399  11.807  17.363  0.00  0.00    +0.000 C 
ENDBRANCH  16  32
TORSDOF 3
ENDMDL
