MODEL 1
REMARK VINA RESULT:      -7.2      0.000      0.000
REMARK  Name = 
REMARK  7 active torsions:
REMARK  status: ('A' for Active; 'I' for Inactive)
REMARK    1  A    between atoms: C_1  and  C_2
REMARK    2  A    between atoms: C_2  and  C_4
REMARK    3  A    between atoms: C_4  and  C_5
REMARK    4  A    between atoms: C_4  and  S_6
REMARK    5  A    between atoms: S_6  and  C_7
REMARK    6  A    between atoms: C_10  and  C_11
REMARK    7  A    between atoms: N_18  and  C_19
REMARK                            x       y       z     vdW  Elec       q    Type
REMARK                         _______ _______ _______ _____ _____    ______ ____
ROOT
ATOM      1  C   UNL     1       5.881   5.682  18.456  0.00  0.00    +0.000 A 
ATOM      2  N   UNL     1       6.468   4.712  19.119  0.00  0.00    +0.000 NA
ATOM      3  N   UNL     1       5.484   3.889  19.609  0.00  0.00    +0.000 NA
ATOM      4  C   UNL     1       4.297   4.349  19.233  0.00  0.00    +0.000 A 
ATOM      5  N   UNL     1       4.518   5.527  18.521  0.00  0.00    +0.000 N 
ENDROOT
BRANCH   4   6
ATOM      6  C   UNL     1       3.010   3.687  19.522  0.00  0.00    +0.000 A 
ATOM      7  C   UNL     1       2.407   3.712  20.789  0.00  0.00    +0.000 A 
ATOM      8  C   UNL     1       1.132   3.179  21.009  0.00  0.00    +0.000 A 
ATOM      9  C   UNL     1       0.456   2.543  19.976  0.00  0.00    +0.000 A 
ATOM     10  C   UNL     1       1.069   2.424  18.732  0.00  0.00    +0.000 A 
ATOM     11  C   UNL     1       2.327   2.991  18.514  0.00  0.00    +0.000 A 
ATOM     12  F   UNL     1       2.857   2.860  17.289  0.00  0.00    +0.000 F 
ENDBRANCH   4   6
BRANCH   5  13
ATOM     13  C   UNL     1       3.499   6.272  17.798  0.00  0.00    +0.000 C 
ATOM     14  C   UNL     1       2.289   6.877  18.481  0.00  0.00    +0.000 C 
ATOM     15  C   UNL     1       3.287   7.767  17.812  0.00  0.00    +0.000 C 
ENDBRANCH   5  13
BRANCH   1  16
ATOM     16  S   UNL     1       6.731   6.873  17.535  0.00  0.00    +0.000 S 
BRANCH  16  17
ATOM     17  C   UNL     1       6.769   6.103  15.882  0.00  0.00    +0.000 C 
ATOM     18  C   UNL     1       5.415   6.310  15.209  0.00  0.00    +0.000 C 
BRANCH  17  20
ATOM     19  C   UNL     1       5.988   3.696  15.401  0.00  0.00    +0.000 C 
ATOM     20  C   UNL     1       7.057   4.606  15.955  0.00  0.00    +0.000 C 
ATOM     21  O   UNL     1       8.061   4.132  16.493  0.00  0.00    +0.000 OA
ENDBRANCH  17  20
ENDBRANCH  16  17
ENDBRANCH   1  16
TORSDOF 5
ENDMDL
MODEL 2
REMARK VINA RESULT:      -7.2      1.875      2.396
REMARK  Name = 
REMARK  7 active torsions:
REMARK  status: ('A' for Active; 'I' for Inactive)
REMARK    1  A    between atoms: C_1  and  C_2
REMARK    2  A    between atoms: C_2  and  C_4
REMARK    3  A    between atoms: C_4  and  C_5
REMARK    4  A    between atoms: C_4  and  S_6
REMARK    5  A    between atoms: S_6  and  C_7
REMARK    6  A    between atoms: C_10  and  C_11
REMARK    7  A    between atoms: N_18  and  C_19
REMARK                            x       y       z     vdW  Elec       q    Type
REMARK                         _______ _______ _______ _____ _____    ______ ____
ROOT
ATOM      1  C   UNL     1       4.861   4.638  16.652  0.00  0.00    +0.000 A 
ATOM      2  N   UNL     1       4.734   3.391  16.262  0.00  0.00    +0.000 NA
ATOM      3  N   UNL     1       3.993   2.731  17.212  0.00  0.00    +0.000 NA
ATOM      4  C   UNL     1       3.655   3.580  18.175  0.00  0.00    +0.000 A 
ATOM      5  N   UNL     1       4.235   4.809  17.863  0.00  0.00    +0.000 N 
ENDROOT
BRANCH   4   6
ATOM      6  C   UNL     1       2.805   3.242  19.332  0.00  0.00    +0.000 A 
ATOM      7  C   UNL     1       3.327   2.817  20.564  0.00  0.00    +0.000 A 
ATOM      8  C   UNL     1       2.508   2.615  21.681  0.00  0.00    +0.000 A 
ATOM      9  C   UNL     1       1.131   2.768  21.571  0.00  0.00    +0.000 A 
ATOM     10  C   UNL     1       0.579   3.101  20.339  0.00  0.00    +0.000 A 
ATOM     11  C   UNL     1       1.408   3.334  19.238  0.00  0.00    +0.000 A 
ATOM     12  F   UNL     1       0.818   3.671  18.082  0.00  0.00    +0.000 F 
ENDBRANCH   4   6
BRANCH   5  13
ATOM     13  C   UNL     1       3.989   6.054  18.573  0.00  0.00    +0.000 C 
ATOM     14  C   UNL     1       2.950   7.061  18.123  0.00  0.00    +0.000 C 
ATOM     15  C   UNL     1       2.802   6.382  19.446  0.00  0.00    +0.000 C 
ENDBRANCH   5  13
BRANCH   1  16
ATOM     16  S   UNL     1       5.589   5.879  15.694  0.00  0.00    +0.000 S 
BRANCH  16  17
ATOM     17  C   UNL     1       7.291   5.902  16.351  0.00  0.00    +0.000 C 
ATOM     18  C   UNL     1       7.598   4.543  16.975  0.00  0.00    +0.000 C 
BRANCH  17  20
ATOM     19  C   UNL     1       7.870   6.504  18.787  0.00  0.00    +0.000 C 
ATOM     20  C   UNL     1       7.480   6.984  17.410  0.00  0.00    +0.000 C 
ATOM     21  O   UNL     1       7.266   8.181  17.205  0.00  0.00    +0.000 OA
ENDBRANCH  17  20
ENDBRANCH  16  17
ENDBRANCH   1  16
TORSDOF 5
ENDMDL
MODEL 3
REMARK VINA RESULT:      -7.0      1.583      2.051
REMARK  Name = 
REMARK  7 active torsions:
REMARK  status: ('A' for Active; 'I' for Inactive)
REMARK    1  A    between atoms: C_1  and  C_2
REMARK    2  A    between atoms: C_2  and  C_4
REMARK    3  A    between atoms: C_4  and  C_5
REMARK    4  A    between atoms: C_4  and  S_6
REMARK    5  A    between atoms: S_6  and  C_7
REMARK    6  A    between atoms: C_10  and  C_11
REMARK    7  A    between atoms: N_18  and  C_19
REMARK                            x       y       z     vdW  Elec       q    Type
REMARK                         _______ _______ _______ _____ _____    ______ ____
ROOT
ATOM      1  C   UNL     1       4.630   4.964  16.668  0.00  0.00    +0.000 A 
ATOM      2  N   UNL     1       4.567   3.726  16.238  0.00  0.00    +0.000 NA
ATOM      3  N   UNL     1       3.900   2.990  17.186  0.00  0.00    +0.000 NA
ATOM      4  C   UNL     1       3.543   3.783  18.189  0.00  0.00    +0.000 A 
ATOM      5  N   UNL     1       4.035   5.056  17.902  0.00  0.00    +0.000 N 
ENDROOT
BRANCH   4   6
ATOM      6  C   UNL     1       2.754   3.353  19.359  0.00  0.00    +0.000 A 
ATOM      7  C   UNL     1       3.341   2.939  20.565  0.00  0.00    +0.000 A 
ATOM      8  C   UNL     1       2.571   2.649  21.697  0.00  0.00    +0.000 A 
ATOM      9  C   UNL     1       1.185   2.700  21.628  0.00  0.00    +0.000 A 
ATOM     10  C   UNL     1       0.574   3.020  20.420  0.00  0.00    +0.000 A 
ATOM     11  C   UNL     1       1.352   3.342  19.305  0.00  0.00    +0.000 A 
ATOM     12  F   UNL     1       0.705   3.661  18.174  0.00  0.00    +0.000 F 
ENDBRANCH   4   6
BRANCH   5  13
ATOM     13  C   UNL     1       3.736   6.259  18.663  0.00  0.00    +0.000 C 
ATOM     14  C   UNL     1       2.643   7.229  18.263  0.00  0.00    +0.000 C 
ATOM     15  C   UNL     1       2.544   6.492  19.560  0.00  0.00    +0.000 C 
ENDBRANCH   5  13
BRANCH   1  16
ATOM     16  S   UNL     1       5.248   6.281  15.732  0.00  0.00    +0.000 S 
BRANCH  16  17
ATOM     17  C   UNL     1       7.035   5.916  15.718  0.00  0.00    +0.000 C 
ATOM     18  C   UNL     1       7.306   4.814  14.697  0.00  0.00    +0.000 C 
BRANCH  17  20
ATOM     19  C   UNL     1       7.517   6.491  18.181  0.00  0.00    +0.000 C 
ATOM     20  C   UNL     1       7.535   5.455  17.084  0.00  0.00    +0.000 C 
ATOM     21  O   UNL     1       8.000   4.332  17.294  0.00  0.00    +0.000 OA
ENDBRANCH  17  20
ENDBRANCH  16  17
ENDBRANCH   1  16
TORSDOF 5
ENDMDL
MODEL 4
REMARK VINA RESULT:      -6.9      1.983      2.570
REMARK  Name = 
REMARK  7 active torsions:
REMARK  status: ('A' for Active; 'I' for Inactive)
REMARK    1  A    between atoms: C_1  and  C_2
REMARK    2  A    between atoms: C_2  and  C_4
REMARK    3  A    between atoms: C_4  and  C_5
REMARK    4  A    between atoms: C_4  and  S_6
REMARK    5  A    between atoms: S_6  and  C_7
REMARK    6  A    between atoms: C_10  and  C_11
REMARK    7  A    between atoms: N_18  and  C_19
REMARK                            x       y       z     vdW  Elec       q    Type
REMARK                         _______ _______ _______ _____ _____    ______ ____
ROOT
ATOM      1  C   UNL     1       4.793   4.656  16.601  0.00  0.00    +0.000 A 
ATOM      2  N   UNL     1       4.588   3.416  16.224  0.00  0.00    +0.000 NA
ATOM      3  N   UNL     1       3.843   2.803  17.202  0.00  0.00    +0.000 NA
ATOM      4  C   UNL     1       3.583   3.675  18.169  0.00  0.00    +0.000 A 
ATOM      5  N   UNL     1       4.217   4.869  17.829  0.00  0.00    +0.000 N 
ENDROOT
BRANCH   4   6
ATOM      6  C   UNL     1       2.753   3.390  19.355  0.00  0.00    +0.000 A 
ATOM      7  C   UNL     1       1.373   3.639  19.398  0.00  0.00    +0.000 A 
ATOM      8  C   UNL     1       0.588   3.252  20.491  0.00  0.00    +0.000 A 
ATOM      9  C   UNL     1       1.182   2.666  21.601  0.00  0.00    +0.000 A 
ATOM     10  C   UNL     1       2.561   2.490  21.623  0.00  0.00    +0.000 A 
ATOM     11  C   UNL     1       3.331   2.848  20.513  0.00  0.00    +0.000 A 
ATOM     12  F   UNL     1       4.654   2.636  20.586  0.00  0.00    +0.000 F 
ENDBRANCH   4   6
BRANCH   5  13
ATOM     13  C   UNL     1       4.062   6.130  18.536  0.00  0.00    +0.000 C 
ATOM     14  C   UNL     1       3.237   7.278  17.989  0.00  0.00    +0.000 C 
ATOM     15  C   UNL     1       2.832   6.615  19.267  0.00  0.00    +0.000 C 
ENDBRANCH   5  13
BRANCH   1  16
ATOM     16  S   UNL     1       5.556   5.851  15.609  0.00  0.00    +0.000 S 
BRANCH  16  17
ATOM     17  C   UNL     1       7.248   5.871  16.291  0.00  0.00    +0.000 C 
ATOM     18  C   UNL     1       7.551   4.504  16.900  0.00  0.00    +0.000 C 
BRANCH  17  20
ATOM     19  C   UNL     1       7.828   6.443  18.734  0.00  0.00    +0.000 C 
ATOM     20  C   UNL     1       7.418   6.938  17.368  0.00  0.00    +0.000 C 
ATOM     21  O   UNL     1       7.173   8.133  17.186  0.00  0.00    +0.000 OA
ENDBRANCH  17  20
ENDBRANCH  16  17
ENDBRANCH   1  16
TORSDOF 5
ENDMDL
MODEL 5
REMARK VINA RESULT:      -6.9      1.024      1.459
REMARK  Name = 
REMARK  7 active torsions:
REMARK  status: ('A' for Active; 'I' for Inactive)
REMARK    1  A    between atoms: C_1  and  C_2
REMARK    2  A    between atoms: C_2  and  C_4
REMARK    3  A    between atoms: C_4  and  C_5
REMARK    4  A    between atoms: C_4  and  S_6
REMARK    5  A    between atoms: S_6  and  C_7
REMARK    6  A    between atoms: C_10  and  C_11
REMARK    7  A    between atoms: N_18  and  C_19
REMARK                            x       y       z     vdW  Elec       q    Type
REMARK                         _______ _______ _______ _____ _____    ______ ____
ROOT
ATOM      1  C   UNL     1       5.832   5.679  18.506  0.00  0.00    +0.000 A 
ATOM      2  N   UNL     1       6.358   4.684  19.182  0.00  0.00    +0.000 NA
ATOM      3  N   UNL     1       5.329   3.874  19.597  0.00  0.00    +0.000 NA
ATOM      4  C   UNL     1       4.177   4.369  19.163  0.00  0.00    +0.000 A 
ATOM      5  N   UNL     1       4.465   5.555  18.489  0.00  0.00    +0.000 N 
ENDROOT
BRANCH   4   6
ATOM      6  C   UNL     1       2.861   3.732  19.363  0.00  0.00    +0.000 A 
ATOM      7  C   UNL     1       2.254   2.914  18.398  0.00  0.00    +0.000 A 
ATOM      8  C   UNL     1       1.062   2.227  18.657  0.00  0.00    +0.000 A 
ATOM      9  C   UNL     1       0.410   2.400  19.872  0.00  0.00    +0.000 A 
ATOM     10  C   UNL     1       0.943   3.275  20.813  0.00  0.00    +0.000 A 
ATOM     11  C   UNL     1       2.152   3.929  20.557  0.00  0.00    +0.000 A 
ATOM     12  F   UNL     1       2.624   4.745  21.511  0.00  0.00    +0.000 F 
ENDBRANCH   4   6
BRANCH   5  13
ATOM     13  C   UNL     1       3.507   6.337  17.725  0.00  0.00    +0.000 C 
ATOM     14  C   UNL     1       2.275   6.960  18.351  0.00  0.00    +0.000 C 
ATOM     15  C   UNL     1       3.330   7.837  17.755  0.00  0.00    +0.000 C 
ENDBRANCH   5  13
BRANCH   1  16
ATOM     16  S   UNL     1       6.761   6.868  17.660  0.00  0.00    +0.000 S 
BRANCH  16  17
ATOM     17  C   UNL     1       6.851   6.144  15.988  0.00  0.00    +0.000 C 
ATOM     18  C   UNL     1       5.532   6.404  15.266  0.00  0.00    +0.000 C 
BRANCH  17  20
ATOM     19  C   UNL     1       6.021   3.770  15.433  0.00  0.00    +0.000 C 
ATOM     20  C   UNL     1       7.101   4.639  16.030  0.00  0.00    +0.000 C 
ATOM     21  O   UNL     1       8.082   4.128  16.575  0.00  0.00    +0.000 OA
ENDBRANCH  17  20
ENDBRANCH  16  17
ENDBRANCH   1  16
TORSDOF 5
ENDMDL
MODEL 6
REMARK VINA RESULT:      -6.9      1.382      1.518
REMARK  Name = 
REMARK  7 active torsions:
REMARK  status: ('A' for Active; 'I' for Inactive)
REMARK    1  A    between atoms: C_1  and  C_2
REMARK    2  A    between atoms: C_2  and  C_4
REMARK    3  A    between atoms: C_4  and  C_5
REMARK    4  A    between atoms: C_4  and  S_6
REMARK    5  A    between atoms: S_6  and  C_7
REMARK    6  A    between atoms: C_10  and  C_11
REMARK    7  A    between atoms: N_18  and  C_19
REMARK                            x       y       z     vdW  Elec       q    Type
REMARK                         _______ _______ _______ _____ _____    ______ ____
ROOT
ATOM      1  C   UNL     1       6.215   5.117  17.718  0.00  0.00    +0.000 A 
ATOM      2  N   UNL     1       6.778   4.203  18.474  0.00  0.00    +0.000 NA
ATOM      3  N   UNL     1       5.798   3.660  19.268  0.00  0.00    +0.000 NA
ATOM      4  C   UNL     1       4.634   4.232  18.985  0.00  0.00    +0.000 A 
ATOM      5  N   UNL     1       4.877   5.205  18.017  0.00  0.00    +0.000 N 
ENDROOT
BRANCH   4   6
ATOM      6  C   UNL     1       3.344   3.858  19.597  0.00  0.00    +0.000 A 
ATOM      7  C   UNL     1       2.695   4.653  20.554  0.00  0.00    +0.000 A 
ATOM      8  C   UNL     1       1.418   4.335  21.032  0.00  0.00    +0.000 A 
ATOM      9  C   UNL     1       0.787   3.172  20.611  0.00  0.00    +0.000 A 
ATOM     10  C   UNL     1       1.446   2.319  19.731  0.00  0.00    +0.000 A 
ATOM     11  C   UNL     1       2.706   2.663  19.233  0.00  0.00    +0.000 A 
ATOM     12  F   UNL     1       3.282   1.810  18.373  0.00  0.00    +0.000 F 
ENDBRANCH   4   6
BRANCH   5  13
ATOM     13  C   UNL     1       3.853   5.961  17.315  0.00  0.00    +0.000 C 
ATOM     14  C   UNL     1       3.054   7.066  17.977  0.00  0.00    +0.000 C 
ATOM     15  C   UNL     1       3.952   7.387  16.825  0.00  0.00    +0.000 C 
ENDBRANCH   5  13
BRANCH   1  16
ATOM     16  S   UNL     1       7.035   5.959  16.450  0.00  0.00    +0.000 S 
BRANCH  16  17
ATOM     17  C   UNL     1       6.354   5.146  14.966  0.00  0.00    +0.000 C 
ATOM     18  C   UNL     1       5.990   3.706  15.315  0.00  0.00    +0.000 C 
BRANCH  17  20
ATOM     19  C   UNL     1       7.022   4.220  12.657  0.00  0.00    +0.000 C 
ATOM     20  C   UNL     1       7.352   5.135  13.811  0.00  0.00    +0.000 C 
ATOM     21  O   UNL     1       8.410   5.768  13.821  0.00  0.00    +0.000 OA
ENDBRANCH  17  20
ENDBRANCH  16  17
ENDBRANCH   1  16
TORSDOF 5
ENDMDL
MODEL 7
REMARK VINA RESULT:      -6.8      2.941      4.616
REMARK  Name = 
REMARK  7 active torsions:
REMARK  status: ('A' for Active; 'I' for Inactive)
REMARK    1  A    between atoms: C_1  and  C_2
REMARK    2  A    between atoms: C_2  and  C_4
REMARK    3  A    between atoms: C_4  and  C_5
REMARK    4  A    between atoms: C_4  and  S_6
REMARK    5  A    between atoms: S_6  and  C_7
REMARK    6  A    between atoms: C_10  and  C_11
REMARK    7  A    between atoms: N_18  and  C_19
REMARK                            x       y       z     vdW  Elec       q    Type
REMARK                         _______ _______ _______ _____ _____    ______ ____
ROOT
ATOM      1  C   UNL     1       3.652   5.906  18.308  0.00  0.00    +0.000 A 
ATOM      2  N   UNL     1       3.846   6.955  17.543  0.00  0.00    +0.000 NA
ATOM      3  N   UNL     1       3.052   7.970  18.019  0.00  0.00    +0.000 NA
ATOM      4  C   UNL     1       2.385   7.544  19.085  0.00  0.00    +0.000 A 
ATOM      5  N   UNL     1       2.721   6.203  19.273  0.00  0.00    +0.000 N 
ENDROOT
BRANCH   4   6
ATOM      6  C   UNL     1       1.482   8.379  19.899  0.00  0.00    +0.000 A 
ATOM      7  C   UNL     1       1.396   8.271  21.296  0.00  0.00    +0.000 A 
ATOM      8  C   UNL     1       0.619   9.153  22.057  0.00  0.00    +0.000 A 
ATOM      9  C   UNL     1      -0.147  10.126  21.428  0.00  0.00    +0.000 A 
ATOM     10  C   UNL     1      -0.150  10.197  20.038  0.00  0.00    +0.000 A 
ATOM     11  C   UNL     1       0.656   9.334  19.290  0.00  0.00    +0.000 A 
ATOM     12  F   UNL     1       0.624   9.464  17.955  0.00  0.00    +0.000 F 
ENDBRANCH   4   6
BRANCH   5  13
ATOM     13  C   UNL     1       2.333   5.396  20.419  0.00  0.00    +0.000 C 
ATOM     14  C   UNL     1       1.092   4.526  20.423  0.00  0.00    +0.000 C 
ATOM     15  C   UNL     1       2.441   3.895  20.550  0.00  0.00    +0.000 C 
ENDBRANCH   5  13
BRANCH   1  16
ATOM     16  S   UNL     1       4.557   4.438  18.179  0.00  0.00    +0.000 S 
BRANCH  16  17
ATOM     17  C   UNL     1       5.846   4.903  16.976  0.00  0.00    +0.000 C 
ATOM     18  C   UNL     1       5.810   3.922  15.808  0.00  0.00    +0.000 C 
BRANCH  17  20
ATOM     19  C   UNL     1       7.480   5.848  18.728  0.00  0.00    +0.000 C 
ATOM     20  C   UNL     1       7.241   4.880  17.595  0.00  0.00    +0.000 C 
ATOM     21  O   UNL     1       8.161   4.176  17.172  0.00  0.00    +0.000 OA
ENDBRANCH  17  20
ENDBRANCH  16  17
ENDBRANCH   1  16
TORSDOF 5
ENDMDL
MODEL 8
REMARK VINA RESULT:      -6.7      1.719      2.261
REMARK  Name = 
REMARK  7 active torsions:
REMARK  status: ('A' for Active; 'I' for Inactive)
REMARK    1  A    between atoms: C_1  and  C_2
REMARK    2  A    between atoms: C_2  and  C_4
REMARK    3  A    between atoms: C_4  and  C_5
REMARK    4  A    between atoms: C_4  and  S_6
REMARK    5  A    between atoms: S_6  and  C_7
REMARK    6  A    between atoms: C_10  and  C_11
REMARK    7  A    between atoms: N_18  and  C_19
REMARK                            x       y       z     vdW  Elec       q    Type
REMARK                         _______ _______ _______ _____ _____    ______ ____
ROOT
ATOM      1  C   UNL     1       4.563   5.000  16.602  0.00  0.00    +0.000 A 
ATOM      2  N   UNL     1       4.441   3.761  16.187  0.00  0.00    +0.000 NA
ATOM      3  N   UNL     1       3.774   3.060  17.161  0.00  0.00    +0.000 NA
ATOM      4  C   UNL     1       3.476   3.875  18.166  0.00  0.00    +0.000 A 
ATOM      5  N   UNL     1       4.008   5.126  17.852  0.00  0.00    +0.000 N 
ENDROOT
BRANCH   4   6
ATOM      6  C   UNL     1       2.705   3.488  19.362  0.00  0.00    +0.000 A 
ATOM      7  C   UNL     1       1.317   3.666  19.466  0.00  0.00    +0.000 A 
ATOM      8  C   UNL     1       0.592   3.184  20.562  0.00  0.00    +0.000 A 
ATOM      9  C   UNL     1       1.253   2.569  21.618  0.00  0.00    +0.000 A 
ATOM     10  C   UNL     1       2.640   2.460  21.582  0.00  0.00    +0.000 A 
ATOM     11  C   UNL     1       3.351   2.913  20.467  0.00  0.00    +0.000 A 
ATOM     12  F   UNL     1       4.683   2.762  20.483  0.00  0.00    +0.000 F 
ENDBRANCH   4   6
BRANCH   5  13
ATOM     13  C   UNL     1       3.778   6.346  18.609  0.00  0.00    +0.000 C 
ATOM     14  C   UNL     1       2.844   7.441  18.131  0.00  0.00    +0.000 C 
ATOM     15  C   UNL     1       2.541   6.705  19.397  0.00  0.00    +0.000 C 
ENDBRANCH   5  13
BRANCH   1  16
ATOM     16  S   UNL     1       5.204   6.283  15.635  0.00  0.00    +0.000 S 
BRANCH  16  17
ATOM     17  C   UNL     1       6.990   5.918  15.676  0.00  0.00    +0.000 C 
ATOM     18  C   UNL     1       7.281   4.762  14.723  0.00  0.00    +0.000 C 
BRANCH  17  20
ATOM     19  C   UNL     1       7.512   6.650  18.089  0.00  0.00    +0.000 C 
ATOM     20  C   UNL     1       7.463   5.534  17.075  0.00  0.00    +0.000 C 
ATOM     21  O   UNL     1       7.857   4.403  17.373  0.00  0.00    +0.000 OA
ENDBRANCH  17  20
ENDBRANCH  16  17
ENDBRANCH   1  16
TORSDOF 5
ENDMDL
MODEL 9
REMARK VINA RESULT:      -6.7      2.616      5.574
REMARK  Name = 
REMARK  7 active torsions:
REMARK  status: ('A' for Active; 'I' for Inactive)
REMARK    1  A    between atoms: C_1  and  C_2
REMARK    2  A    between atoms: C_2  and  C_4
REMARK    3  A    between atoms: C_4  and  C_5
REMARK    4  A    between atoms: C_4  and  S_6
REMARK    5  A    between atoms: S_6  and  C_7
REMARK    6  A    between atoms: C_10  and  C_11
REMARK    7  A    between atoms: N_18  and  C_19
REMARK                            x       y       z     vdW  Elec       q    Type
REMARK                         _______ _______ _______ _____ _____    ______ ____
ROOT
ATOM      1  C   UNL     1       3.594   4.414  19.587  0.00  0.00    +0.000 A 
ATOM      2  N   UNL     1       4.478   3.506  19.929  0.00  0.00    +0.000 NA
ATOM      3  N   UNL     1       5.355   3.365  18.881  0.00  0.00    +0.000 NA
ATOM      4  C   UNL     1       5.014   4.198  17.906  0.00  0.00    +0.000 A 
ATOM      5  N   UNL     1       3.857   4.861  18.316  0.00  0.00    +0.000 N 
ENDROOT
BRANCH   4   6
ATOM      6  C   UNL     1       5.764   4.370  16.647  0.00  0.00    +0.000 A 
ATOM      7  C   UNL     1       5.375   3.769  15.439  0.00  0.00    +0.000 A 
ATOM      8  C   UNL     1       6.035   4.041  14.235  0.00  0.00    +0.000 A 
ATOM      9  C   UNL     1       7.149   4.871  14.224  0.00  0.00    +0.000 A 
ATOM     10  C   UNL     1       7.611   5.408  15.422  0.00  0.00    +0.000 A 
ATOM     11  C   UNL     1       6.924   5.158  16.613  0.00  0.00    +0.000 A 
ATOM     12  F   UNL     1       7.406   5.719  17.732  0.00  0.00    +0.000 F 
ENDBRANCH   4   6
BRANCH   5  13
ATOM     13  C   UNL     1       3.236   5.972  17.612  0.00  0.00    +0.000 C 
ATOM     14  C   UNL     1       2.885   7.278  18.296  0.00  0.00    +0.000 C 
ATOM     15  C   UNL     1       3.896   7.264  17.195  0.00  0.00    +0.000 C 
ENDBRANCH   5  13
BRANCH   1  16
ATOM     16  S   UNL     1       2.384   5.032  20.657  0.00  0.00    +0.000 S 
BRANCH  16  17
ATOM     17  C   UNL     1       1.088   3.755  20.524  0.00  0.00    +0.000 C 
ATOM     18  C   UNL     1       1.350   2.675  21.569  0.00  0.00    +0.000 C 
BRANCH  17  20
ATOM     19  C   UNL     1       1.604   1.702  19.058  0.00  0.00    +0.000 C 
ATOM     20  C   UNL     1       1.063   3.108  19.141  0.00  0.00    +0.000 C 
ATOM     21  O   UNL     1       0.697   3.697  18.122  0.00  0.00    +0.000 OA
ENDBRANCH  17  20
ENDBRANCH  16  17
ENDBRANCH   1  16
TORSDOF 5
ENDMDL
