MODEL 1
REMARK VINA RESULT:      -8.3      0.000      0.000
REMARK  Name = 
REMARK  8 active torsions:
REMARK  status: ('A' for Active; 'I' for Inactive)
REMARK    1  A    between atoms: C_1  and  O_2
REMARK    2  A    between atoms: O_2  and  C_3
REMARK    3  A    between atoms: C_6  and  C_7
REMARK    4  A    between atoms: C_7  and  C_9
REMARK    5  A    between atoms: C_13  and  C_14
REMARK    6  A    between atoms: C_18  and  N_19
REMARK    7  A    between atoms: N_19  and  C_20
REMARK    8  A    between atoms: C_31  and  N_32
REMARK                            x       y       z     vdW  Elec       q    Type
REMARK                         _______ _______ _______ _____ _____    ______ ____
ROOT
ATOM      1  C   UNL     1       0.012  11.000  18.749  0.00  0.00    +0.000 A 
ATOM      2  N   UNL     1       0.787  10.339  17.832  0.00  0.00    +0.000 N 
ATOM      3  C   UNL     1       1.406   9.267  18.407  0.00  0.00    +0.000 A 
ATOM      4  C   UNL     1       2.223   8.319  17.788  0.00  0.00    +0.000 A 
ATOM      5  C   UNL     1       2.673   7.240  18.548  0.00  0.00    +0.000 A 
ATOM      6  C   UNL     1       3.552   6.213  17.899  0.00  0.00    +0.000 C 
ATOM      7  C   UNL     1       2.256   7.124  19.882  0.00  0.00    +0.000 A 
ATOM      8  C   UNL     1       1.485   8.132  20.505  0.00  0.00    +0.000 A 
ATOM      9  C   UNL     1       1.064   9.255  19.761  0.00  0.00    +0.000 A 
ATOM     10  C   UNL     1       0.323  10.465  19.999  0.00  0.00    +0.000 A 
ATOM     11  H   UNL     1       0.848  10.565  16.850  0.00  0.00    +0.000 HD
ENDROOT
BRANCH   1  12
ATOM     12  C   UNL     1      -0.873  12.092  18.387  0.00  0.00    +0.000 C 
ATOM     13  O   UNL     1      -0.446  13.231  18.223  0.00  0.00    +0.000 OA
BRANCH  12  17
ATOM     14  C   UNL     1      -5.100  11.231  18.121  0.00  0.00    +0.000 A 
ATOM     15  C   UNL     1      -4.565  11.921  19.212  0.00  0.00    +0.000 A 
ATOM     16  C   UNL     1      -3.201  12.232  19.268  0.00  0.00    +0.000 A 
ATOM     17  C   UNL     1      -2.345  11.852  18.229  0.00  0.00    +0.000 A 
ATOM     18  C   UNL     1      -2.886  11.174  17.123  0.00  0.00    +0.000 A 
ATOM     19  C   UNL     1      -4.257  10.864  17.072  0.00  0.00    +0.000 A 
BRANCH  14  21
ATOM     20  C   UNL     1      -6.814   9.907  19.111  0.00  0.00    +0.000 C 
ATOM     21  O   UNL     1      -6.434  10.952  18.223  0.00  0.00    +0.000 OA
ENDBRANCH  14  21
ENDBRANCH  12  17
ENDBRANCH   1  12
BRANCH  10  22
ATOM     22  N   UNL     1      -0.159  11.037  21.143  0.00  0.00    +0.000 N 
ATOM     23  H   UNL     1      -1.057  10.624  21.446  0.00  0.00    +0.000 HD
BRANCH  22  24
ATOM     24  C   UNL     1      -0.087  12.356  21.691  0.00  0.00    +0.000 A 
ATOM     25  N   UNL     1       0.916  13.207  21.369  0.00  0.00    +0.000 NA
ATOM     26  C   UNL     1       0.966  14.439  21.940  0.00  0.00    +0.000 A 
ATOM     27  N   UNL     1       2.036  15.252  21.680  0.00  0.00    +0.000 N 
ATOM     28  C   UNL     1       2.280  16.491  22.430  0.00  0.00    +0.000 C 
ATOM     29  C   UNL     1       2.237  17.718  21.501  0.00  0.00    +0.000 C 
ATOM     30  O   UNL     1       3.071  17.543  20.343  0.00  0.00    +0.000 OA
ATOM     31  C   UNL     1       2.664  16.377  19.605  0.00  0.00    +0.000 C 
ATOM     32  C   UNL     1       2.809  15.100  20.453  0.00  0.00    +0.000 C 
ATOM     33  N   UNL     1       0.036  14.884  22.798  0.00  0.00    +0.000 NA
ATOM     34  C   UNL     1      -0.957  14.047  23.120  0.00  0.00    +0.000 A 
ATOM     35  C   UNL     1      -1.033  12.775  22.612  0.00  0.00    +0.000 A 
BRANCH  35  36
ATOM     36  N   UNL     1      -2.082  11.925  23.083  0.00  0.00    +0.000 N 
ATOM     37  O   UNL     1      -1.769  10.787  23.449  0.00  0.00    +0.000 OA
ATOM     38  O   UNL     1      -3.236  12.373  23.042  0.00  0.00    +0.000 OA
ENDBRANCH  35  36
ENDBRANCH  22  24
ENDBRANCH  10  22
TORSDOF 6
ENDMDL
MODEL 2
REMARK VINA RESULT:      -8.1      2.344      5.457
REMARK  Name = 
REMARK  8 active torsions:
REMARK  status: ('A' for Active; 'I' for Inactive)
REMARK    1  A    between atoms: C_1  and  O_2
REMARK    2  A    between atoms: O_2  and  C_3
REMARK    3  A    between atoms: C_6  and  C_7
REMARK    4  A    between atoms: C_7  and  C_9
REMARK    5  A    between atoms: C_13  and  C_14
REMARK    6  A    between atoms: C_18  and  N_19
REMARK    7  A    between atoms: N_19  and  C_20
REMARK    8  A    between atoms: C_31  and  N_32
REMARK                            x       y       z     vdW  Elec       q    Type
REMARK                         _______ _______ _______ _____ _____    ______ ____
ROOT
ATOM      1  C   UNL     1      -0.447  10.334  18.631  0.00  0.00    +0.000 A 
ATOM      2  N   UNL     1      -0.660   9.772  17.400  0.00  0.00    +0.000 N 
ATOM      3  C   UNL     1      -1.873  10.148  16.902  0.00  0.00    +0.000 A 
ATOM      4  C   UNL     1      -2.421   9.835  15.656  0.00  0.00    +0.000 A 
ATOM      5  C   UNL     1      -3.642  10.412  15.308  0.00  0.00    +0.000 A 
ATOM      6  C   UNL     1      -4.243  10.085  13.974  0.00  0.00    +0.000 C 
ATOM      7  C   UNL     1      -4.248  11.313  16.195  0.00  0.00    +0.000 A 
ATOM      8  C   UNL     1      -3.708  11.562  17.479  0.00  0.00    +0.000 A 
ATOM      9  C   UNL     1      -2.499  10.946  17.863  0.00  0.00    +0.000 A 
ATOM     10  C   UNL     1      -1.655  10.905  19.028  0.00  0.00    +0.000 A 
ATOM     11  H   UNL     1       0.008   9.209  16.893  0.00  0.00    +0.000 HD
ENDROOT
BRANCH   1  12
ATOM     12  C   UNL     1       0.819  10.225  19.334  0.00  0.00    +0.000 C 
ATOM     13  O   UNL     1       1.308  11.187  19.920  0.00  0.00    +0.000 OA
BRANCH  12  17
ATOM     14  C   UNL     1       2.834   6.406  19.162  0.00  0.00    +0.000 A 
ATOM     15  C   UNL     1       2.914   7.319  18.108  0.00  0.00    +0.000 A 
ATOM     16  C   UNL     1       2.293   8.570  18.191  0.00  0.00    +0.000 A 
ATOM     17  C   UNL     1       1.574   8.929  19.337  0.00  0.00    +0.000 A 
ATOM     18  C   UNL     1       1.508   8.019  20.405  0.00  0.00    +0.000 A 
ATOM     19  C   UNL     1       2.134   6.762  20.315  0.00  0.00    +0.000 A 
BRANCH  14  21
ATOM     20  C   UNL     1       4.837   5.118  19.200  0.00  0.00    +0.000 C 
ATOM     21  O   UNL     1       3.444   5.206  18.924  0.00  0.00    +0.000 OA
ENDBRANCH  14  21
ENDBRANCH  12  17
ENDBRANCH   1  12
BRANCH  10  22
ATOM     22  N   UNL     1      -1.813  11.395  20.295  0.00  0.00    +0.000 N 
ATOM     23  H   UNL     1      -2.675  11.050  20.749  0.00  0.00    +0.000 HD
BRANCH  22  24
ATOM     24  C   UNL     1      -1.461  12.629  20.924  0.00  0.00    +0.000 A 
ATOM     25  N   UNL     1      -0.957  13.670  20.220  0.00  0.00    +0.000 NA
ATOM     26  C   UNL     1      -0.602  14.814  20.863  0.00  0.00    +0.000 A 
ATOM     27  N   UNL     1      -0.005  15.821  20.155  0.00  0.00    +0.000 N 
ATOM     28  C   UNL     1       0.612  16.980  20.810  0.00  0.00    +0.000 C 
ATOM     29  C   UNL     1      -0.087  18.288  20.396  0.00  0.00    +0.000 C 
ATOM     30  O   UNL     1      -0.211  18.401  18.967  0.00  0.00    +0.000 OA
ATOM     31  C   UNL     1      -0.948  17.283  18.440  0.00  0.00    +0.000 C 
ATOM     32  C   UNL     1      -0.222  15.954  18.719  0.00  0.00    +0.000 C 
ATOM     33  N   UNL     1      -0.760  14.986  22.184  0.00  0.00    +0.000 NA
ATOM     34  C   UNL     1      -1.257  13.960  22.885  0.00  0.00    +0.000 A 
ATOM     35  C   UNL     1      -1.589  12.767  22.297  0.00  0.00    +0.000 A 
BRANCH  35  36
ATOM     36  N   UNL     1      -2.028  11.700  23.143  0.00  0.00    +0.000 N 
ATOM     37  O   UNL     1      -1.273  10.731  23.273  0.00  0.00    +0.000 OA
ATOM     38  O   UNL     1      -3.158  11.802  23.641  0.00  0.00    +0.000 OA
ENDBRANCH  35  36
ENDBRANCH  22  24
ENDBRANCH  10  22
TORSDOF 6
ENDMDL
MODEL 3
REMARK VINA RESULT:      -8.1      2.841      7.420
REMARK  Name = 
REMARK  8 active torsions:
REMARK  status: ('A' for Active; 'I' for Inactive)
REMARK    1  A    between atoms: C_1  and  O_2
REMARK    2  A    between atoms: O_2  and  C_3
REMARK    3  A    between atoms: C_6  and  C_7
REMARK    4  A    between atoms: C_7  and  C_9
REMARK    5  A    between atoms: C_13  and  C_14
REMARK    6  A    between atoms: C_18  and  N_19
REMARK    7  A    between atoms: N_19  and  C_20
REMARK    8  A    between atoms: C_31  and  N_32
REMARK                            x       y       z     vdW  Elec       q    Type
REMARK                         _______ _______ _______ _____ _____    ______ ____
ROOT
ATOM      1  C   UNL     1       0.517  11.697  19.797  0.00  0.00    +0.000 A 
ATOM      2  N   UNL     1       1.560  12.463  20.248  0.00  0.00    +0.000 N 
ATOM      3  C   UNL     1       1.423  13.756  19.836  0.00  0.00    +0.000 A 
ATOM      4  C   UNL     1       2.243  14.843  20.142  0.00  0.00    +0.000 A 
ATOM      5  C   UNL     1       1.859  16.107  19.694  0.00  0.00    +0.000 A 
ATOM      6  C   UNL     1       2.730  17.285  20.015  0.00  0.00    +0.000 C 
ATOM      7  C   UNL     1       0.651  16.245  18.997  0.00  0.00    +0.000 A 
ATOM      8  C   UNL     1      -0.129  15.120  18.640  0.00  0.00    +0.000 A 
ATOM      9  C   UNL     1       0.274  13.829  19.044  0.00  0.00    +0.000 A 
ATOM     10  C   UNL     1      -0.189  12.477  18.882  0.00  0.00    +0.000 A 
ATOM     11  H   UNL     1       2.299  12.141  20.856  0.00  0.00    +0.000 HD
ENDROOT
BRANCH   1  12
ATOM     12  C   UNL     1       0.326  10.316  20.202  0.00  0.00    +0.000 C 
ATOM     13  O   UNL     1      -0.539  10.004  21.016  0.00  0.00    +0.000 OA
BRANCH  12  17
ATOM     14  C   UNL     1       2.672   7.135  18.454  0.00  0.00    +0.000 A 
ATOM     15  C   UNL     1       2.327   8.272  17.720  0.00  0.00    +0.000 A 
ATOM     16  C   UNL     1       1.602   9.316  18.308  0.00  0.00    +0.000 A 
ATOM     17  C   UNL     1       1.207   9.236  19.648  0.00  0.00    +0.000 A 
ATOM     18  C   UNL     1       1.570   8.101  20.392  0.00  0.00    +0.000 A 
ATOM     19  C   UNL     1       2.297   7.055  19.796  0.00  0.00    +0.000 A 
BRANCH  14  21
ATOM     20  C   UNL     1       4.602   6.527  17.199  0.00  0.00    +0.000 C 
ATOM     21  O   UNL     1       3.334   6.176  17.740  0.00  0.00    +0.000 OA
ENDBRANCH  14  21
ENDBRANCH  12  17
ENDBRANCH   1  12
BRANCH  10  22
ATOM     22  N   UNL     1      -1.188  11.932  18.124  0.00  0.00    +0.000 N 
ATOM     23  H   UNL     1      -0.986  11.973  17.112  0.00  0.00    +0.000 HD
BRANCH  22  24
ATOM     24  C   UNL     1      -2.607  11.853  18.277  0.00  0.00    +0.000 A 
ATOM     25  N   UNL     1      -3.230  12.292  19.395  0.00  0.00    +0.000 NA
ATOM     26  C   UNL     1      -4.578  12.166  19.514  0.00  0.00    +0.000 A 
ATOM     27  N   UNL     1      -5.182  12.526  20.688  0.00  0.00    +0.000 N 
ATOM     28  C   UNL     1      -6.585  12.207  20.977  0.00  0.00    +0.000 C 
ATOM     29  C   UNL     1      -7.415  13.489  21.174  0.00  0.00    +0.000 C 
ATOM     30  O   UNL     1      -6.799  14.388  22.111  0.00  0.00    +0.000 OA
ATOM     31  C   UNL     1      -5.477  14.744  21.667  0.00  0.00    +0.000 C 
ATOM     32  C   UNL     1      -4.566  13.506  21.575  0.00  0.00    +0.000 C 
ATOM     33  N   UNL     1      -5.350  11.651  18.546  0.00  0.00    +0.000 NA
ATOM     34  C   UNL     1      -4.739  11.214  17.438  0.00  0.00    +0.000 A 
ATOM     35  C   UNL     1      -3.378  11.272  17.282  0.00  0.00    +0.000 A 
BRANCH  35  36
ATOM     36  N   UNL     1      -2.811  10.700  16.101  0.00  0.00    +0.000 N 
ATOM     37  O   UNL     1      -3.183  11.156  15.015  0.00  0.00    +0.000 OA
ATOM     38  O   UNL     1      -2.029   9.751  16.251  0.00  0.00    +0.000 OA
ENDBRANCH  35  36
ENDBRANCH  22  24
ENDBRANCH  10  22
TORSDOF 6
ENDMDL
MODEL 4
REMARK VINA RESULT:      -8.1      2.445      3.184
REMARK  Name = 
REMARK  8 active torsions:
REMARK  status: ('A' for Active; 'I' for Inactive)
REMARK    1  A    between atoms: C_1  and  O_2
REMARK    2  A    between atoms: O_2  and  C_3
REMARK    3  A    between atoms: C_6  and  C_7
REMARK    4  A    between atoms: C_7  and  C_9
REMARK    5  A    between atoms: C_13  and  C_14
REMARK    6  A    between atoms: C_18  and  N_19
REMARK    7  A    between atoms: N_19  and  C_20
REMARK    8  A    between atoms: C_31  and  N_32
REMARK                            x       y       z     vdW  Elec       q    Type
REMARK                         _______ _______ _______ _____ _____    ______ ____
ROOT
ATOM      1  C   UNL     1       0.130  10.991  18.708  0.00  0.00    +0.000 A 
ATOM      2  N   UNL     1       0.598  10.115  17.764  0.00  0.00    +0.000 N 
ATOM      3  C   UNL     1       1.286   9.095  18.352  0.00  0.00    +0.000 A 
ATOM      4  C   UNL     1       1.857   7.980  17.735  0.00  0.00    +0.000 A 
ATOM      5  C   UNL     1       2.432   7.000  18.543  0.00  0.00    +0.000 A 
ATOM      6  C   UNL     1       3.050   5.797  17.895  0.00  0.00    +0.000 C 
ATOM      7  C   UNL     1       2.377   7.147  19.936  0.00  0.00    +0.000 A 
ATOM      8  C   UNL     1       1.853   8.316  20.537  0.00  0.00    +0.000 A 
ATOM      9  C   UNL     1       1.314   9.338  19.728  0.00  0.00    +0.000 A 
ATOM     10  C   UNL     1       0.730  10.640  19.916  0.00  0.00    +0.000 A 
ATOM     11  H   UNL     1       0.409  10.170  16.773  0.00  0.00    +0.000 HD
ENDROOT
BRANCH   1  12
ATOM     12  C   UNL     1      -0.758  12.093  18.383  0.00  0.00    +0.000 C 
ATOM     13  O   UNL     1      -0.329  13.233  18.228  0.00  0.00    +0.000 OA
BRANCH  12  17
ATOM     14  C   UNL     1      -5.019  11.616  17.844  0.00  0.00    +0.000 A 
ATOM     15  C   UNL     1      -4.114  11.253  16.844  0.00  0.00    +0.000 A 
ATOM     16  C   UNL     1      -2.734  11.372  17.044  0.00  0.00    +0.000 A 
ATOM     17  C   UNL     1      -2.235  11.862  18.256  0.00  0.00    +0.000 A 
ATOM     18  C   UNL     1      -3.144  12.210  19.269  0.00  0.00    +0.000 A 
ATOM     19  C   UNL     1      -4.529  12.089  19.062  0.00  0.00    +0.000 A 
BRANCH  14  21
ATOM     20  C   UNL     1      -7.245  12.438  18.044  0.00  0.00    +0.000 C 
ATOM     21  O   UNL     1      -6.335  11.494  17.493  0.00  0.00    +0.000 OA
ENDBRANCH  14  21
ENDBRANCH  12  17
ENDBRANCH   1  12
BRANCH  10  22
ATOM     22  N   UNL     1       0.599  11.437  21.019  0.00  0.00    +0.000 N 
ATOM     23  H   UNL     1       1.435  11.416  21.626  0.00  0.00    +0.000 HD
BRANCH  22  24
ATOM     24  C   UNL     1      -0.513  11.816  21.833  0.00  0.00    +0.000 A 
ATOM     25  N   UNL     1      -1.083  13.040  21.738  0.00  0.00    +0.000 NA
ATOM     26  C   UNL     1      -2.117  13.372  22.555  0.00  0.00    +0.000 A 
ATOM     27  N   UNL     1      -2.619  14.644  22.514  0.00  0.00    +0.000 N 
ATOM     28  C   UNL     1      -3.568  15.144  23.516  0.00  0.00    +0.000 C 
ATOM     29  C   UNL     1      -4.908  15.531  22.864  0.00  0.00    +0.000 C 
ATOM     30  O   UNL     1      -4.723  16.395  21.729  0.00  0.00    +0.000 OA
ATOM     31  C   UNL     1      -3.887  15.757  20.748  0.00  0.00    +0.000 C 
ATOM     32  C   UNL     1      -2.486  15.462  21.314  0.00  0.00    +0.000 C 
ATOM     33  N   UNL     1      -2.640  12.521  23.450  0.00  0.00    +0.000 NA
ATOM     34  C   UNL     1      -2.080  11.309  23.550  0.00  0.00    +0.000 A 
ATOM     35  C   UNL     1      -1.006  10.936  22.784  0.00  0.00    +0.000 A 
BRANCH  35  36
ATOM     36  N   UNL     1      -0.422   9.653  23.025  0.00  0.00    +0.000 N 
ATOM     37  O   UNL     1       0.626   9.621  23.679  0.00  0.00    +0.000 OA
ATOM     38  O   UNL     1      -0.981   8.672  22.515  0.00  0.00    +0.000 OA
ENDBRANCH  35  36
ENDBRANCH  22  24
ENDBRANCH  10  22
TORSDOF 6
ENDMDL
MODEL 5
REMARK VINA RESULT:      -8.0      2.949      7.209
REMARK  Name = 
REMARK  8 active torsions:
REMARK  status: ('A' for Active; 'I' for Inactive)
REMARK    1  A    between atoms: C_1  and  O_2
REMARK    2  A    between atoms: O_2  and  C_3
REMARK    3  A    between atoms: C_6  and  C_7
REMARK    4  A    between atoms: C_7  and  C_9
REMARK    5  A    between atoms: C_13  and  C_14
REMARK    6  A    between atoms: C_18  and  N_19
REMARK    7  A    between atoms: N_19  and  C_20
REMARK    8  A    between atoms: C_31  and  N_32
REMARK                            x       y       z     vdW  Elec       q    Type
REMARK                         _______ _______ _______ _____ _____    ______ ____
ROOT
ATOM      1  C   UNL     1      -0.246  11.925  20.034  0.00  0.00    +0.000 A 
ATOM      2  N   UNL     1      -1.310  12.474  19.368  0.00  0.00    +0.000 N 
ATOM      3  C   UNL     1      -1.721  11.655  18.357  0.00  0.00    +0.000 A 
ATOM      4  C   UNL     1      -2.806  11.835  17.499  0.00  0.00    +0.000 A 
ATOM      5  C   UNL     1      -3.110  10.817  16.596  0.00  0.00    +0.000 A 
ATOM      6  C   UNL     1      -4.273  10.995  15.666  0.00  0.00    +0.000 C 
ATOM      7  C   UNL     1      -2.347   9.640  16.613  0.00  0.00    +0.000 A 
ATOM      8  C   UNL     1      -1.211   9.508  17.445  0.00  0.00    +0.000 A 
ATOM      9  C   UNL     1      -0.863  10.552  18.329  0.00  0.00    +0.000 A 
ATOM     10  C   UNL     1       0.177  10.828  19.284  0.00  0.00    +0.000 A 
ATOM     11  H   UNL     1      -1.775  13.333  19.622  0.00  0.00    +0.000 HD
ENDROOT
BRANCH   1  12
ATOM     12  C   UNL     1       0.307  12.506  21.244  0.00  0.00    +0.000 C 
ATOM     13  O   UNL     1       1.517  12.510  21.455  0.00  0.00    +0.000 OA
BRANCH  12  17
ATOM     14  C   UNL     1      -2.494  14.202  24.065  0.00  0.00    +0.000 A 
ATOM     15  C   UNL     1      -2.596  12.872  23.648  0.00  0.00    +0.000 A 
ATOM     16  C   UNL     1      -1.659  12.321  22.767  0.00  0.00    +0.000 A 
ATOM     17  C   UNL     1      -0.600  13.097  22.283  0.00  0.00    +0.000 A 
ATOM     18  C   UNL     1      -0.487  14.429  22.715  0.00  0.00    +0.000 A 
ATOM     19  C   UNL     1      -1.432  14.978  23.601  0.00  0.00    +0.000 A 
BRANCH  14  21
ATOM     20  C   UNL     1      -3.801  16.011  24.894  0.00  0.00    +0.000 C 
ATOM     21  O   UNL     1      -3.505  14.620  24.884  0.00  0.00    +0.000 OA
ENDBRANCH  14  21
ENDBRANCH  12  17
ENDBRANCH   1  12
BRANCH  10  22
ATOM     22  N   UNL     1       1.334  10.171  19.597  0.00  0.00    +0.000 N 
ATOM     23  H   UNL     1       2.176  10.670  19.266  0.00  0.00    +0.000 HD
BRANCH  22  24
ATOM     24  C   UNL     1       1.677   8.790  19.728  0.00  0.00    +0.000 A 
ATOM     25  N   UNL     1       2.389   8.139  18.778  0.00  0.00    +0.000 NA
ATOM     26  C   UNL     1       2.664   6.816  18.926  0.00  0.00    +0.000 A 
ATOM     27  N   UNL     1       3.300   6.148  17.914  0.00  0.00    +0.000 N 
ATOM     28  C   UNL     1       3.423   4.686  17.897  0.00  0.00    +0.000 C 
ATOM     29  C   UNL     1       4.901   4.255  17.931  0.00  0.00    +0.000 C 
ATOM     30  O   UNL     1       5.681   4.935  16.933  0.00  0.00    +0.000 OA
ATOM     31  C   UNL     1       5.599   6.359  17.120  0.00  0.00    +0.000 C 
ATOM     32  C   UNL     1       4.152   6.861  16.969  0.00  0.00    +0.000 C 
ATOM     33  N   UNL     1       2.290   6.109  20.004  0.00  0.00    +0.000 NA
ATOM     34  C   UNL     1       1.586   6.748  20.946  0.00  0.00    +0.000 A 
ATOM     35  C   UNL     1       1.240   8.070  20.828  0.00  0.00    +0.000 A 
BRANCH  35  36
ATOM     36  N   UNL     1       0.410   8.640  21.844  0.00  0.00    +0.000 N 
ATOM     37  O   UNL     1       0.940   9.429  22.633  0.00  0.00    +0.000 OA
ATOM     38  O   UNL     1      -0.768   8.259  21.893  0.00  0.00    +0.000 OA
ENDBRANCH  35  36
ENDBRANCH  22  24
ENDBRANCH  10  22
TORSDOF 6
ENDMDL
MODEL 6
REMARK VINA RESULT:      -8.0      2.355      5.429
REMARK  Name = 
REMARK  8 active torsions:
REMARK  status: ('A' for Active; 'I' for Inactive)
REMARK    1  A    between atoms: C_1  and  O_2
REMARK    2  A    between atoms: O_2  and  C_3
REMARK    3  A    between atoms: C_6  and  C_7
REMARK    4  A    between atoms: C_7  and  C_9
REMARK    5  A    between atoms: C_13  and  C_14
REMARK    6  A    between atoms: C_18  and  N_19
REMARK    7  A    between atoms: N_19  and  C_20
REMARK    8  A    between atoms: C_31  and  N_32
REMARK                            x       y       z     vdW  Elec       q    Type
REMARK                         _______ _______ _______ _____ _____    ______ ____
ROOT
ATOM      1  C   UNL     1      -0.442  10.237  18.560  0.00  0.00    +0.000 A 
ATOM      2  N   UNL     1      -0.694   9.674  17.337  0.00  0.00    +0.000 N 
ATOM      3  C   UNL     1      -1.893  10.101  16.847  0.00  0.00    +0.000 A 
ATOM      4  C   UNL     1      -2.468   9.802  15.610  0.00  0.00    +0.000 A 
ATOM      5  C   UNL     1      -3.664  10.432  15.269  0.00  0.00    +0.000 A 
ATOM      6  C   UNL     1      -4.294  10.121  13.944  0.00  0.00    +0.000 C 
ATOM      7  C   UNL     1      -4.218  11.368  16.153  0.00  0.00    +0.000 A 
ATOM      8  C   UNL     1      -3.655  11.604  17.429  0.00  0.00    +0.000 A 
ATOM      9  C   UNL     1      -2.471  10.936  17.807  0.00  0.00    +0.000 A 
ATOM     10  C   UNL     1      -1.618  10.867  18.964  0.00  0.00    +0.000 A 
ATOM     11  H   UNL     1      -0.058   9.076  16.829  0.00  0.00    +0.000 HD
ENDROOT
BRANCH   1  12
ATOM     12  C   UNL     1       0.825  10.076  19.252  0.00  0.00    +0.000 C 
ATOM     13  O   UNL     1       1.329  11.000  19.884  0.00  0.00    +0.000 OA
BRANCH  12  17
ATOM     14  C   UNL     1       3.107   6.406  19.240  0.00  0.00    +0.000 A 
ATOM     15  C   UNL     1       2.310   6.763  20.330  0.00  0.00    +0.000 A 
ATOM     16  C   UNL     1       1.542   7.933  20.307  0.00  0.00    +0.000 A 
ATOM     17  C   UNL     1       1.562   8.771  19.186  0.00  0.00    +0.000 A 
ATOM     18  C   UNL     1       2.349   8.403  18.082  0.00  0.00    +0.000 A 
ATOM     19  C   UNL     1       3.119   7.226  18.112  0.00  0.00    +0.000 A 
BRANCH  14  21
ATOM     20  C   UNL     1       3.125   4.044  19.542  0.00  0.00    +0.000 C 
ATOM     21  O   UNL     1       3.841   5.267  19.421  0.00  0.00    +0.000 OA
ENDBRANCH  14  21
ENDBRANCH  12  17
ENDBRANCH   1  12
BRANCH  10  22
ATOM     22  N   UNL     1      -1.741  11.375  20.227  0.00  0.00    +0.000 N 
ATOM     23  H   UNL     1      -2.629  11.104  20.680  0.00  0.00    +0.000 HD
BRANCH  22  24
ATOM     24  C   UNL     1      -1.291  12.580  20.851  0.00  0.00    +0.000 A 
ATOM     25  N   UNL     1      -0.837  13.631  20.129  0.00  0.00    +0.000 NA
ATOM     26  C   UNL     1      -0.385  14.745  20.764  0.00  0.00    +0.000 A 
ATOM     27  N   UNL     1       0.159  15.760  20.025  0.00  0.00    +0.000 N 
ATOM     28  C   UNL     1       0.874  16.883  20.644  0.00  0.00    +0.000 C 
ATOM     29  C   UNL     1       0.169  18.219  20.347  0.00  0.00    +0.000 C 
ATOM     30  O   UNL     1      -0.103  18.381  18.944  0.00  0.00    +0.000 OA
ATOM     31  C   UNL     1      -0.921  17.298  18.466  0.00  0.00    +0.000 C 
ATOM     32  C   UNL     1      -0.205  15.944  18.626  0.00  0.00    +0.000 C 
ATOM     33  N   UNL     1      -0.397  14.878  22.098  0.00  0.00    +0.000 NA
ATOM     34  C   UNL     1      -0.844  13.842  22.818  0.00  0.00    +0.000 A 
ATOM     35  C   UNL     1      -1.268  12.676  22.234  0.00  0.00    +0.000 A 
BRANCH  35  36
ATOM     36  N   UNL     1      -1.643  11.593  23.089  0.00  0.00    +0.000 N 
ATOM     37  O   UNL     1      -2.806  11.576  23.507  0.00  0.00    +0.000 OA
ATOM     38  O   UNL     1      -0.760  10.779  23.393  0.00  0.00    +0.000 OA
ENDBRANCH  35  36
ENDBRANCH  22  24
ENDBRANCH  10  22
TORSDOF 6
ENDMDL
MODEL 7
REMARK VINA RESULT:      -7.9      2.521      6.942
REMARK  Name = 
REMARK  8 active torsions:
REMARK  status: ('A' for Active; 'I' for Inactive)
REMARK    1  A    between atoms: C_1  and  O_2
REMARK    2  A    between atoms: O_2  and  C_3
REMARK    3  A    between atoms: C_6  and  C_7
REMARK    4  A    between atoms: C_7  and  C_9
REMARK    5  A    between atoms: C_13  and  C_14
REMARK    6  A    between atoms: C_18  and  N_19
REMARK    7  A    between atoms: N_19  and  C_20
REMARK    8  A    between atoms: C_31  and  N_32
REMARK                            x       y       z     vdW  Elec       q    Type
REMARK                         _______ _______ _______ _____ _____    ______ ____
ROOT
ATOM      1  C   UNL     1       1.226  10.957  18.619  0.00  0.00    +0.000 A 
ATOM      2  N   UNL     1       2.155  11.763  18.014  0.00  0.00    +0.000 N 
ATOM      3  C   UNL     1       2.333  12.912  18.726  0.00  0.00    +0.000 A 
ATOM      4  C   UNL     1       3.234  13.947  18.468  0.00  0.00    +0.000 A 
ATOM      5  C   UNL     1       3.322  14.991  19.389  0.00  0.00    +0.000 A 
ATOM      6  C   UNL     1       4.285  16.110  19.127  0.00  0.00    +0.000 C 
ATOM      7  C   UNL     1       2.541  14.941  20.553  0.00  0.00    +0.000 A 
ATOM      8  C   UNL     1       1.587  13.917  20.759  0.00  0.00    +0.000 A 
ATOM      9  C   UNL     1       1.453  12.882  19.811  0.00  0.00    +0.000 A 
ATOM     10  C   UNL     1       0.630  11.715  19.626  0.00  0.00    +0.000 A 
ATOM     11  H   UNL     1       2.688  11.521  17.191  0.00  0.00    +0.000 HD
ENDROOT
BRANCH   1  12
ATOM     12  C   UNL     1       0.940   9.609  18.162  0.00  0.00    +0.000 C 
ATOM     13  O   UNL     1      -0.068   9.358  17.507  0.00  0.00    +0.000 OA
BRANCH  12  17
ATOM     14  C   UNL     1       3.494   6.219  18.976  0.00  0.00    +0.000 A 
ATOM     15  C   UNL     1       3.601   6.941  17.785  0.00  0.00    +0.000 A 
ATOM     16  C   UNL     1       2.798   8.063  17.549  0.00  0.00    +0.000 A 
ATOM     17  C   UNL     1       1.867   8.481  18.506  0.00  0.00    +0.000 A 
ATOM     18  C   UNL     1       1.771   7.766  19.712  0.00  0.00    +0.000 A 
ATOM     19  C   UNL     1       2.581   6.639  19.943  0.00  0.00    +0.000 A 
BRANCH  14  21
ATOM     20  C   UNL     1       4.046   4.061  18.134  0.00  0.00    +0.000 C 
ATOM     21  O   UNL     1       4.302   5.119  19.049  0.00  0.00    +0.000 OA
ENDBRANCH  14  21
ENDBRANCH  12  17
ENDBRANCH   1  12
BRANCH  10  22
ATOM     22  N   UNL     1      -0.464  11.247  20.299  0.00  0.00    +0.000 N 
ATOM     23  H   UNL     1      -0.619  10.236  20.150  0.00  0.00    +0.000 HD
BRANCH  22  24
ATOM     24  C   UNL     1      -1.719  11.826  20.661  0.00  0.00    +0.000 A 
ATOM     25  N   UNL     1      -2.723  11.970  19.764  0.00  0.00    +0.000 NA
ATOM     26  C   UNL     1      -3.889  12.558  20.141  0.00  0.00    +0.000 A 
ATOM     27  N   UNL     1      -4.857  12.785  19.201  0.00  0.00    +0.000 N 
ATOM     28  C   UNL     1      -6.036  13.615  19.475  0.00  0.00    +0.000 C 
ATOM     29  C   UNL     1      -7.333  12.795  19.345  0.00  0.00    +0.000 C 
ATOM     30  O   UNL     1      -7.386  12.069  18.105  0.00  0.00    +0.000 OA
ATOM     31  C   UNL     1      -6.255  11.186  17.996  0.00  0.00    +0.000 C 
ATOM     32  C   UNL     1      -4.931  11.971  17.993  0.00  0.00    +0.000 C 
ATOM     33  N   UNL     1      -4.120  12.982  21.392  0.00  0.00    +0.000 NA
ATOM     34  C   UNL     1      -3.131  12.843  22.283  0.00  0.00    +0.000 A 
ATOM     35  C   UNL     1      -1.917  12.300  21.948  0.00  0.00    +0.000 A 
BRANCH  35  36
ATOM     36  N   UNL     1      -0.893  12.275  22.946  0.00  0.00    +0.000 N 
ATOM     37  O   UNL     1      -0.430  11.172  23.257  0.00  0.00    +0.000 OA
ATOM     38  O   UNL     1      -0.583  13.356  23.466  0.00  0.00    +0.000 OA
ENDBRANCH  35  36
ENDBRANCH  22  24
ENDBRANCH  10  22
TORSDOF 6
ENDMDL
MODEL 8
REMARK VINA RESULT:      -7.8      2.142      5.447
REMARK  Name = 
REMARK  8 active torsions:
REMARK  status: ('A' for Active; 'I' for Inactive)
REMARK    1  A    between atoms: C_1  and  O_2
REMARK    2  A    between atoms: O_2  and  C_3
REMARK    3  A    between atoms: C_6  and  C_7
REMARK    4  A    between atoms: C_7  and  C_9
REMARK    5  A    between atoms: C_13  and  C_14
REMARK    6  A    between atoms: C_18  and  N_19
REMARK    7  A    between atoms: N_19  and  C_20
REMARK    8  A    between atoms: C_31  and  N_32
REMARK                            x       y       z     vdW  Elec       q    Type
REMARK                         _______ _______ _______ _____ _____    ______ ____
ROOT
ATOM      1  C   UNL     1       0.296  10.337  18.455  0.00  0.00    +0.000 A 
ATOM      2  N   UNL     1      -0.783   9.891  17.737  0.00  0.00    +0.000 N 
ATOM      3  C   UNL     1      -1.922  10.532  18.130  0.00  0.00    +0.000 A 
ATOM      4  C   UNL     1      -3.205  10.399  17.597  0.00  0.00    +0.000 A 
ATOM      5  C   UNL     1      -4.212  11.231  18.086  0.00  0.00    +0.000 A 
ATOM      6  C   UNL     1      -5.596  11.100  17.524  0.00  0.00    +0.000 C 
ATOM      7  C   UNL     1      -3.892  12.192  19.055  0.00  0.00    +0.000 A 
ATOM      8  C   UNL     1      -2.601  12.263  19.628  0.00  0.00    +0.000 A 
ATOM      9  C   UNL     1      -1.585  11.393  19.178  0.00  0.00    +0.000 A 
ATOM     10  C   UNL     1      -0.207  11.123  19.490  0.00  0.00    +0.000 A 
ATOM     11  H   UNL     1      -0.743   9.229  16.976  0.00  0.00    +0.000 HD
ENDROOT
BRANCH   1  12
ATOM     12  C   UNL     1       1.658   9.936  18.153  0.00  0.00    +0.000 C 
ATOM     13  O   UNL     1       2.454  10.717  17.639  0.00  0.00    +0.000 OA
BRANCH  12  17
ATOM     14  C   UNL     1       3.128   6.002  19.172  0.00  0.00    +0.000 A 
ATOM     15  C   UNL     1       2.279   6.705  20.029  0.00  0.00    +0.000 A 
ATOM     16  C   UNL     1       1.775   7.961  19.671  0.00  0.00    +0.000 A 
ATOM     17  C   UNL     1       2.117   8.537  18.443  0.00  0.00    +0.000 A 
ATOM     18  C   UNL     1       2.956   7.822  17.572  0.00  0.00    +0.000 A 
ATOM     19  C   UNL     1       3.461   6.561  17.938  0.00  0.00    +0.000 A 
BRANCH  14  21
ATOM     20  C   UNL     1       2.673   4.040  20.443  0.00  0.00    +0.000 C 
ATOM     21  O   UNL     1       3.584   4.814  19.671  0.00  0.00    +0.000 OA
ENDBRANCH  14  21
ENDBRANCH  12  17
ENDBRANCH   1  12
BRANCH  10  22
ATOM     22  N   UNL     1       0.614  11.573  20.488  0.00  0.00    +0.000 N 
ATOM     23  H   UNL     1       0.581  10.973  21.329  0.00  0.00    +0.000 HD
BRANCH  22  24
ATOM     24  C   UNL     1       1.037  12.873  20.903  0.00  0.00    +0.000 A 
ATOM     25  N   UNL     1       2.142  13.462  20.389  0.00  0.00    +0.000 NA
ATOM     26  C   UNL     1       2.529  14.685  20.837  0.00  0.00    +0.000 A 
ATOM     27  N   UNL     1       3.700  15.225  20.379  0.00  0.00    +0.000 N 
ATOM     28  C   UNL     1       4.299  16.422  20.981  0.00  0.00    +0.000 C 
ATOM     29  C   UNL     1       4.388  17.570  19.958  0.00  0.00    +0.000 C 
ATOM     30  O   UNL     1       5.000  17.147  18.728  0.00  0.00    +0.000 OA
ATOM     31  C   UNL     1       4.259  16.057  18.152  0.00  0.00    +0.000 C 
ATOM     32  C   UNL     1       4.247  14.833  19.085  0.00  0.00    +0.000 C 
ATOM     33  N   UNL     1       1.840  15.375  21.758  0.00  0.00    +0.000 NA
ATOM     34  C   UNL     1       0.747  14.798  22.271  0.00  0.00    +0.000 A 
ATOM     35  C   UNL     1       0.335  13.546  21.891  0.00  0.00    +0.000 A 
BRANCH  35  36
ATOM     36  N   UNL     1      -0.793  12.977  22.560  0.00  0.00    +0.000 N 
ATOM     37  O   UNL     1      -1.810  13.674  22.650  0.00  0.00    +0.000 OA
ATOM     38  O   UNL     1      -0.652  11.847  23.048  0.00  0.00    +0.000 OA
ENDBRANCH  35  36
ENDBRANCH  22  24
ENDBRANCH  10  22
TORSDOF 6
ENDMDL
MODEL 9
REMARK VINA RESULT:      -7.8      3.223      6.111
REMARK  Name = 
REMARK  8 active torsions:
REMARK  status: ('A' for Active; 'I' for Inactive)
REMARK    1  A    between atoms: C_1  and  O_2
REMARK    2  A    between atoms: O_2  and  C_3
REMARK    3  A    between atoms: C_6  and  C_7
REMARK    4  A    between atoms: C_7  and  C_9
REMARK    5  A    between atoms: C_13  and  C_14
REMARK    6  A    between atoms: C_18  and  N_19
REMARK    7  A    between atoms: N_19  and  C_20
REMARK    8  A    between atoms: C_31  and  N_32
REMARK                            x       y       z     vdW  Elec       q    Type
REMARK                         _______ _______ _______ _____ _____    ______ ____
ROOT
ATOM      1  C   UNL     1       1.415  11.450  18.863  0.00  0.00    +0.000 A 
ATOM      2  N   UNL     1       1.980  12.322  17.970  0.00  0.00    +0.000 N 
ATOM      3  C   UNL     1       2.518  13.394  18.618  0.00  0.00    +0.000 A 
ATOM      4  C   UNL     1       3.231  14.459  18.064  0.00  0.00    +0.000 A 
ATOM      5  C   UNL     1       3.784  15.404  18.928  0.00  0.00    +0.000 A 
ATOM      6  C   UNL     1       4.553  16.554  18.348  0.00  0.00    +0.000 C 
ATOM      7  C   UNL     1       3.643  15.228  20.312  0.00  0.00    +0.000 A 
ATOM      8  C   UNL     1       2.860  14.179  20.847  0.00  0.00    +0.000 A 
ATOM      9  C   UNL     1       2.253  13.244  19.982  0.00  0.00    +0.000 A 
ATOM     10  C   UNL     1       1.395  12.095  20.099  0.00  0.00    +0.000 A 
ATOM     11  H   UNL     1       2.051  12.170  16.974  0.00  0.00    +0.000 HD
ENDROOT
BRANCH   1  12
ATOM     12  C   UNL     1       0.894  10.152  18.470  0.00  0.00    +0.000 C 
ATOM     13  O   UNL     1      -0.186  10.046  17.896  0.00  0.00    +0.000 OA
BRANCH  12  17
ATOM     14  C   UNL     1       2.960   6.429  19.208  0.00  0.00    +0.000 A 
ATOM     15  C   UNL     1       3.118   7.123  18.006  0.00  0.00    +0.000 A 
ATOM     16  C   UNL     1       2.477   8.349  17.793  0.00  0.00    +0.000 A 
ATOM     17  C   UNL     1       1.661   8.902  18.786  0.00  0.00    +0.000 A 
ATOM     18  C   UNL     1       1.516   8.214  20.002  0.00  0.00    +0.000 A 
ATOM     19  C   UNL     1       2.162   6.982  20.209  0.00  0.00    +0.000 A 
BRANCH  14  21
ATOM     20  C   UNL     1       5.015   5.231  19.095  0.00  0.00    +0.000 C 
ATOM     21  O   UNL     1       3.602   5.223  19.257  0.00  0.00    +0.000 OA
ENDBRANCH  14  21
ENDBRANCH  12  17
ENDBRANCH   1  12
BRANCH  10  22
ATOM     22  N   UNL     1       0.731  11.549  21.162  0.00  0.00    +0.000 N 
ATOM     23  H   UNL     1       0.773  10.516  21.169  0.00  0.00    +0.000 HD
BRANCH  22  24
ATOM     24  C   UNL     1      -0.429  11.936  21.902  0.00  0.00    +0.000 A 
ATOM     25  N   UNL     1      -0.967  13.174  21.789  0.00  0.00    +0.000 NA
ATOM     26  C   UNL     1      -2.049  13.513  22.537  0.00  0.00    +0.000 A 
ATOM     27  N   UNL     1      -2.523  14.796  22.484  0.00  0.00    +0.000 N 
ATOM     28  C   UNL     1      -3.531  15.298  23.426  0.00  0.00    +0.000 C 
ATOM     29  C   UNL     1      -4.814  15.724  22.688  0.00  0.00    +0.000 C 
ATOM     30  O   UNL     1      -4.531  16.602  21.585  0.00  0.00    +0.000 OA
ATOM     31  C   UNL     1      -3.640  15.964  20.654  0.00  0.00    +0.000 C 
ATOM     32  C   UNL     1      -2.289  15.630  21.312  0.00  0.00    +0.000 C 
ATOM     33  N   UNL     1      -2.652  12.657  23.377  0.00  0.00    +0.000 NA
ATOM     34  C   UNL     1      -2.124  11.433  23.494  0.00  0.00    +0.000 A 
ATOM     35  C   UNL     1      -1.005  11.051  22.799  0.00  0.00    +0.000 A 
BRANCH  35  36
ATOM     36  N   UNL     1      -0.465   9.752  23.057  0.00  0.00    +0.000 N 
ATOM     37  O   UNL     1       0.418   9.666  23.917  0.00  0.00    +0.000 OA
ATOM     38  O   UNL     1      -0.884   8.816  22.362  0.00  0.00    +0.000 OA
ENDBRANCH  35  36
ENDBRANCH  22  24
ENDBRANCH  10  22
TORSDOF 6
ENDMDL
