MODEL 1
REMARK VINA RESULT:      -6.6      0.000      0.000
REMARK  Name = 
REMARK  6 active torsions:
REMARK  status: ('A' for Active; 'I' for Inactive)
REMARK    1  A    between atoms: C_1  and  N_2
REMARK    2  A    between atoms: N_2  and  C_3
REMARK    3  A    between atoms: N_2  and  C_4
REMARK    4  A    between atoms: C_4  and  C_5
REMARK    5  A    between atoms: C_10  and  O_11
REMARK    6  A    between atoms: O_11  and  C_12
REMARK                            x       y       z     vdW  Elec       q    Type
REMARK                         _______ _______ _______ _____ _____    ______ ____
ROOT
ATOM      1  C   UNL     1       2.813   4.591  19.280  0.00  0.00    +0.000 A 
ATOM      2  C   UNL     1       1.472   4.193  19.235  0.00  0.00    +0.000 A 
ATOM      3  N   UNL     1       1.047   2.917  19.100  0.00  0.00    +0.000 NA
ATOM      4  C   UNL     1       1.999   1.972  19.062  0.00  0.00    +0.000 A 
ATOM      5  C   UNL     1       3.351   2.248  19.096  0.00  0.00    +0.000 A 
ATOM      6  C   UNL     1       3.767   3.586  19.104  0.00  0.00    +0.000 A 
ENDROOT
BRANCH   1   7
ATOM      7  C   UNL     1       3.121   6.041  19.574  0.00  0.00    +0.000 C 
BRANCH   7   9
ATOM      8  C   UNL     1       1.996   8.143  19.044  0.00  0.00    +0.000 C 
ATOM      9  N   UNL     1       2.619   6.932  18.500  0.00  0.00    +0.000 NA
ATOM     10  C   UNL     1       3.679   7.297  17.561  0.00  0.00    +0.000 C 
ENDBRANCH   7   9
ENDBRANCH   1   7
BRANCH   6  11
ATOM     11  O   UNL     1       5.105   3.934  18.973  0.00  0.00    +0.000 OA
BRANCH  11  12
ATOM     12  C   UNL     1       5.554   4.296  17.710  0.00  0.00    +0.000 A 
ATOM     13  C   UNL     1       4.872   3.903  16.545  0.00  0.00    +0.000 A 
ATOM     14  C   UNL     1       5.431   4.127  15.288  0.00  0.00    +0.000 A 
ATOM     15  C   UNL     1       6.637   4.821  15.183  0.00  0.00    +0.000 A 
ATOM     16 CL   UNL     1       7.347   5.052  13.633  0.00  0.00    +0.000 Cl
ATOM     17  C   UNL     1       7.269   5.311  16.321  0.00  0.00    +0.000 A 
ATOM     18  C   UNL     1       6.726   5.053  17.586  0.00  0.00    +0.000 A 
ATOM     19 BR   UNL     1       7.633   5.736  19.104  0.00  0.00    +0.000 Br
ENDBRANCH  11  12
ENDBRANCH   6  11
TORSDOF 4
ENDMDL
MODEL 2
REMARK VINA RESULT:      -6.6      1.094      1.199
REMARK  Name = 
REMARK  6 active torsions:
REMARK  status: ('A' for Active; 'I' for Inactive)
REMARK    1  A    between atoms: C_1  and  N_2
REMARK    2  A    between atoms: N_2  and  C_3
REMARK    3  A    between atoms: N_2  and  C_4
REMARK    4  A    between atoms: C_4  and  C_5
REMARK    5  A    between atoms: C_10  and  O_11
REMARK    6  A    between atoms: O_11  and  C_12
REMARK                            x       y       z     vdW  Elec       q    Type
REMARK                         _______ _______ _______ _____ _____    ______ ____
ROOT
ATOM      1  C   UNL     1       3.047   4.894  17.909  0.00  0.00    +0.000 A 
ATOM      2  C   UNL     1       1.689   4.565  17.827  0.00  0.00    +0.000 A 
ATOM      3  N   UNL     1       1.191   3.310  17.891  0.00  0.00    +0.000 NA
ATOM      4  C   UNL     1       2.079   2.325  18.102  0.00  0.00    +0.000 A 
ATOM      5  C   UNL     1       3.441   2.533  18.196  0.00  0.00    +0.000 A 
ATOM      6  C   UNL     1       3.943   3.825  17.997  0.00  0.00    +0.000 A 
ENDROOT
BRANCH   1   7
ATOM      7  C   UNL     1       3.429   6.356  17.960  0.00  0.00    +0.000 C 
BRANCH   7   9
ATOM      8  C   UNL     1       2.230   7.371  19.830  0.00  0.00    +0.000 C 
ATOM      9  N   UNL     1       2.285   7.203  18.374  0.00  0.00    +0.000 NA
ATOM     10  C   UNL     1       2.316   8.511  17.723  0.00  0.00    +0.000 C 
ENDBRANCH   7   9
ENDBRANCH   1   7
BRANCH   6  11
ATOM     11  O   UNL     1       5.307   4.073  17.915  0.00  0.00    +0.000 OA
BRANCH  11  12
ATOM     12  C   UNL     1       5.823   4.418  16.673  0.00  0.00    +0.000 A 
ATOM     13  C   UNL     1       5.329   3.851  15.486  0.00  0.00    +0.000 A 
ATOM     14  C   UNL     1       5.974   4.078  14.270  0.00  0.00    +0.000 A 
ATOM     15  C   UNL     1       7.068   4.941  14.221  0.00  0.00    +0.000 A 
ATOM     16 CL   UNL     1       7.891   5.179  12.728  0.00  0.00    +0.000 Cl
ATOM     17  C   UNL     1       7.503   5.595  15.369  0.00  0.00    +0.000 A 
ATOM     18  C   UNL     1       6.877   5.338  16.596  0.00  0.00    +0.000 A 
ATOM     19 BR   UNL     1       7.514   6.249  18.132  0.00  0.00    +0.000 Br
ENDBRANCH  11  12
ENDBRANCH   6  11
TORSDOF 4
ENDMDL
MODEL 3
REMARK VINA RESULT:      -6.6      1.107      2.925
REMARK  Name = 
REMARK  6 active torsions:
REMARK  status: ('A' for Active; 'I' for Inactive)
REMARK    1  A    between atoms: C_1  and  N_2
REMARK    2  A    between atoms: N_2  and  C_3
REMARK    3  A    between atoms: N_2  and  C_4
REMARK    4  A    between atoms: C_4  and  C_5
REMARK    5  A    between atoms: C_10  and  O_11
REMARK    6  A    between atoms: O_11  and  C_12
REMARK                            x       y       z     vdW  Elec       q    Type
REMARK                         _______ _______ _______ _____ _____    ______ ____
ROOT
ATOM      1  C   UNL     1       2.885   4.204  20.225  0.00  0.00    +0.000 A 
ATOM      2  C   UNL     1       1.802   4.925  20.740  0.00  0.00    +0.000 A 
ATOM      3  N   UNL     1       1.572   6.239  20.521  0.00  0.00    +0.000 NA
ATOM      4  C   UNL     1       2.430   6.867  19.701  0.00  0.00    +0.000 A 
ATOM      5  C   UNL     1       3.534   6.257  19.139  0.00  0.00    +0.000 A 
ATOM      6  C   UNL     1       3.822   4.931  19.486  0.00  0.00    +0.000 A 
ENDROOT
BRANCH   1   7
ATOM      7  C   UNL     1       2.924   2.710  20.449  0.00  0.00    +0.000 C 
BRANCH   7   9
ATOM      8  C   UNL     1       1.586   2.824  18.410  0.00  0.00    +0.000 C 
ATOM      9  N   UNL     1       2.408   1.970  19.273  0.00  0.00    +0.000 NA
ATOM     10  C   UNL     1       3.489   1.370  18.494  0.00  0.00    +0.000 C 
ENDBRANCH   7   9
ENDBRANCH   1   7
BRANCH   6  11
ATOM     11  O   UNL     1       5.001   4.314  19.088  0.00  0.00    +0.000 OA
BRANCH  11  12
ATOM     12  C   UNL     1       5.449   4.556  17.797  0.00  0.00    +0.000 A 
ATOM     13  C   UNL     1       4.694   4.183  16.671  0.00  0.00    +0.000 A 
ATOM     14  C   UNL     1       5.236   4.277  15.391  0.00  0.00    +0.000 A 
ATOM     15  C   UNL     1       6.508   4.824  15.219  0.00  0.00    +0.000 A 
ATOM     16 CL   UNL     1       7.193   4.893  13.642  0.00  0.00    +0.000 Cl
ATOM     17  C   UNL     1       7.225   5.298  16.313  0.00  0.00    +0.000 A 
ATOM     18  C   UNL     1       6.694   5.170  17.603  0.00  0.00    +0.000 A 
ATOM     19 BR   UNL     1       7.716   5.824  19.059  0.00  0.00    +0.000 Br
ENDBRANCH  11  12
ENDBRANCH   6  11
TORSDOF 4
ENDMDL
MODEL 4
REMARK VINA RESULT:      -6.3      1.148      3.184
REMARK  Name = 
REMARK  6 active torsions:
REMARK  status: ('A' for Active; 'I' for Inactive)
REMARK    1  A    between atoms: C_1  and  N_2
REMARK    2  A    between atoms: N_2  and  C_3
REMARK    3  A    between atoms: N_2  and  C_4
REMARK    4  A    between atoms: C_4  and  C_5
REMARK    5  A    between atoms: C_10  and  O_11
REMARK    6  A    between atoms: O_11  and  C_12
REMARK                            x       y       z     vdW  Elec       q    Type
REMARK                         _______ _______ _______ _____ _____    ______ ____
ROOT
ATOM      1  C   UNL     1       3.103   5.167  19.640  0.00  0.00    +0.000 A 
ATOM      2  C   UNL     1       2.289   6.211  20.093  0.00  0.00    +0.000 A 
ATOM      3  N   UNL     1       2.128   7.396  19.463  0.00  0.00    +0.000 NA
ATOM      4  C   UNL     1       2.765   7.540  18.290  0.00  0.00    +0.000 A 
ATOM      5  C   UNL     1       3.595   6.579  17.749  0.00  0.00    +0.000 A 
ATOM      6  C   UNL     1       3.848   5.414  18.484  0.00  0.00    +0.000 A 
ENDROOT
BRANCH   1   7
ATOM      7  C   UNL     1       3.067   3.853  20.388  0.00  0.00    +0.000 C 
BRANCH   7   9
ATOM      8  C   UNL     1       1.594   2.257  19.272  0.00  0.00    +0.000 C 
ATOM      9  N   UNL     1       1.716   3.244  20.350  0.00  0.00    +0.000 NA
ATOM     10  C   UNL     1       1.365   2.629  21.629  0.00  0.00    +0.000 C 
ENDBRANCH   7   9
ENDBRANCH   1   7
BRANCH   6  11
ATOM     11  O   UNL     1       4.797   4.486  18.076  0.00  0.00    +0.000 OA
BRANCH  11  12
ATOM     12  C   UNL     1       5.417   4.698  16.852  0.00  0.00    +0.000 A 
ATOM     13  C   UNL     1       4.831   4.278  15.645  0.00  0.00    +0.000 A 
ATOM     14  C   UNL     1       5.545   4.344  14.450  0.00  0.00    +0.000 A 
ATOM     15  C   UNL     1       6.821   4.907  14.439  0.00  0.00    +0.000 A 
ATOM     16 CL   UNL     1       7.718   4.940  12.970  0.00  0.00    +0.000 Cl
ATOM     17  C   UNL     1       7.372   5.426  15.605  0.00  0.00    +0.000 A 
ATOM     18  C   UNL     1       6.669   5.326  16.813  0.00  0.00    +0.000 A 
ATOM     19 BR   UNL     1       7.470   6.042  18.375  0.00  0.00    +0.000 Br
ENDBRANCH  11  12
ENDBRANCH   6  11
TORSDOF 4
ENDMDL
MODEL 5
REMARK VINA RESULT:      -6.1      2.074      2.582
REMARK  Name = 
REMARK  6 active torsions:
REMARK  status: ('A' for Active; 'I' for Inactive)
REMARK    1  A    between atoms: C_1  and  N_2
REMARK    2  A    between atoms: N_2  and  C_3
REMARK    3  A    between atoms: N_2  and  C_4
REMARK    4  A    between atoms: C_4  and  C_5
REMARK    5  A    between atoms: C_10  and  O_11
REMARK    6  A    between atoms: O_11  and  C_12
REMARK                            x       y       z     vdW  Elec       q    Type
REMARK                         _______ _______ _______ _____ _____    ______ ____
ROOT
ATOM      1  C   UNL     1       2.569   4.283  19.077  0.00  0.00    +0.000 A 
ATOM      2  C   UNL     1       1.626   4.054  20.085  0.00  0.00    +0.000 A 
ATOM      3  N   UNL     1       1.746   3.127  21.061  0.00  0.00    +0.000 NA
ATOM      4  C   UNL     1       2.887   2.421  21.077  0.00  0.00    +0.000 A 
ATOM      5  C   UNL     1       3.885   2.560  20.132  0.00  0.00    +0.000 A 
ATOM      6  C   UNL     1       3.679   3.435  19.057  0.00  0.00    +0.000 A 
ENDROOT
BRANCH   1   7
ATOM      7  C   UNL     1       2.350   5.451  18.142  0.00  0.00    +0.000 C 
BRANCH   7   9
ATOM      8  C   UNL     1       3.453   7.541  17.530  0.00  0.00    +0.000 C 
ATOM      9  N   UNL     1       3.027   6.675  18.633  0.00  0.00    +0.000 NA
ATOM     10  C   UNL     1       2.180   7.427  19.558  0.00  0.00    +0.000 C 
ENDBRANCH   7   9
ENDBRANCH   1   7
BRANCH   6  11
ATOM     11  O   UNL     1       4.566   3.500  17.990  0.00  0.00    +0.000 OA
BRANCH  11  12
ATOM     12  C   UNL     1       5.562   4.465  18.042  0.00  0.00    +0.000 A 
ATOM     13  C   UNL     1       6.127   4.878  19.260  0.00  0.00    +0.000 A 
ATOM     14  C   UNL     1       6.998   5.966  19.306  0.00  0.00    +0.000 A 
ATOM     15  C   UNL     1       7.375   6.597  18.120  0.00  0.00    +0.000 A 
ATOM     16 CL   UNL     1       8.410   7.970  18.185  0.00  0.00    +0.000 Cl
ATOM     17  C   UNL     1       6.909   6.131  16.895  0.00  0.00    +0.000 A 
ATOM     18  C   UNL     1       6.006   5.061  16.854  0.00  0.00    +0.000 A 
ATOM     19 BR   UNL     1       5.395   4.472  15.158  0.00  0.00    +0.000 Br
ENDBRANCH  11  12
ENDBRANCH   6  11
TORSDOF 4
ENDMDL
MODEL 6
REMARK VINA RESULT:      -6.1      0.865      1.183
REMARK  Name = 
REMARK  6 active torsions:
REMARK  status: ('A' for Active; 'I' for Inactive)
REMARK    1  A    between atoms: C_1  and  N_2
REMARK    2  A    between atoms: N_2  and  C_3
REMARK    3  A    between atoms: N_2  and  C_4
REMARK    4  A    between atoms: C_4  and  C_5
REMARK    5  A    between atoms: C_10  and  O_11
REMARK    6  A    between atoms: O_11  and  C_12
REMARK                            x       y       z     vdW  Elec       q    Type
REMARK                         _______ _______ _______ _____ _____    ______ ____
ROOT
ATOM      1  C   UNL     1       2.615   4.511  18.309  0.00  0.00    +0.000 A 
ATOM      2  C   UNL     1       1.353   3.924  18.164  0.00  0.00    +0.000 A 
ATOM      3  N   UNL     1       1.107   2.595  18.202  0.00  0.00    +0.000 NA
ATOM      4  C   UNL     1       2.159   1.801  18.452  0.00  0.00    +0.000 A 
ATOM      5  C   UNL     1       3.449   2.268  18.609  0.00  0.00    +0.000 A 
ATOM      6  C   UNL     1       3.697   3.636  18.435  0.00  0.00    +0.000 A 
ENDROOT
BRANCH   1   7
ATOM      7  C   UNL     1       2.702   6.018  18.380  0.00  0.00    +0.000 C 
BRANCH   7   9
ATOM      8  C   UNL     1       1.980   7.820  19.861  0.00  0.00    +0.000 C 
ATOM      9  N   UNL     1       2.616   6.502  19.779  0.00  0.00    +0.000 NA
ATOM     10  C   UNL     1       1.907   5.553  20.637  0.00  0.00    +0.000 C 
ENDBRANCH   7   9
ENDBRANCH   1   7
BRANCH   6  11
ATOM     11  O   UNL     1       4.989   4.146  18.416  0.00  0.00    +0.000 OA
BRANCH  11  12
ATOM     12  C   UNL     1       5.539   4.456  17.179  0.00  0.00    +0.000 A 
ATOM     13  C   UNL     1       4.945   4.027  15.980  0.00  0.00    +0.000 A 
ATOM     14  C   UNL     1       5.603   4.200  14.763  0.00  0.00    +0.000 A 
ATOM     15  C   UNL     1       6.821   4.878  14.727  0.00  0.00    +0.000 A 
ATOM     16 CL   UNL     1       7.652   5.045  13.230  0.00  0.00    +0.000 Cl
ATOM     17  C   UNL     1       7.369   5.404  15.892  0.00  0.00    +0.000 A 
ATOM     18  C   UNL     1       6.726   5.198  17.119  0.00  0.00    +0.000 A 
ATOM     19 BR   UNL     1       7.520   5.930  18.678  0.00  0.00    +0.000 Br
ENDBRANCH  11  12
ENDBRANCH   6  11
TORSDOF 4
ENDMDL
MODEL 7
REMARK VINA RESULT:      -6.1      3.732      5.893
REMARK  Name = 
REMARK  6 active torsions:
REMARK  status: ('A' for Active; 'I' for Inactive)
REMARK    1  A    between atoms: C_1  and  N_2
REMARK    2  A    between atoms: N_2  and  C_3
REMARK    3  A    between atoms: N_2  and  C_4
REMARK    4  A    between atoms: C_4  and  C_5
REMARK    5  A    between atoms: C_10  and  O_11
REMARK    6  A    between atoms: O_11  and  C_12
REMARK                            x       y       z     vdW  Elec       q    Type
REMARK                         _______ _______ _______ _____ _____    ______ ____
ROOT
ATOM      1  C   UNL     1       6.372   5.859  16.744  0.00  0.00    +0.000 A 
ATOM      2  C   UNL     1       7.363   6.800  17.047  0.00  0.00    +0.000 A 
ATOM      3  N   UNL     1       7.983   6.913  18.243  0.00  0.00    +0.000 NA
ATOM      4  C   UNL     1       7.646   6.011  19.178  0.00  0.00    +0.000 A 
ATOM      5  C   UNL     1       6.681   5.040  18.990  0.00  0.00    +0.000 A 
ATOM      6  C   UNL     1       5.962   5.027  17.788  0.00  0.00    +0.000 A 
ENDROOT
BRANCH   1   7
ATOM      7  C   UNL     1       5.877   5.774  15.318  0.00  0.00    +0.000 C 
BRANCH   7   9
ATOM      8  C   UNL     1       5.592   3.862  13.826  0.00  0.00    +0.000 C 
ATOM      9  N   UNL     1       6.550   4.683  14.573  0.00  0.00    +0.000 NA
ATOM     10  C   UNL     1       7.576   5.199  13.668  0.00  0.00    +0.000 C 
ENDBRANCH   7   9
ENDBRANCH   1   7
BRANCH   6  11
ATOM     11  O   UNL     1       4.872   4.188  17.601  0.00  0.00    +0.000 OA
BRANCH  11  12
ATOM     12  C   UNL     1       4.101   3.877  18.713  0.00  0.00    +0.000 A 
ATOM     13  C   UNL     1       4.338   2.720  19.474  0.00  0.00    +0.000 A 
ATOM     14  C   UNL     1       3.449   2.337  20.478  0.00  0.00    +0.000 A 
ATOM     15  C   UNL     1       2.361   3.155  20.783  0.00  0.00    +0.000 A 
ATOM     16 CL   UNL     1       1.239   2.655  21.988  0.00  0.00    +0.000 Cl
ATOM     17  C   UNL     1       2.173   4.359  20.112  0.00  0.00    +0.000 A 
ATOM     18  C   UNL     1       3.046   4.724  19.079  0.00  0.00    +0.000 A 
ATOM     19 BR   UNL     1       2.740   6.370  18.190  0.00  0.00    +0.000 Br
ENDBRANCH  11  12
ENDBRANCH   6  11
TORSDOF 4
ENDMDL
MODEL 8
REMARK VINA RESULT:      -6.1      3.759      5.850
REMARK  Name = 
REMARK  6 active torsions:
REMARK  status: ('A' for Active; 'I' for Inactive)
REMARK    1  A    between atoms: C_1  and  N_2
REMARK    2  A    between atoms: N_2  and  C_3
REMARK    3  A    between atoms: N_2  and  C_4
REMARK    4  A    between atoms: C_4  and  C_5
REMARK    5  A    between atoms: C_10  and  O_11
REMARK    6  A    between atoms: O_11  and  C_12
REMARK                            x       y       z     vdW  Elec       q    Type
REMARK                         _______ _______ _______ _____ _____    ______ ____
ROOT
ATOM      1  C   UNL     1       6.205   4.405  17.211  0.00  0.00    +0.000 A 
ATOM      2  C   UNL     1       7.559   4.625  17.487  0.00  0.00    +0.000 A 
ATOM      3  N   UNL     1       8.041   5.134  18.643  0.00  0.00    +0.000 NA
ATOM      4  C   UNL     1       7.141   5.390  19.604  0.00  0.00    +0.000 A 
ATOM      5  C   UNL     1       5.781   5.213  19.443  0.00  0.00    +0.000 A 
ATOM      6  C   UNL     1       5.296   4.808  18.193  0.00  0.00    +0.000 A 
ENDROOT
BRANCH   1   7
ATOM      7  C   UNL     1       5.840   3.701  15.924  0.00  0.00    +0.000 C 
BRANCH   7   9
ATOM      8  C   UNL     1       6.024   3.764  13.490  0.00  0.00    +0.000 C 
ATOM      9  N   UNL     1       6.207   4.511  14.739  0.00  0.00    +0.000 NA
ATOM     10  C   UNL     1       5.451   5.762  14.684  0.00  0.00    +0.000 C 
ENDBRANCH   7   9
ENDBRANCH   1   7
BRANCH   6  11
ATOM     11  O   UNL     1       3.935   4.770  17.916  0.00  0.00    +0.000 OA
BRANCH  11  12
ATOM     12  C   UNL     1       3.108   5.617  18.642  0.00  0.00    +0.000 A 
ATOM     13  C   UNL     1       2.929   6.962  18.279  0.00  0.00    +0.000 A 
ATOM     14  C   UNL     1       2.236   7.836  19.116  0.00  0.00    +0.000 A 
ATOM     15  C   UNL     1       1.646   7.350  20.283  0.00  0.00    +0.000 A 
ATOM     16 CL   UNL     1       0.834   8.440  21.338  0.00  0.00    +0.000 Cl
ATOM     17  C   UNL     1       1.722   5.998  20.601  0.00  0.00    +0.000 A 
ATOM     18  C   UNL     1       2.450   5.128  19.778  0.00  0.00    +0.000 A 
ATOM     19 BR   UNL     1       2.530   3.297  20.262  0.00  0.00    +0.000 Br
ENDBRANCH  11  12
ENDBRANCH   6  11
TORSDOF 4
ENDMDL
MODEL 9
REMARK VINA RESULT:      -6.0      3.850      5.926
REMARK  Name = 
REMARK  6 active torsions:
REMARK  status: ('A' for Active; 'I' for Inactive)
REMARK    1  A    between atoms: C_1  and  N_2
REMARK    2  A    between atoms: N_2  and  C_3
REMARK    3  A    between atoms: N_2  and  C_4
REMARK    4  A    between atoms: C_4  and  C_5
REMARK    5  A    between atoms: C_10  and  O_11
REMARK    6  A    between atoms: O_11  and  C_12
REMARK                            x       y       z     vdW  Elec       q    Type
REMARK                         _______ _______ _______ _____ _____    ______ ____
ROOT
ATOM      1  C   UNL     1       5.869   5.988  16.985  0.00  0.00    +0.000 A 
ATOM      2  C   UNL     1       7.220   6.285  17.196  0.00  0.00    +0.000 A 
ATOM      3  N   UNL     1       7.864   6.165  18.379  0.00  0.00    +0.000 NA
ATOM      4  C   UNL     1       7.148   5.672  19.401  0.00  0.00    +0.000 A 
ATOM      5  C   UNL     1       5.809   5.346  19.309  0.00  0.00    +0.000 A 
ATOM      6  C   UNL     1       5.133   5.602  18.108  0.00  0.00    +0.000 A 
ENDROOT
BRANCH   1   7
ATOM      7  C   UNL     1       5.335   6.043  15.572  0.00  0.00    +0.000 C 
BRANCH   7   9
ATOM      8  C   UNL     1       6.947   4.937  14.108  0.00  0.00    +0.000 C 
ATOM      9  N   UNL     1       5.669   4.812  14.816  0.00  0.00    +0.000 NA
ATOM     10  C   UNL     1       5.693   3.635  15.683  0.00  0.00    +0.000 C 
ENDBRANCH   7   9
ENDBRANCH   1   7
BRANCH   6  11
ATOM     11  O   UNL     1       3.757   5.453  18.001  0.00  0.00    +0.000 OA
BRANCH  11  12
ATOM     12  C   UNL     1       2.960   6.482  18.485  0.00  0.00    +0.000 A 
ATOM     13  C   UNL     1       2.793   7.683  17.774  0.00  0.00    +0.000 A 
ATOM     14  C   UNL     1       2.134   8.765  18.355  0.00  0.00    +0.000 A 
ATOM     15  C   UNL     1       1.563   8.626  19.620  0.00  0.00    +0.000 A 
ATOM     16 CL   UNL     1       0.793   9.979  20.353  0.00  0.00    +0.000 Cl
ATOM     17  C   UNL     1       1.625   7.410  20.291  0.00  0.00    +0.000 A 
ATOM     18  C   UNL     1       2.319   6.334  19.722  0.00  0.00    +0.000 A 
ATOM     19 BR   UNL     1       2.381   4.701  20.684  0.00  0.00    +0.000 Br
ENDBRANCH  11  12
ENDBRANCH   6  11
TORSDOF 4
ENDMDL
