MODEL 1
REMARK VINA RESULT:      -7.1      0.000      0.000
REMARK  Name = 
REMARK  7 active torsions:
REMARK  status: ('A' for Active; 'I' for Inactive)
REMARK    1  A    between atoms: C_1  and  C_2
REMARK    2  A    between atoms: C_2  and  C_11
REMARK    3  A    between atoms: N_3  and  C_4
REMARK    4  A    between atoms: C_9  and  N_10
REMARK    5  A    between atoms: C_12  and  C_13
REMARK    6  A    between atoms: N_17  and  O_18
REMARK    7  A    between atoms: C_19  and  O_20
REMARK                            x       y       z     vdW  Elec       q    Type
REMARK                         _______ _______ _______ _____ _____    ______ ____
ROOT
ATOM      1  C   UNL     1       2.420   5.047  17.784  0.00  0.00    +0.000 C 
ATOM      2  C   UNL     1       3.084   6.361  18.134  0.00  0.00    +0.000 C 
ATOM      3  N   UNL     1       4.271   6.749  17.759  0.00  0.00    +0.000 NA
ENDROOT
BRANCH   2   4
ATOM      4  C   UNL     1       2.282   7.315  18.992  0.00  0.00    +0.000 A 
ATOM      5  C   UNL     1       1.797   6.973  20.348  0.00  0.00    +0.000 A 
ATOM      6  C   UNL     1       1.951   5.600  20.938  0.00  0.00    +0.000 C 
ATOM      7  C   UNL     1       1.159   7.897  21.098  0.00  0.00    +0.000 A 
ATOM      8  C   UNL     1       0.882   9.254  20.563  0.00  0.00    +0.000 A 
ATOM      9  O   UNL     1       0.345  10.116  21.242  0.00  0.00    +0.000 OA
ATOM     10  N   UNL     1       1.281   9.437  19.263  0.00  0.00    +0.000 N 
ATOM     11  C   UNL     1       1.972   8.533  18.498  0.00  0.00    +0.000 A 
BRANCH  10  12
ATOM     12  O   UNL     1       1.062  10.705  18.678  0.00  0.00    +0.000 OA
ATOM     13  H   UNL     1       1.193  10.499  17.726  0.00  0.00    +0.000 HD
ENDBRANCH  10  12
BRANCH  11  14
ATOM     14  O   UNL     1       2.308   8.984  17.251  0.00  0.00    +0.000 OA
ATOM     15  H   UNL     1       2.555   8.151  16.793  0.00  0.00    +0.000 HD
ENDBRANCH  11  14
ENDBRANCH   2   4
BRANCH   3  16
ATOM     16  C   UNL     1       5.273   5.980  17.129  0.00  0.00    +0.000 A 
ATOM     17  C   UNL     1       5.207   5.973  15.722  0.00  0.00    +0.000 A 
ATOM     18  C   UNL     1       6.097   5.236  14.936  0.00  0.00    +0.000 A 
ATOM     19  C   UNL     1       7.114   4.515  15.547  0.00  0.00    +0.000 A 
ATOM     20  C   UNL     1       7.187   4.484  16.938  0.00  0.00    +0.000 A 
ATOM     21  C   UNL     1       6.227   5.135  17.735  0.00  0.00    +0.000 A 
BRANCH  21  22
ATOM     22  N   UNL     1       6.330   4.952  19.129  0.00  0.00    +0.000 N 
ATOM     23  H   UNL     1       5.441   5.128  19.590  0.00  0.00    +0.000 HD
ATOM     24  H   UNL     1       6.690   4.025  19.339  0.00  0.00    +0.000 HD
ENDBRANCH  21  22
ENDBRANCH   3  16
TORSDOF 5
ENDMDL
MODEL 2
REMARK VINA RESULT:      -7.1      4.279      4.851
REMARK  Name = 
REMARK  7 active torsions:
REMARK  status: ('A' for Active; 'I' for Inactive)
REMARK    1  A    between atoms: C_1  and  C_2
REMARK    2  A    between atoms: C_2  and  C_11
REMARK    3  A    between atoms: N_3  and  C_4
REMARK    4  A    between atoms: C_9  and  N_10
REMARK    5  A    between atoms: C_12  and  C_13
REMARK    6  A    between atoms: N_17  and  O_18
REMARK    7  A    between atoms: C_19  and  O_20
REMARK                            x       y       z     vdW  Elec       q    Type
REMARK                         _______ _______ _______ _____ _____    ______ ____
ROOT
ATOM      1  C   UNL     1       4.333   6.190  16.993  0.00  0.00    +0.000 C 
ATOM      2  C   UNL     1       4.396   4.685  17.143  0.00  0.00    +0.000 C 
ATOM      3  N   UNL     1       5.092   3.865  16.408  0.00  0.00    +0.000 NA
ENDROOT
BRANCH   2   4
ATOM      4  C   UNL     1       3.577   4.084  18.266  0.00  0.00    +0.000 A 
ATOM      5  C   UNL     1       2.102   4.188  18.339  0.00  0.00    +0.000 A 
ATOM      6  C   UNL     1       1.303   5.011  17.371  0.00  0.00    +0.000 C 
ATOM      7  C   UNL     1       1.422   3.558  19.321  0.00  0.00    +0.000 A 
ATOM      8  C   UNL     1       2.137   2.796  20.375  0.00  0.00    +0.000 A 
ATOM      9  O   UNL     1       1.535   2.183  21.245  0.00  0.00    +0.000 OA
ATOM     10  N   UNL     1       3.504   2.845  20.276  0.00  0.00    +0.000 N 
ATOM     11  C   UNL     1       4.216   3.436  19.263  0.00  0.00    +0.000 A 
BRANCH  10  12
ATOM     12  O   UNL     1       4.262   2.138  21.236  0.00  0.00    +0.000 OA
ATOM     13  H   UNL     1       3.899   1.231  21.134  0.00  0.00    +0.000 HD
ENDBRANCH  10  12
BRANCH  11  14
ATOM     14  O   UNL     1       5.573   3.290  19.364  0.00  0.00    +0.000 OA
ATOM     15  H   UNL     1       5.680   2.318  19.270  0.00  0.00    +0.000 HD
ENDBRANCH  11  14
ENDBRANCH   2   4
BRANCH   3  16
ATOM     16  C   UNL     1       5.772   4.150  15.204  0.00  0.00    +0.000 A 
ATOM     17  C   UNL     1       5.290   3.449  14.081  0.00  0.00    +0.000 A 
ATOM     18  C   UNL     1       5.866   3.580  12.814  0.00  0.00    +0.000 A 
ATOM     19  C   UNL     1       6.925   4.459  12.632  0.00  0.00    +0.000 A 
ATOM     20  C   UNL     1       7.438   5.145  13.730  0.00  0.00    +0.000 A 
ATOM     21  C   UNL     1       6.932   4.933  15.026  0.00  0.00    +0.000 A 
BRANCH  21  22
ATOM     22  N   UNL     1       7.593   5.595  16.081  0.00  0.00    +0.000 N 
ATOM     23  H   UNL     1       6.936   5.887  16.801  0.00  0.00    +0.000 HD
ATOM     24  H   UNL     1       8.334   5.011  16.458  0.00  0.00    +0.000 HD
ENDBRANCH  21  22
ENDBRANCH   3  16
TORSDOF 5
ENDMDL
MODEL 3
REMARK VINA RESULT:      -6.8      4.003      4.614
REMARK  Name = 
REMARK  7 active torsions:
REMARK  status: ('A' for Active; 'I' for Inactive)
REMARK    1  A    between atoms: C_1  and  C_2
REMARK    2  A    between atoms: C_2  and  C_11
REMARK    3  A    between atoms: N_3  and  C_4
REMARK    4  A    between atoms: C_9  and  N_10
REMARK    5  A    between atoms: C_12  and  C_13
REMARK    6  A    between atoms: N_17  and  O_18
REMARK    7  A    between atoms: C_19  and  O_20
REMARK                            x       y       z     vdW  Elec       q    Type
REMARK                         _______ _______ _______ _____ _____    ______ ____
ROOT
ATOM      1  C   UNL     1       4.701   6.396  16.268  0.00  0.00    +0.000 C 
ATOM      2  C   UNL     1       4.702   4.905  16.529  0.00  0.00    +0.000 C 
ATOM      3  N   UNL     1       5.319   3.999  15.824  0.00  0.00    +0.000 NA
ENDROOT
BRANCH   2   4
ATOM      4  C   UNL     1       3.920   4.431  17.735  0.00  0.00    +0.000 A 
ATOM      5  C   UNL     1       4.365   4.655  19.129  0.00  0.00    +0.000 A 
ATOM      6  C   UNL     1       5.697   5.262  19.463  0.00  0.00    +0.000 C 
ATOM      7  C   UNL     1       3.581   4.282  20.163  0.00  0.00    +0.000 A 
ATOM      8  C   UNL     1       2.288   3.592  19.930  0.00  0.00    +0.000 A 
ATOM      9  O   UNL     1       1.546   3.287  20.852  0.00  0.00    +0.000 OA
ATOM     10  N   UNL     1       2.015   3.340  18.609  0.00  0.00    +0.000 N 
ATOM     11  C   UNL     1       2.770   3.751  17.540  0.00  0.00    +0.000 A 
BRANCH  10  12
ATOM     12  O   UNL     1       0.798   2.694  18.297  0.00  0.00    +0.000 OA
ATOM     13  H   UNL     1       0.868   2.619  17.320  0.00  0.00    +0.000 HD
ENDBRANCH  10  12
BRANCH  11  14
ATOM     14  O   UNL     1       2.246   3.427  16.318  0.00  0.00    +0.000 OA
ATOM     15  H   UNL     1       1.292   3.623  16.447  0.00  0.00    +0.000 HD
ENDBRANCH  11  14
ENDBRANCH   2   4
BRANCH   3  16
ATOM     16  C   UNL     1       5.943   4.159  14.568  0.00  0.00    +0.000 A 
ATOM     17  C   UNL     1       5.396   3.369  13.538  0.00  0.00    +0.000 A 
ATOM     18  C   UNL     1       5.912   3.373  12.239  0.00  0.00    +0.000 A 
ATOM     19  C   UNL     1       6.974   4.210  11.927  0.00  0.00    +0.000 A 
ATOM     20  C   UNL     1       7.551   4.982  12.932  0.00  0.00    +0.000 A 
ATOM     21  C   UNL     1       7.106   4.899  14.265  0.00  0.00    +0.000 A 
BRANCH  21  22
ATOM     22  N   UNL     1       7.828   5.641  15.223  0.00  0.00    +0.000 N 
ATOM     23  H   UNL     1       8.273   6.451  14.800  0.00  0.00    +0.000 HD
ATOM     24  H   UNL     1       7.226   5.899  15.999  0.00  0.00    +0.000 HD
ENDBRANCH  21  22
ENDBRANCH   3  16
TORSDOF 5
ENDMDL
MODEL 4
REMARK VINA RESULT:      -6.6      0.848      1.586
REMARK  Name = 
REMARK  7 active torsions:
REMARK  status: ('A' for Active; 'I' for Inactive)
REMARK    1  A    between atoms: C_1  and  C_2
REMARK    2  A    between atoms: C_2  and  C_11
REMARK    3  A    between atoms: N_3  and  C_4
REMARK    4  A    between atoms: C_9  and  N_10
REMARK    5  A    between atoms: C_12  and  C_13
REMARK    6  A    between atoms: N_17  and  O_18
REMARK    7  A    between atoms: C_19  and  O_20
REMARK                            x       y       z     vdW  Elec       q    Type
REMARK                         _______ _______ _______ _____ _____    ______ ____
ROOT
ATOM      1  C   UNL     1       2.431   5.271  17.865  0.00  0.00    +0.000 C 
ATOM      2  C   UNL     1       3.076   6.583  18.255  0.00  0.00    +0.000 C 
ATOM      3  N   UNL     1       4.301   6.947  17.999  0.00  0.00    +0.000 NA
ENDROOT
BRANCH   2   4
ATOM      4  C   UNL     1       2.205   7.568  19.004  0.00  0.00    +0.000 A 
ATOM      5  C   UNL     1       1.653   7.300  20.352  0.00  0.00    +0.000 A 
ATOM      6  C   UNL     1       1.807   5.973  21.037  0.00  0.00    +0.000 C 
ATOM      7  C   UNL     1       0.952   8.252  21.003  0.00  0.00    +0.000 A 
ATOM      8  C   UNL     1       0.672   9.563  20.366  0.00  0.00    +0.000 A 
ATOM      9  O   UNL     1       0.077  10.452  20.957  0.00  0.00    +0.000 OA
ATOM     10  N   UNL     1       1.138   9.674  19.081  0.00  0.00    +0.000 N 
ATOM     11  C   UNL     1       1.893   8.742  18.415  0.00  0.00    +0.000 A 
BRANCH  10  12
ATOM     12  O   UNL     1       0.922  10.895  18.402  0.00  0.00    +0.000 OA
ATOM     13  H   UNL     1      -0.005  11.094  18.661  0.00  0.00    +0.000 HD
ENDBRANCH  10  12
BRANCH  11  14
ATOM     14  O   UNL     1       2.287   9.122  17.161  0.00  0.00    +0.000 OA
ATOM     15  H   UNL     1       1.645   8.643  16.592  0.00  0.00    +0.000 HD
ENDBRANCH  11  14
ENDBRANCH   2   4
BRANCH   3  16
ATOM     16  C   UNL     1       5.352   6.149  17.494  0.00  0.00    +0.000 A 
ATOM     17  C   UNL     1       6.125   5.507  18.481  0.00  0.00    +0.000 A 
ATOM     18  C   UNL     1       7.226   4.707  18.164  0.00  0.00    +0.000 A 
ATOM     19  C   UNL     1       7.557   4.495  16.833  0.00  0.00    +0.000 A 
ATOM     20  C   UNL     1       6.826   5.138  15.837  0.00  0.00    +0.000 A 
ATOM     21  C   UNL     1       5.785   6.031  16.157  0.00  0.00    +0.000 A 
BRANCH  21  22
ATOM     22  N   UNL     1       5.181   6.712  15.079  0.00  0.00    +0.000 N 
ATOM     23  H   UNL     1       4.808   6.058  14.395  0.00  0.00    +0.000 HD
ATOM     24  H   UNL     1       4.470   7.353  15.419  0.00  0.00    +0.000 HD
ENDBRANCH  21  22
ENDBRANCH   3  16
TORSDOF 5
ENDMDL
MODEL 5
REMARK VINA RESULT:      -6.5      3.543      4.466
REMARK  Name = 
REMARK  7 active torsions:
REMARK  status: ('A' for Active; 'I' for Inactive)
REMARK    1  A    between atoms: C_1  and  C_2
REMARK    2  A    between atoms: C_2  and  C_11
REMARK    3  A    between atoms: N_3  and  C_4
REMARK    4  A    between atoms: C_9  and  N_10
REMARK    5  A    between atoms: C_12  and  C_13
REMARK    6  A    between atoms: N_17  and  O_18
REMARK    7  A    between atoms: C_19  and  O_20
REMARK                            x       y       z     vdW  Elec       q    Type
REMARK                         _______ _______ _______ _____ _____    ______ ____
ROOT
ATOM      1  C   UNL     1       5.039   6.749  16.781  0.00  0.00    +0.000 C 
ATOM      2  C   UNL     1       4.733   5.283  16.996  0.00  0.00    +0.000 C 
ATOM      3  N   UNL     1       5.141   4.292  16.254  0.00  0.00    +0.000 NA
ENDROOT
BRANCH   2   4
ATOM      4  C   UNL     1       3.881   4.940  18.200  0.00  0.00    +0.000 A 
ATOM      5  C   UNL     1       2.677   5.711  18.587  0.00  0.00    +0.000 A 
ATOM      6  C   UNL     1       2.272   6.977  17.890  0.00  0.00    +0.000 C 
ATOM      7  C   UNL     1       1.911   5.305  19.621  0.00  0.00    +0.000 A 
ATOM      8  C   UNL     1       2.284   4.114  20.426  0.00  0.00    +0.000 A 
ATOM      9  O   UNL     1       1.579   3.707  21.337  0.00  0.00    +0.000 OA
ATOM     10  N   UNL     1       3.468   3.531  20.051  0.00  0.00    +0.000 N 
ATOM     11  C   UNL     1       4.238   3.894  18.975  0.00  0.00    +0.000 A 
BRANCH  10  12
ATOM     12  O   UNL     1       3.894   2.385  20.760  0.00  0.00    +0.000 OA
ATOM     13  H   UNL     1       4.289   2.794  21.561  0.00  0.00    +0.000 HD
ENDBRANCH  10  12
BRANCH  11  14
ATOM     14  O   UNL     1       5.343   3.111  18.778  0.00  0.00    +0.000 OA
ATOM     15  H   UNL     1       5.750   3.105  19.673  0.00  0.00    +0.000 HD
ENDBRANCH  11  14
ENDBRANCH   2   4
BRANCH   3  16
ATOM     16  C   UNL     1       5.773   4.361  14.993  0.00  0.00    +0.000 A 
ATOM     17  C   UNL     1       5.150   3.600  13.984  0.00  0.00    +0.000 A 
ATOM     18  C   UNL     1       5.659   3.523  12.685  0.00  0.00    +0.000 A 
ATOM     19  C   UNL     1       6.794   4.249  12.351  0.00  0.00    +0.000 A 
ATOM     20  C   UNL     1       7.445   4.989  13.335  0.00  0.00    +0.000 A 
ATOM     21  C   UNL     1       6.998   4.982  14.670  0.00  0.00    +0.000 A 
BRANCH  21  22
ATOM     22  N   UNL     1       7.790   5.677  15.607  0.00  0.00    +0.000 N 
ATOM     23  H   UNL     1       7.290   5.809  16.483  0.00  0.00    +0.000 HD
ATOM     24  H   UNL     1       8.677   5.202  15.743  0.00  0.00    +0.000 HD
ENDBRANCH  21  22
ENDBRANCH   3  16
TORSDOF 5
ENDMDL
MODEL 6
REMARK VINA RESULT:      -6.5      3.663      4.877
REMARK  Name = 
REMARK  7 active torsions:
REMARK  status: ('A' for Active; 'I' for Inactive)
REMARK    1  A    between atoms: C_1  and  C_2
REMARK    2  A    between atoms: C_2  and  C_11
REMARK    3  A    between atoms: N_3  and  C_4
REMARK    4  A    between atoms: C_9  and  N_10
REMARK    5  A    between atoms: C_12  and  C_13
REMARK    6  A    between atoms: N_17  and  O_18
REMARK    7  A    between atoms: C_19  and  O_20
REMARK                            x       y       z     vdW  Elec       q    Type
REMARK                         _______ _______ _______ _____ _____    ______ ____
ROOT
ATOM      1  C   UNL     1       6.519   4.229  17.334  0.00  0.00    +0.000 C 
ATOM      2  C   UNL     1       5.155   4.142  16.686  0.00  0.00    +0.000 C 
ATOM      3  N   UNL     1       4.911   4.073  15.408  0.00  0.00    +0.000 NA
ENDROOT
BRANCH   2   4
ATOM      4  C   UNL     1       3.964   4.119  17.620  0.00  0.00    +0.000 A 
ATOM      5  C   UNL     1       3.289   5.345  18.103  0.00  0.00    +0.000 A 
ATOM      6  C   UNL     1       3.809   6.722  17.807  0.00  0.00    +0.000 C 
ATOM      7  C   UNL     1       2.179   5.257  18.866  0.00  0.00    +0.000 A 
ATOM      8  C   UNL     1       1.644   3.937  19.284  0.00  0.00    +0.000 A 
ATOM      9  O   UNL     1       0.616   3.837  19.938  0.00  0.00    +0.000 OA
ATOM     10  N   UNL     1       2.398   2.868  18.870  0.00  0.00    +0.000 N 
ATOM     11  C   UNL     1       3.499   2.928  18.055  0.00  0.00    +0.000 A 
BRANCH  10  12
ATOM     12  O   UNL     1       1.954   1.572  19.218  0.00  0.00    +0.000 OA
ATOM     13  H   UNL     1       2.631   1.311  19.880  0.00  0.00    +0.000 HD
ENDBRANCH  10  12
BRANCH  11  14
ATOM     14  O   UNL     1       4.036   1.710  17.736  0.00  0.00    +0.000 OA
ATOM     15  H   UNL     1       4.521   1.481  18.560  0.00  0.00    +0.000 HD
ENDBRANCH  11  14
ENDBRANCH   2   4
BRANCH   3  16
ATOM     16  C   UNL     1       5.819   4.267  14.344  0.00  0.00    +0.000 A 
ATOM     17  C   UNL     1       5.584   3.452  13.219  0.00  0.00    +0.000 A 
ATOM     18  C   UNL     1       6.405   3.485  12.088  0.00  0.00    +0.000 A 
ATOM     19  C   UNL     1       7.468   4.376  12.040  0.00  0.00    +0.000 A 
ATOM     20  C   UNL     1       7.738   5.176  13.148  0.00  0.00    +0.000 A 
ATOM     21  C   UNL     1       6.981   5.067  14.329  0.00  0.00    +0.000 A 
BRANCH  21  22
ATOM     22  N   UNL     1       7.405   5.844  15.428  0.00  0.00    +0.000 N 
ATOM     23  H   UNL     1       6.635   6.026  16.068  0.00  0.00    +0.000 HD
ATOM     24  H   UNL     1       8.190   5.400  15.894  0.00  0.00    +0.000 HD
ENDBRANCH  21  22
ENDBRANCH   3  16
TORSDOF 5
ENDMDL
MODEL 7
REMARK VINA RESULT:      -6.4      4.323      6.924
REMARK  Name = 
REMARK  7 active torsions:
REMARK  status: ('A' for Active; 'I' for Inactive)
REMARK    1  A    between atoms: C_1  and  C_2
REMARK    2  A    between atoms: C_2  and  C_11
REMARK    3  A    between atoms: N_3  and  C_4
REMARK    4  A    between atoms: C_9  and  N_10
REMARK    5  A    between atoms: C_12  and  C_13
REMARK    6  A    between atoms: N_17  and  O_18
REMARK    7  A    between atoms: C_19  and  O_20
REMARK                            x       y       z     vdW  Elec       q    Type
REMARK                         _______ _______ _______ _____ _____    ______ ____
ROOT
ATOM      1  C   UNL     1       6.266   5.103  19.450  0.00  0.00    +0.000 C 
ATOM      2  C   UNL     1       5.403   4.745  18.259  0.00  0.00    +0.000 C 
ATOM      3  N   UNL     1       4.186   4.280  18.301  0.00  0.00    +0.000 NA
ENDROOT
BRANCH   2   4
ATOM      4  C   UNL     1       6.014   4.964  16.892  0.00  0.00    +0.000 A 
ATOM      5  C   UNL     1       6.753   6.192  16.521  0.00  0.00    +0.000 A 
ATOM      6  C   UNL     1       6.849   7.381  17.432  0.00  0.00    +0.000 C 
ATOM      7  C   UNL     1       7.348   6.291  15.313  0.00  0.00    +0.000 A 
ATOM      8  C   UNL     1       7.230   5.201  14.313  0.00  0.00    +0.000 A 
ATOM      9  O   UNL     1       7.798   5.255  13.232  0.00  0.00    +0.000 OA
ATOM     10  N   UNL     1       6.441   4.153  14.714  0.00  0.00    +0.000 N 
ATOM     11  C   UNL     1       5.867   4.006  15.952  0.00  0.00    +0.000 A 
BRANCH  10  12
ATOM     12  O   UNL     1       6.283   3.066  13.825  0.00  0.00    +0.000 OA
ATOM     13  H   UNL     1       5.337   3.162  13.575  0.00  0.00    +0.000 HD
ENDBRANCH  10  12
BRANCH  11  14
ATOM     14  O   UNL     1       5.179   2.836  16.122  0.00  0.00    +0.000 OA
ATOM     15  H   UNL     1       4.940   2.877  17.074  0.00  0.00    +0.000 HD
ENDBRANCH  11  14
ENDBRANCH   2   4
BRANCH   3  16
ATOM     16  C   UNL     1       3.477   3.817  19.430  0.00  0.00    +0.000 A 
ATOM     17  C   UNL     1       2.435   4.665  19.855  0.00  0.00    +0.000 A 
ATOM     18  C   UNL     1       1.651   4.382  20.977  0.00  0.00    +0.000 A 
ATOM     19  C   UNL     1       1.867   3.206  21.683  0.00  0.00    +0.000 A 
ATOM     20  C   UNL     1       2.907   2.361  21.300  0.00  0.00    +0.000 A 
ATOM     21  C   UNL     1       3.768   2.697  20.238  0.00  0.00    +0.000 A 
BRANCH  21  22
ATOM     22  N   UNL     1       4.852   1.828  20.002  0.00  0.00    +0.000 N 
ATOM     23  H   UNL     1       5.293   2.025  19.107  0.00  0.00    +0.000 HD
ATOM     24  H   UNL     1       5.515   1.871  20.770  0.00  0.00    +0.000 HD
ENDBRANCH  21  22
ENDBRANCH   3  16
TORSDOF 5
ENDMDL
MODEL 8
REMARK VINA RESULT:      -6.3      2.667      6.256
REMARK  Name = 
REMARK  7 active torsions:
REMARK  status: ('A' for Active; 'I' for Inactive)
REMARK    1  A    between atoms: C_1  and  C_2
REMARK    2  A    between atoms: C_2  and  C_11
REMARK    3  A    between atoms: N_3  and  C_4
REMARK    4  A    between atoms: C_9  and  N_10
REMARK    5  A    between atoms: C_12  and  C_13
REMARK    6  A    between atoms: N_17  and  O_18
REMARK    7  A    between atoms: C_19  and  O_20
REMARK                            x       y       z     vdW  Elec       q    Type
REMARK                         _______ _______ _______ _____ _____    ______ ____
ROOT
ATOM      1  C   UNL     1       1.913   5.542  17.871  0.00  0.00    +0.000 C 
ATOM      2  C   UNL     1       3.092   6.343  18.382  0.00  0.00    +0.000 C 
ATOM      3  N   UNL     1       3.035   7.485  19.007  0.00  0.00    +0.000 NA
ENDROOT
BRANCH   2   4
ATOM      4  C   UNL     1       4.464   5.746  18.153  0.00  0.00    +0.000 A 
ATOM      5  C   UNL     1       4.886   4.444  18.718  0.00  0.00    +0.000 A 
ATOM      6  C   UNL     1       4.030   3.664  19.673  0.00  0.00    +0.000 C 
ATOM      7  C   UNL     1       6.093   3.926  18.408  0.00  0.00    +0.000 A 
ATOM      8  C   UNL     1       7.043   4.670  17.544  0.00  0.00    +0.000 A 
ATOM      9  O   UNL     1       8.122   4.197  17.217  0.00  0.00    +0.000 OA
ATOM     10  N   UNL     1       6.599   5.908  17.156  0.00  0.00    +0.000 N 
ATOM     11  C   UNL     1       5.360   6.436  17.416  0.00  0.00    +0.000 A 
BRANCH  10  12
ATOM     12  O   UNL     1       7.439   6.681  16.322  0.00  0.00    +0.000 OA
ATOM     13  H   UNL     1       8.276   6.672  16.837  0.00  0.00    +0.000 HD
ENDBRANCH  10  12
BRANCH  11  14
ATOM     14  O   UNL     1       5.140   7.668  16.862  0.00  0.00    +0.000 OA
ATOM     15  H   UNL     1       4.225   7.576  16.517  0.00  0.00    +0.000 HD
ENDBRANCH  11  14
ENDBRANCH   2   4
BRANCH   3  16
ATOM     16  C   UNL     1       1.913   8.326  19.170  0.00  0.00    +0.000 A 
ATOM     17  C   UNL     1       1.505   8.991  17.997  0.00  0.00    +0.000 A 
ATOM     18  C   UNL     1       0.434   9.890  17.980  0.00  0.00    +0.000 A 
ATOM     19  C   UNL     1      -0.288  10.114  19.144  0.00  0.00    +0.000 A 
ATOM     20  C   UNL     1       0.109   9.490  20.325  0.00  0.00    +0.000 A 
ATOM     21  C   UNL     1       1.253   8.670  20.369  0.00  0.00    +0.000 A 
BRANCH  21  22
ATOM     22  N   UNL     1       1.629   8.174  21.634  0.00  0.00    +0.000 N 
ATOM     23  H   UNL     1       1.726   8.928  22.310  0.00  0.00    +0.000 HD
ATOM     24  H   UNL     1       0.973   7.465  21.947  0.00  0.00    +0.000 HD
ENDBRANCH  21  22
ENDBRANCH   3  16
TORSDOF 5
ENDMDL
MODEL 9
REMARK VINA RESULT:      -6.2      5.884      7.893
REMARK  Name = 
REMARK  7 active torsions:
REMARK  status: ('A' for Active; 'I' for Inactive)
REMARK    1  A    between atoms: C_1  and  C_2
REMARK    2  A    between atoms: C_2  and  C_11
REMARK    3  A    between atoms: N_3  and  C_4
REMARK    4  A    between atoms: C_9  and  N_10
REMARK    5  A    between atoms: C_12  and  C_13
REMARK    6  A    between atoms: N_17  and  O_18
REMARK    7  A    between atoms: C_19  and  O_20
REMARK                            x       y       z     vdW  Elec       q    Type
REMARK                         _______ _______ _______ _____ _____    ______ ____
ROOT
ATOM      1  C   UNL     1      -0.583  12.344  18.640  0.00  0.00    +0.000 C 
ATOM      2  C   UNL     1      -1.126  11.056  19.220  0.00  0.00    +0.000 C 
ATOM      3  N   UNL     1      -1.955  10.237  18.637  0.00  0.00    +0.000 NA
ENDROOT
BRANCH   2   4
ATOM      4  C   UNL     1      -0.644  10.684  20.606  0.00  0.00    +0.000 A 
ATOM      5  C   UNL     1      -1.208  11.268  21.844  0.00  0.00    +0.000 A 
ATOM      6  C   UNL     1      -2.220  12.376  21.825  0.00  0.00    +0.000 C 
ATOM      7  C   UNL     1      -0.794  10.832  23.053  0.00  0.00    +0.000 A 
ATOM      8  C   UNL     1       0.269   9.803  23.170  0.00  0.00    +0.000 A 
ATOM      9  O   UNL     1       0.624   9.365  24.255  0.00  0.00    +0.000 OA
ATOM     10  N   UNL     1       0.796   9.401  21.970  0.00  0.00    +0.000 N 
ATOM     11  C   UNL     1       0.361   9.791  20.729  0.00  0.00    +0.000 A 
BRANCH  10  12
ATOM     12  O   UNL     1       1.808   8.415  21.990  0.00  0.00    +0.000 OA
ATOM     13  H   UNL     1       1.569   7.914  22.801  0.00  0.00    +0.000 HD
ENDBRANCH  10  12
BRANCH  11  14
ATOM     14  O   UNL     1       1.015   9.194  19.685  0.00  0.00    +0.000 OA
ATOM     15  H   UNL     1       1.546   9.939  19.326  0.00  0.00    +0.000 HD
ENDBRANCH  11  14
ENDBRANCH   2   4
BRANCH   3  16
ATOM     16  C   UNL     1      -2.686  10.449  17.448  0.00  0.00    +0.000 A 
ATOM     17  C   UNL     1      -2.165   9.793  16.316  0.00  0.00    +0.000 A 
ATOM     18  C   UNL     1      -2.739   9.918  15.048  0.00  0.00    +0.000 A 
ATOM     19  C   UNL     1      -3.889  10.680  14.891  0.00  0.00    +0.000 A 
ATOM     20  C   UNL     1      -4.411  11.361  15.988  0.00  0.00    +0.000 A 
ATOM     21  C   UNL     1      -3.773  11.325  17.242  0.00  0.00    +0.000 A 
BRANCH  21  22
ATOM     22  N   UNL     1      -4.323  12.135  18.257  0.00  0.00    +0.000 N 
ATOM     23  H   UNL     1      -5.301  11.908  18.418  0.00  0.00    +0.000 HD
ATOM     24  H   UNL     1      -3.771  12.063  19.106  0.00  0.00    +0.000 HD
ENDBRANCH  21  22
ENDBRANCH   3  16
TORSDOF 5
ENDMDL
