MODEL 1
REMARK VINA RESULT:      -9.0      0.000      0.000
REMARK  Name = 
REMARK  7 active torsions:
REMARK  status: ('A' for Active; 'I' for Inactive)
REMARK    1  A    between atoms: C_1  and  O_2
REMARK    2  A    between atoms: O_2  and  C_3
REMARK    3  A    between atoms: C_6  and  C_7
REMARK    4  A    between atoms: C_9  and  C_10
REMARK    5  A    between atoms: C_12  and  C_13
REMARK    6  A    between atoms: C_16  and  N_17
REMARK    7  A    between atoms: N_20  and  C_21
REMARK                            x       y       z     vdW  Elec       q    Type
REMARK                         _______ _______ _______ _____ _____    ______ ____
ROOT
ATOM      1  C   UNL     1       2.385   6.969  19.314  0.00  0.00    +0.000 A 
ATOM      2  C   UNL     1       2.768   7.432  18.049  0.00  0.00    +0.000 A 
ATOM      3  C   UNL     1       2.423   8.717  17.616  0.00  0.00    +0.000 A 
ATOM      4  C   UNL     1       1.657   9.560  18.422  0.00  0.00    +0.000 A 
ATOM      5  C   UNL     1       1.311   9.134  19.703  0.00  0.00    +0.000 A 
ATOM      6  C   UNL     1       1.690   7.861  20.146  0.00  0.00    +0.000 A 
ENDROOT
BRANCH   1  12
ATOM      7  C   UNL     1       3.624   4.653  19.356  0.00  0.00    +0.000 A 
ATOM      8  N   UNL     1       3.511   3.398  19.949  0.00  0.00    +0.000 NA
ATOM      9  C   UNL     1       2.526   3.393  20.816  0.00  0.00    +0.000 A 
ATOM     10  C   UNL     1       2.133   2.216  21.638  0.00  0.00    +0.000 C 
ATOM     11  S   UNL     1       1.667   4.862  20.964  0.00  0.00    +0.000 S 
ATOM     12  C   UNL     1       2.666   5.588  19.752  0.00  0.00    +0.000 A 
BRANCH   7  16
ATOM     13  C   UNL     1       6.590   5.394  16.358  0.00  0.00    +0.000 A 
ATOM     14  C   UNL     1       5.421   4.696  16.052  0.00  0.00    +0.000 A 
ATOM     15  C   UNL     1       4.464   4.446  17.041  0.00  0.00    +0.000 A 
ATOM     16  C   UNL     1       4.672   4.871  18.358  0.00  0.00    +0.000 A 
ATOM     17  C   UNL     1       5.883   5.504  18.671  0.00  0.00    +0.000 A 
ATOM     18  C   UNL     1       6.826   5.787  17.673  0.00  0.00    +0.000 A 
BRANCH  13  20
ATOM     19  C   UNL     1       7.122   4.897  14.105  0.00  0.00    +0.000 C 
ATOM     20  O   UNL     1       7.441   5.592  15.305  0.00  0.00    +0.000 OA
ENDBRANCH  13  20
ENDBRANCH   7  16
ENDBRANCH   1  12
BRANCH   4  21
ATOM     21  N   UNL     1       1.237  10.840  18.007  0.00  0.00    +0.000 N 
ATOM     22  C   UNL     1       1.224  11.963  18.812  0.00  0.00    +0.000 C 
ATOM     23  O   UNL     1       1.738  12.034  19.923  0.00  0.00    +0.000 OA
ATOM     24  N   UNL     1       0.521  12.999  18.217  0.00  0.00    +0.000 N 
ATOM     25  H   UNL     1       1.196  11.017  17.014  0.00  0.00    +0.000 HD
ATOM     26  H   UNL     1      -0.275  12.695  17.671  0.00  0.00    +0.000 HD
BRANCH  24  27
ATOM     27  C   UNL     1       0.358  14.237  18.881  0.00  0.00    +0.000 A 
ATOM     28  C   UNL     1      -0.772  14.517  19.657  0.00  0.00    +0.000 A 
ATOM     29  C   UNL     1      -0.923  15.775  20.239  0.00  0.00    +0.000 A 
ATOM     30  C   UNL     1       0.047  16.751  20.030  0.00  0.00    +0.000 A 
ATOM     31  F   UNL     1      -0.119  17.968  20.560  0.00  0.00    +0.000 F 
ATOM     32  C   UNL     1       1.182  16.483  19.274  0.00  0.00    +0.000 A 
ATOM     33  C   UNL     1       1.340  15.219  18.723  0.00  0.00    +0.000 A 
ATOM     34  F   UNL     1       2.419  14.960  17.970  0.00  0.00    +0.000 F 
ENDBRANCH  24  27
ENDBRANCH   4  21
TORSDOF 5
ENDMDL
MODEL 2
REMARK VINA RESULT:      -8.9      0.850      1.205
REMARK  Name = 
REMARK  7 active torsions:
REMARK  status: ('A' for Active; 'I' for Inactive)
REMARK    1  A    between atoms: C_1  and  O_2
REMARK    2  A    between atoms: O_2  and  C_3
REMARK    3  A    between atoms: C_6  and  C_7
REMARK    4  A    between atoms: C_9  and  C_10
REMARK    5  A    between atoms: C_12  and  C_13
REMARK    6  A    between atoms: C_16  and  N_17
REMARK    7  A    between atoms: N_20  and  C_21
REMARK                            x       y       z     vdW  Elec       q    Type
REMARK                         _______ _______ _______ _____ _____    ______ ____
ROOT
ATOM      1  C   UNL     1       2.397   6.899  19.317  0.00  0.00    +0.000 A 
ATOM      2  C   UNL     1       2.777   7.354  18.047  0.00  0.00    +0.000 A 
ATOM      3  C   UNL     1       2.429   8.635  17.606  0.00  0.00    +0.000 A 
ATOM      4  C   UNL     1       1.664   9.483  18.409  0.00  0.00    +0.000 A 
ATOM      5  C   UNL     1       1.324   9.067  19.694  0.00  0.00    +0.000 A 
ATOM      6  C   UNL     1       1.705   7.797  20.145  0.00  0.00    +0.000 A 
ENDROOT
BRANCH   1  12
ATOM      7  C   UNL     1       3.647   4.589  19.381  0.00  0.00    +0.000 A 
ATOM      8  N   UNL     1       3.535   3.337  19.978  0.00  0.00    +0.000 NA
ATOM      9  C   UNL     1       2.542   3.331  20.837  0.00  0.00    +0.000 A 
ATOM     10  C   UNL     1       2.147   2.156  21.660  0.00  0.00    +0.000 C 
ATOM     11  S   UNL     1       1.675   4.797  20.970  0.00  0.00    +0.000 S 
ATOM     12  C   UNL     1       2.681   5.521  19.764  0.00  0.00    +0.000 A 
BRANCH   7  16
ATOM     13  C   UNL     1       6.632   5.316  16.397  0.00  0.00    +0.000 A 
ATOM     14  C   UNL     1       5.528   4.507  16.125  0.00  0.00    +0.000 A 
ATOM     15  C   UNL     1       4.565   4.263  17.110  0.00  0.00    +0.000 A 
ATOM     16  C   UNL     1       4.704   4.808  18.392  0.00  0.00    +0.000 A 
ATOM     17  C   UNL     1       5.854   5.557  18.678  0.00  0.00    +0.000 A 
ATOM     18  C   UNL     1       6.799   5.831  17.681  0.00  0.00    +0.000 A 
BRANCH  13  20
ATOM     19  C   UNL     1       7.078   4.958  14.101  0.00  0.00    +0.000 C 
ATOM     20  O   UNL     1       7.494   5.495  15.351  0.00  0.00    +0.000 OA
ENDBRANCH  13  20
ENDBRANCH   7  16
ENDBRANCH   1  12
BRANCH   4  21
ATOM     21  N   UNL     1       1.243  10.760  17.986  0.00  0.00    +0.000 N 
ATOM     22  C   UNL     1       1.237  11.890  18.782  0.00  0.00    +0.000 C 
ATOM     23  O   UNL     1       1.760  11.971  19.887  0.00  0.00    +0.000 OA
ATOM     24  N   UNL     1       0.530  12.921  18.183  0.00  0.00    +0.000 N 
ATOM     25  H   UNL     1       1.194  10.928  16.992  0.00  0.00    +0.000 HD
ATOM     26  H   UNL     1      -0.271  12.613  17.646  0.00  0.00    +0.000 HD
BRANCH  24  27
ATOM     27  C   UNL     1       0.374  14.165  18.838  0.00  0.00    +0.000 A 
ATOM     28  C   UNL     1       1.330  15.182  18.733  0.00  0.00    +0.000 A 
ATOM     29  C   UNL     1       1.167  16.367  19.450  0.00  0.00    +0.000 A 
ATOM     30  C   UNL     1       0.060  16.523  20.279  0.00  0.00    +0.000 A 
ATOM     31  F   UNL     1      -0.074  17.647  20.993  0.00  0.00    +0.000 F 
ATOM     32  C   UNL     1      -0.904  15.528  20.383  0.00  0.00    +0.000 A 
ATOM     33  C   UNL     1      -0.751  14.364  19.642  0.00  0.00    +0.000 A 
ATOM     34  F   UNL     1      -1.663  13.388  19.756  0.00  0.00    +0.000 F 
ENDBRANCH  24  27
ENDBRANCH   4  21
TORSDOF 5
ENDMDL
MODEL 3
REMARK VINA RESULT:      -8.6      0.294      1.234
REMARK  Name = 
REMARK  7 active torsions:
REMARK  status: ('A' for Active; 'I' for Inactive)
REMARK    1  A    between atoms: C_1  and  O_2
REMARK    2  A    between atoms: O_2  and  C_3
REMARK    3  A    between atoms: C_6  and  C_7
REMARK    4  A    between atoms: C_9  and  C_10
REMARK    5  A    between atoms: C_12  and  C_13
REMARK    6  A    between atoms: C_16  and  N_17
REMARK    7  A    between atoms: N_20  and  C_21
REMARK                            x       y       z     vdW  Elec       q    Type
REMARK                         _______ _______ _______ _____ _____    ______ ____
ROOT
ATOM      1  C   UNL     1       2.342   6.877  19.218  0.00  0.00    +0.000 A 
ATOM      2  C   UNL     1       1.674   7.773  20.063  0.00  0.00    +0.000 A 
ATOM      3  C   UNL     1       1.397   9.081  19.652  0.00  0.00    +0.000 A 
ATOM      4  C   UNL     1       1.809   9.538  18.400  0.00  0.00    +0.000 A 
ATOM      5  C   UNL     1       2.427   8.645  17.528  0.00  0.00    +0.000 A 
ATOM      6  C   UNL     1       2.671   7.326  17.930  0.00  0.00    +0.000 A 
ENDROOT
BRANCH   1  12
ATOM      7  C   UNL     1       3.673   4.612  19.210  0.00  0.00    +0.000 A 
ATOM      8  N   UNL     1       3.668   3.374  19.848  0.00  0.00    +0.000 NA
ATOM      9  C   UNL     1       2.771   3.360  20.805  0.00  0.00    +0.000 A 
ATOM     10  C   UNL     1       2.505   2.197  21.695  0.00  0.00    +0.000 C 
ATOM     11  S   UNL     1       1.869   4.800  20.990  0.00  0.00    +0.000 S 
ATOM     12  C   UNL     1       2.719   5.522  19.668  0.00  0.00    +0.000 A 
BRANCH   7  16
ATOM     13  C   UNL     1       6.538   5.188  16.079  0.00  0.00    +0.000 A 
ATOM     14  C   UNL     1       6.698   5.806  17.321  0.00  0.00    +0.000 A 
ATOM     15  C   UNL     1       5.750   5.624  18.333  0.00  0.00    +0.000 A 
ATOM     16  C   UNL     1       4.613   4.837  18.111  0.00  0.00    +0.000 A 
ATOM     17  C   UNL     1       4.424   4.283  16.837  0.00  0.00    +0.000 A 
ATOM     18  C   UNL     1       5.391   4.435  15.835  0.00  0.00    +0.000 A 
BRANCH  13  20
ATOM     19  C   UNL     1       7.281   5.021  13.839  0.00  0.00    +0.000 C 
ATOM     20  O   UNL     1       7.538   5.427  15.178  0.00  0.00    +0.000 OA
ENDBRANCH  13  20
ENDBRANCH   7  16
ENDBRANCH   1  12
BRANCH   4  21
ATOM     21  N   UNL     1       1.602  10.863  17.965  0.00  0.00    +0.000 N 
ATOM     22  C   UNL     1       1.417  11.946  18.803  0.00  0.00    +0.000 C 
ATOM     23  O   UNL     1       1.587  11.929  20.017  0.00  0.00    +0.000 OA
ATOM     24  N   UNL     1       0.978  13.056  18.099  0.00  0.00    +0.000 N 
ATOM     25  H   UNL     1       1.863  11.087  17.016  0.00  0.00    +0.000 HD
ATOM     26  H   UNL     1       0.361  12.836  17.327  0.00  0.00    +0.000 HD
BRANCH  24  27
ATOM     27  C   UNL     1       0.698  14.271  18.767  0.00  0.00    +0.000 A 
ATOM     28  C   UNL     1      -0.563  14.543  19.310  0.00  0.00    +0.000 A 
ATOM     29  C   UNL     1      -0.815  15.781  19.900  0.00  0.00    +0.000 A 
ATOM     30  C   UNL     1       0.188  16.746  19.930  0.00  0.00    +0.000 A 
ATOM     31  F   UNL     1      -0.068  17.945  20.465  0.00  0.00    +0.000 F 
ATOM     32  C   UNL     1       1.449  16.486  19.407  0.00  0.00    +0.000 A 
ATOM     33  C   UNL     1       1.701  15.240  18.849  0.00  0.00    +0.000 A 
ATOM     34  F   UNL     1       2.907  14.989  18.317  0.00  0.00    +0.000 F 
ENDBRANCH  24  27
ENDBRANCH   4  21
TORSDOF 5
ENDMDL
MODEL 4
REMARK VINA RESULT:      -8.6      4.629     10.160
REMARK  Name = 
REMARK  7 active torsions:
REMARK  status: ('A' for Active; 'I' for Inactive)
REMARK    1  A    between atoms: C_1  and  O_2
REMARK    2  A    between atoms: O_2  and  C_3
REMARK    3  A    between atoms: C_6  and  C_7
REMARK    4  A    between atoms: C_9  and  C_10
REMARK    5  A    between atoms: C_12  and  C_13
REMARK    6  A    between atoms: C_16  and  N_17
REMARK    7  A    between atoms: N_20  and  C_21
REMARK                            x       y       z     vdW  Elec       q    Type
REMARK                         _______ _______ _______ _____ _____    ______ ____
ROOT
ATOM      1  C   UNL     1      -0.655  10.906  21.201  0.00  0.00    +0.000 A 
ATOM      2  C   UNL     1      -0.046  10.534  19.995  0.00  0.00    +0.000 A 
ATOM      3  C   UNL     1       0.727   9.372  19.906  0.00  0.00    +0.000 A 
ATOM      4  C   UNL     1       0.941   8.569  21.028  0.00  0.00    +0.000 A 
ATOM      5  C   UNL     1       0.302   8.898  22.221  0.00  0.00    +0.000 A 
ATOM      6  C   UNL     1      -0.501  10.043  22.297  0.00  0.00    +0.000 A 
ENDROOT
BRANCH   1  12
ATOM      7  C   UNL     1      -2.346  12.797  20.517  0.00  0.00    +0.000 A 
ATOM      8  N   UNL     1      -2.764  14.054  20.945  0.00  0.00    +0.000 NA
ATOM      9  C   UNL     1      -2.194  14.358  22.087  0.00  0.00    +0.000 A 
ATOM     10  C   UNL     1      -2.424  15.625  22.833  0.00  0.00    +0.000 C 
ATOM     11  S   UNL     1      -1.118  13.184  22.708  0.00  0.00    +0.000 S 
ATOM     12  C   UNL     1      -1.401  12.173  21.333  0.00  0.00    +0.000 A 
BRANCH   7  16
ATOM     13  C   UNL     1      -3.802  11.110  16.860  0.00  0.00    +0.000 A 
ATOM     14  C   UNL     1      -2.466  11.489  16.993  0.00  0.00    +0.000 A 
ATOM     15  C   UNL     1      -2.002  12.052  18.186  0.00  0.00    +0.000 A 
ATOM     16  C   UNL     1      -2.875  12.266  19.259  0.00  0.00    +0.000 A 
ATOM     17  C   UNL     1      -4.230  11.952  19.090  0.00  0.00    +0.000 A 
ATOM     18  C   UNL     1      -4.688  11.354  17.908  0.00  0.00    +0.000 A 
BRANCH  13  20
ATOM     19  C   UNL     1      -3.046  10.264  14.783  0.00  0.00    +0.000 C 
ATOM     20  O   UNL     1      -4.132  10.554  15.655  0.00  0.00    +0.000 OA
ENDBRANCH  13  20
ENDBRANCH   7  16
ENDBRANCH   1  12
BRANCH   4  21
ATOM     21  N   UNL     1       1.758   7.421  21.001  0.00  0.00    +0.000 N 
ATOM     22  C   UNL     1       2.465   6.985  19.896  0.00  0.00    +0.000 C 
ATOM     23  O   UNL     1       2.617   7.627  18.864  0.00  0.00    +0.000 OA
ATOM     24  N   UNL     1       2.956   5.703  20.089  0.00  0.00    +0.000 N 
ATOM     25  H   UNL     1       2.061   7.044  21.887  0.00  0.00    +0.000 HD
ATOM     26  H   UNL     1       2.345   5.106  20.632  0.00  0.00    +0.000 HD
BRANCH  24  27
ATOM     27  C   UNL     1       3.688   5.049  19.071  0.00  0.00    +0.000 A 
ATOM     28  C   UNL     1       5.085   5.110  19.008  0.00  0.00    +0.000 A 
ATOM     29  C   UNL     1       5.761   4.507  17.949  0.00  0.00    +0.000 A 
ATOM     30  C   UNL     1       5.039   3.860  16.950  0.00  0.00    +0.000 A 
ATOM     31  F   UNL     1       5.689   3.313  15.916  0.00  0.00    +0.000 F 
ATOM     32  C   UNL     1       3.653   3.780  17.006  0.00  0.00    +0.000 A 
ATOM     33  C   UNL     1       2.989   4.356  18.079  0.00  0.00    +0.000 A 
ATOM     34  F   UNL     1       1.649   4.307  18.128  0.00  0.00    +0.000 F 
ENDBRANCH  24  27
ENDBRANCH   4  21
TORSDOF 5
ENDMDL
MODEL 5
REMARK VINA RESULT:      -8.6      6.204      7.938
REMARK  Name = 
REMARK  7 active torsions:
REMARK  status: ('A' for Active; 'I' for Inactive)
REMARK    1  A    between atoms: C_1  and  O_2
REMARK    2  A    between atoms: O_2  and  C_3
REMARK    3  A    between atoms: C_6  and  C_7
REMARK    4  A    between atoms: C_9  and  C_10
REMARK    5  A    between atoms: C_12  and  C_13
REMARK    6  A    between atoms: C_16  and  N_17
REMARK    7  A    between atoms: N_20  and  C_21
REMARK                            x       y       z     vdW  Elec       q    Type
REMARK                         _______ _______ _______ _____ _____    ______ ____
ROOT
ATOM      1  C   UNL     1       6.953   6.119  16.791  0.00  0.00    +0.000 A 
ATOM      2  C   UNL     1       7.548   5.630  17.961  0.00  0.00    +0.000 A 
ATOM      3  C   UNL     1       8.163   6.495  18.873  0.00  0.00    +0.000 A 
ATOM      4  C   UNL     1       8.229   7.867  18.623  0.00  0.00    +0.000 A 
ATOM      5  C   UNL     1       7.597   8.375  17.491  0.00  0.00    +0.000 A 
ATOM      6  C   UNL     1       6.951   7.509  16.598  0.00  0.00    +0.000 A 
ENDROOT
BRANCH   1  12
ATOM      7  C   UNL     1       5.266   4.368  15.795  0.00  0.00    +0.000 A 
ATOM      8  N   UNL     1       5.095   3.588  14.655  0.00  0.00    +0.000 NA
ATOM      9  C   UNL     1       6.019   3.871  13.768  0.00  0.00    +0.000 A 
ATOM     10  C   UNL     1       6.128   3.229  12.430  0.00  0.00    +0.000 C 
ATOM     11  S   UNL     1       7.153   5.059  14.240  0.00  0.00    +0.000 S 
ATOM     12  C   UNL     1       6.377   5.213  15.778  0.00  0.00    +0.000 A 
BRANCH   7  16
ATOM     13  C   UNL     1       2.403   3.959  18.953  0.00  0.00    +0.000 A 
ATOM     14  C   UNL     1       2.760   5.217  18.468  0.00  0.00    +0.000 A 
ATOM     15  C   UNL     1       3.707   5.343  17.446  0.00  0.00    +0.000 A 
ATOM     16  C   UNL     1       4.328   4.210  16.908  0.00  0.00    +0.000 A 
ATOM     17  C   UNL     1       4.019   2.956  17.454  0.00  0.00    +0.000 A 
ATOM     18  C   UNL     1       3.044   2.828  18.452  0.00  0.00    +0.000 A 
BRANCH  13  20
ATOM     19  C   UNL     1       1.942   3.925  21.274  0.00  0.00    +0.000 C 
ATOM     20  O   UNL     1       1.454   3.963  19.939  0.00  0.00    +0.000 OA
ENDBRANCH  13  20
ENDBRANCH   7  16
ENDBRANCH   1  12
BRANCH   4  21
ATOM     21  N   UNL     1       8.886   8.769  19.484  0.00  0.00    +0.000 N 
ATOM     22  C   UNL     1       9.229  10.065  19.150  0.00  0.00    +0.000 C 
ATOM     23  O   UNL     1       8.853  10.652  18.143  0.00  0.00    +0.000 OA
ATOM     24  N   UNL     1      10.089  10.614  20.089  0.00  0.00    +0.000 N 
ATOM     25  H   UNL     1       8.872   8.563  20.472  0.00  0.00    +0.000 HD
ATOM     26  H   UNL     1      10.741   9.949  20.488  0.00  0.00    +0.000 HD
BRANCH  24  27
ATOM     27  C   UNL     1      10.591  11.927  19.930  0.00  0.00    +0.000 A 
ATOM     28  C   UNL     1      11.851  12.175  19.374  0.00  0.00    +0.000 A 
ATOM     29  C   UNL     1      12.333  13.481  19.298  0.00  0.00    +0.000 A 
ATOM     30  C   UNL     1      11.562  14.529  19.792  0.00  0.00    +0.000 A 
ATOM     31  F   UNL     1      12.043  15.777  19.750  0.00  0.00    +0.000 F 
ATOM     32  C   UNL     1      10.303  14.300  20.334  0.00  0.00    +0.000 A 
ATOM     33  C   UNL     1       9.817  13.001  20.378  0.00  0.00    +0.000 A 
ATOM     34  F   UNL     1       8.614  12.766  20.923  0.00  0.00    +0.000 F 
ENDBRANCH  24  27
ENDBRANCH   4  21
TORSDOF 5
ENDMDL
MODEL 6
REMARK VINA RESULT:      -8.4      4.753     10.338
REMARK  Name = 
REMARK  7 active torsions:
REMARK  status: ('A' for Active; 'I' for Inactive)
REMARK    1  A    between atoms: C_1  and  O_2
REMARK    2  A    between atoms: O_2  and  C_3
REMARK    3  A    between atoms: C_6  and  C_7
REMARK    4  A    between atoms: C_9  and  C_10
REMARK    5  A    between atoms: C_12  and  C_13
REMARK    6  A    between atoms: C_16  and  N_17
REMARK    7  A    between atoms: N_20  and  C_21
REMARK                            x       y       z     vdW  Elec       q    Type
REMARK                         _______ _______ _______ _____ _____    ______ ____
ROOT
ATOM      1  C   UNL     1      -0.645  11.711  22.175  0.00  0.00    +0.000 A 
ATOM      2  C   UNL     1      -0.910  10.639  23.037  0.00  0.00    +0.000 A 
ATOM      3  C   UNL     1      -0.164   9.458  22.969  0.00  0.00    +0.000 A 
ATOM      4  C   UNL     1       0.845   9.304  22.016  0.00  0.00    +0.000 A 
ATOM      5  C   UNL     1       1.155  10.379  21.187  0.00  0.00    +0.000 A 
ATOM      6  C   UNL     1       0.429  11.573  21.282  0.00  0.00    +0.000 A 
ENDROOT
BRANCH   1  12
ATOM      7  C   UNL     1      -2.414  13.428  21.266  0.00  0.00    +0.000 A 
ATOM      8  N   UNL     1      -2.936  14.680  21.578  0.00  0.00    +0.000 NA
ATOM      9  C   UNL     1      -2.454  15.101  22.723  0.00  0.00    +0.000 A 
ATOM     10  C   UNL     1      -2.808  16.398  23.361  0.00  0.00    +0.000 C 
ATOM     11  S   UNL     1      -1.342  14.051  23.485  0.00  0.00    +0.000 S 
ATOM     12  C   UNL     1      -1.479  12.929  22.175  0.00  0.00    +0.000 A 
BRANCH   7  16
ATOM     13  C   UNL     1      -3.555  11.388  17.678  0.00  0.00    +0.000 A 
ATOM     14  C   UNL     1      -2.231  11.772  17.894  0.00  0.00    +0.000 A 
ATOM     15  C   UNL     1      -1.869  12.451  19.063  0.00  0.00    +0.000 A 
ATOM     16  C   UNL     1      -2.833  12.776  20.024  0.00  0.00    +0.000 A 
ATOM     17  C   UNL     1      -4.172  12.454  19.763  0.00  0.00    +0.000 A 
ATOM     18  C   UNL     1      -4.528  11.742  18.610  0.00  0.00    +0.000 A 
BRANCH  13  20
ATOM     19  C   UNL     1      -2.800   9.754  16.141  0.00  0.00    +0.000 C 
ATOM     20  O   UNL     1      -3.782  10.716  16.509  0.00  0.00    +0.000 OA
ENDBRANCH  13  20
ENDBRANCH   7  16
ENDBRANCH   1  12
BRANCH   4  21
ATOM     21  N   UNL     1       1.585   8.113  21.873  0.00  0.00    +0.000 N 
ATOM     22  C   UNL     1       1.554   7.298  20.758  0.00  0.00    +0.000 C 
ATOM     23  O   UNL     1       1.028   7.590  19.691  0.00  0.00    +0.000 OA
ATOM     24  N   UNL     1       2.168   6.081  21.009  0.00  0.00    +0.000 N 
ATOM     25  H   UNL     1       2.374   7.979  22.488  0.00  0.00    +0.000 HD
ATOM     26  H   UNL     1       2.035   5.740  21.954  0.00  0.00    +0.000 HD
BRANCH  24  27
ATOM     27  C   UNL     1       2.226   5.080  20.011  0.00  0.00    +0.000 A 
ATOM     28  C   UNL     1       1.175   4.180  19.805  0.00  0.00    +0.000 A 
ATOM     29  C   UNL     1       1.302   3.167  18.855  0.00  0.00    +0.000 A 
ATOM     30  C   UNL     1       2.484   3.049  18.129  0.00  0.00    +0.000 A 
ATOM     31  F   UNL     1       2.616   2.054  17.244  0.00  0.00    +0.000 F 
ATOM     32  C   UNL     1       3.531   3.943  18.314  0.00  0.00    +0.000 A 
ATOM     33  C   UNL     1       3.385   4.968  19.239  0.00  0.00    +0.000 A 
ATOM     34  F   UNL     1       4.400   5.819  19.442  0.00  0.00    +0.000 F 
ENDBRANCH  24  27
ENDBRANCH   4  21
TORSDOF 5
ENDMDL
MODEL 7
REMARK VINA RESULT:      -8.4      6.513     11.366
REMARK  Name = 
REMARK  7 active torsions:
REMARK  status: ('A' for Active; 'I' for Inactive)
REMARK    1  A    between atoms: C_1  and  O_2
REMARK    2  A    between atoms: O_2  and  C_3
REMARK    3  A    between atoms: C_6  and  C_7
REMARK    4  A    between atoms: C_9  and  C_10
REMARK    5  A    between atoms: C_12  and  C_13
REMARK    6  A    between atoms: C_16  and  N_17
REMARK    7  A    between atoms: N_20  and  C_21
REMARK                            x       y       z     vdW  Elec       q    Type
REMARK                         _______ _______ _______ _____ _____    ______ ____
ROOT
ATOM      1  C   UNL     1       9.592  12.878  19.161  0.00  0.00    +0.000 A 
ATOM      2  C   UNL     1       9.409  12.142  20.339  0.00  0.00    +0.000 A 
ATOM      3  C   UNL     1       9.250  10.752  20.303  0.00  0.00    +0.000 A 
ATOM      4  C   UNL     1       9.236  10.066  19.088  0.00  0.00    +0.000 A 
ATOM      5  C   UNL     1       9.468  10.777  17.912  0.00  0.00    +0.000 A 
ATOM      6  C   UNL     1       9.663  12.163  17.956  0.00  0.00    +0.000 A 
ENDROOT
BRANCH   1  12
ATOM      7  C   UNL     1       8.697  15.348  19.123  0.00  0.00    +0.000 A 
ATOM      8  N   UNL     1       9.180  16.652  19.063  0.00  0.00    +0.000 NA
ATOM      9  C   UNL     1      10.491  16.654  19.123  0.00  0.00    +0.000 A 
ATOM     10  C   UNL     1      11.334  17.880  19.094  0.00  0.00    +0.000 C 
ATOM     11  S   UNL     1      11.225  15.115  19.233  0.00  0.00    +0.000 S 
ATOM     12  C   UNL     1       9.673  14.352  19.174  0.00  0.00    +0.000 A 
BRANCH   7  16
ATOM     13  C   UNL     1       4.443  14.858  19.035  0.00  0.00    +0.000 A 
ATOM     14  C   UNL     1       5.115  15.076  20.239  0.00  0.00    +0.000 A 
ATOM     15  C   UNL     1       6.506  15.221  20.260  0.00  0.00    +0.000 A 
ATOM     16  C   UNL     1       7.250  15.127  19.078  0.00  0.00    +0.000 A 
ATOM     17  C   UNL     1       6.574  14.833  17.885  0.00  0.00    +0.000 A 
ATOM     18  C   UNL     1       5.178  14.725  17.858  0.00  0.00    +0.000 A 
BRANCH  13  20
ATOM     19  C   UNL     1       2.326  15.771  18.499  0.00  0.00    +0.000 C 
ATOM     20  O   UNL     1       3.084  14.751  19.139  0.00  0.00    +0.000 OA
ENDBRANCH  13  20
ENDBRANCH   7  16
ENDBRANCH   1  12
BRANCH   4  21
ATOM     21  N   UNL     1       9.023   8.676  18.998  0.00  0.00    +0.000 N 
ATOM     22  C   UNL     1       8.082   8.076  18.183  0.00  0.00    +0.000 C 
ATOM     23  O   UNL     1       7.443   8.650  17.310  0.00  0.00    +0.000 OA
ATOM     24  N   UNL     1       7.925   6.736  18.501  0.00  0.00    +0.000 N 
ATOM     25  H   UNL     1       9.758   8.070  19.334  0.00  0.00    +0.000 HD
ATOM     26  H   UNL     1       8.017   6.534  19.489  0.00  0.00    +0.000 HD
BRANCH  24  27
ATOM     27  C   UNL     1       6.989   5.933  17.808  0.00  0.00    +0.000 A 
ATOM     28  C   UNL     1       7.080   5.714  16.429  0.00  0.00    +0.000 A 
ATOM     29  C   UNL     1       6.098   4.972  15.775  0.00  0.00    +0.000 A 
ATOM     30  C   UNL     1       5.021   4.467  16.499  0.00  0.00    +0.000 A 
ATOM     31  F   UNL     1       4.061   3.785  15.863  0.00  0.00    +0.000 F 
ATOM     32  C   UNL     1       4.924   4.665  17.871  0.00  0.00    +0.000 A 
ATOM     33  C   UNL     1       5.922   5.378  18.520  0.00  0.00    +0.000 A 
ATOM     34  F   UNL     1       5.822   5.597  19.839  0.00  0.00    +0.000 F 
ENDBRANCH  24  27
ENDBRANCH   4  21
TORSDOF 5
ENDMDL
MODEL 8
REMARK VINA RESULT:      -8.3      5.074     11.017
REMARK  Name = 
REMARK  7 active torsions:
REMARK  status: ('A' for Active; 'I' for Inactive)
REMARK    1  A    between atoms: C_1  and  O_2
REMARK    2  A    between atoms: O_2  and  C_3
REMARK    3  A    between atoms: C_6  and  C_7
REMARK    4  A    between atoms: C_9  and  C_10
REMARK    5  A    between atoms: C_12  and  C_13
REMARK    6  A    between atoms: C_16  and  N_17
REMARK    7  A    between atoms: N_20  and  C_21
REMARK                            x       y       z     vdW  Elec       q    Type
REMARK                         _______ _______ _______ _____ _____    ______ ____
ROOT
ATOM      1  C   UNL     1      -0.798  12.345  22.228  0.00  0.00    +0.000 A 
ATOM      2  C   UNL     1       0.202  12.236  21.253  0.00  0.00    +0.000 A 
ATOM      3  C   UNL     1       0.908  11.041  21.075  0.00  0.00    +0.000 A 
ATOM      4  C   UNL     1       0.657   9.935  21.889  0.00  0.00    +0.000 A 
ATOM      5  C   UNL     1      -0.369  10.011  22.828  0.00  0.00    +0.000 A 
ATOM      6  C   UNL     1      -1.098  11.197  22.979  0.00  0.00    +0.000 A 
ENDROOT
BRANCH   1  12
ATOM      7  C   UNL     1      -2.748  14.102  22.114  0.00  0.00    +0.000 A 
ATOM      8  N   UNL     1      -3.014  15.418  22.480  0.00  0.00    +0.000 NA
ATOM      9  C   UNL     1      -2.009  15.912  23.164  0.00  0.00    +0.000 A 
ATOM     10  C   UNL     1      -1.963  17.292  23.719  0.00  0.00    +0.000 C 
ATOM     11  S   UNL     1      -0.686  14.855  23.395  0.00  0.00    +0.000 S 
ATOM     12  C   UNL     1      -1.491  13.622  22.488  0.00  0.00    +0.000 A 
BRANCH   7  16
ATOM     13  C   UNL     1      -5.591  11.812  19.876  0.00  0.00    +0.000 A 
ATOM     14  C   UNL     1      -4.350  12.144  19.331  0.00  0.00    +0.000 A 
ATOM     15  C   UNL     1      -3.433  12.905  20.063  0.00  0.00    +0.000 A 
ATOM     16  C   UNL     1      -3.753  13.364  21.347  0.00  0.00    +0.000 A 
ATOM     17  C   UNL     1      -5.030  13.089  21.855  0.00  0.00    +0.000 A 
ATOM     18  C   UNL     1      -5.934  12.297  21.136  0.00  0.00    +0.000 A 
BRANCH  13  20
ATOM     19  C   UNL     1      -6.948  11.710  17.940  0.00  0.00    +0.000 C 
ATOM     20  O   UNL     1      -6.394  11.050  19.072  0.00  0.00    +0.000 OA
ENDBRANCH  13  20
ENDBRANCH   7  16
ENDBRANCH   1  12
BRANCH   4  21
ATOM     21  N   UNL     1       1.381   8.730  21.784  0.00  0.00    +0.000 N 
ATOM     22  C   UNL     1       1.573   8.028  20.609  0.00  0.00    +0.000 C 
ATOM     23  O   UNL     1       1.298   8.446  19.490  0.00  0.00    +0.000 OA
ATOM     24  N   UNL     1       2.088   6.765  20.858  0.00  0.00    +0.000 N 
ATOM     25  H   UNL     1       2.014   8.501  22.536  0.00  0.00    +0.000 HD
ATOM     26  H   UNL     1       1.744   6.342  21.711  0.00  0.00    +0.000 HD
BRANCH  24  27
ATOM     27  C   UNL     1       2.336   5.864  19.797  0.00  0.00    +0.000 A 
ATOM     28  C   UNL     1       3.289   6.130  18.807  0.00  0.00    +0.000 A 
ATOM     29  C   UNL     1       3.453   5.246  17.742  0.00  0.00    +0.000 A 
ATOM     30  C   UNL     1       2.654   4.109  17.662  0.00  0.00    +0.000 A 
ATOM     31  F   UNL     1       2.789   3.281  16.620  0.00  0.00    +0.000 F 
ATOM     32  C   UNL     1       1.713   3.824  18.644  0.00  0.00    +0.000 A 
ATOM     33  C   UNL     1       1.577   4.693  19.717  0.00  0.00    +0.000 A 
ATOM     34  F   UNL     1       0.653   4.440  20.656  0.00  0.00    +0.000 F 
ENDBRANCH  24  27
ENDBRANCH   4  21
TORSDOF 5
ENDMDL
MODEL 9
REMARK VINA RESULT:      -8.3      4.635     10.034
REMARK  Name = 
REMARK  7 active torsions:
REMARK  status: ('A' for Active; 'I' for Inactive)
REMARK    1  A    between atoms: C_1  and  O_2
REMARK    2  A    between atoms: O_2  and  C_3
REMARK    3  A    between atoms: C_6  and  C_7
REMARK    4  A    between atoms: C_9  and  C_10
REMARK    5  A    between atoms: C_12  and  C_13
REMARK    6  A    between atoms: C_16  and  N_17
REMARK    7  A    between atoms: N_20  and  C_21
REMARK                            x       y       z     vdW  Elec       q    Type
REMARK                         _______ _______ _______ _____ _____    ______ ____
ROOT
ATOM      1  C   UNL     1      -0.293  10.440  20.656  0.00  0.00    +0.000 A 
ATOM      2  C   UNL     1       0.543  10.314  19.539  0.00  0.00    +0.000 A 
ATOM      3  C   UNL     1       1.392   9.212  19.395  0.00  0.00    +0.000 A 
ATOM      4  C   UNL     1       1.453   8.224  20.379  0.00  0.00    +0.000 A 
ATOM      5  C   UNL     1       0.591   8.308  21.470  0.00  0.00    +0.000 A 
ATOM      6  C   UNL     1      -0.283   9.395  21.593  0.00  0.00    +0.000 A 
ENDROOT
BRANCH   1  12
ATOM      7  C   UNL     1      -2.123  12.239  20.089  0.00  0.00    +0.000 A 
ATOM      8  N   UNL     1      -2.630  13.433  20.594  0.00  0.00    +0.000 NA
ATOM      9  C   UNL     1      -2.080  13.708  21.753  0.00  0.00    +0.000 A 
ATOM     10  C   UNL     1      -2.399  14.906  22.575  0.00  0.00    +0.000 C 
ATOM     11  S   UNL     1      -0.917  12.581  22.300  0.00  0.00    +0.000 S 
ATOM     12  C   UNL     1      -1.131  11.638  20.866  0.00  0.00    +0.000 A 
BRANCH   7  16
ATOM     13  C   UNL     1      -3.654  10.943  16.306  0.00  0.00    +0.000 A 
ATOM     14  C   UNL     1      -4.491  11.058  17.417  0.00  0.00    +0.000 A 
ATOM     15  C   UNL     1      -3.980  11.468  18.653  0.00  0.00    +0.000 A 
ATOM     16  C   UNL     1      -2.616  11.749  18.801  0.00  0.00    +0.000 A 
ATOM     17  C   UNL     1      -1.772  11.557  17.699  0.00  0.00    +0.000 A 
ATOM     18  C   UNL     1      -2.290  11.182  16.453  0.00  0.00    +0.000 A 
BRANCH  13  20
ATOM     19  C   UNL     1      -3.419  10.079  14.116  0.00  0.00    +0.000 C 
ATOM     20  O   UNL     1      -4.273  10.551  15.151  0.00  0.00    +0.000 OA
ENDBRANCH  13  20
ENDBRANCH   7  16
ENDBRANCH   1  12
BRANCH   4  21
ATOM     21  N   UNL     1       2.333   7.126  20.305  0.00  0.00    +0.000 N 
ATOM     22  C   UNL     1       3.088   6.797  19.194  0.00  0.00    +0.000 C 
ATOM     23  O   UNL     1       3.228   7.508  18.207  0.00  0.00    +0.000 OA
ATOM     24  N   UNL     1       3.646   5.535  19.323  0.00  0.00    +0.000 N 
ATOM     25  H   UNL     1       2.636   6.712  21.174  0.00  0.00    +0.000 HD
ATOM     26  H   UNL     1       3.057   4.873  19.814  0.00  0.00    +0.000 HD
BRANCH  24  27
ATOM     27  C   UNL     1       4.436   4.985  18.287  0.00  0.00    +0.000 A 
ATOM     28  C   UNL     1       5.820   5.184  18.227  0.00  0.00    +0.000 A 
ATOM     29  C   UNL     1       6.550   4.680  17.152  0.00  0.00    +0.000 A 
ATOM     30  C   UNL     1       5.892   3.994  16.135  0.00  0.00    +0.000 A 
ATOM     31  F   UNL     1       6.590   3.543  15.086  0.00  0.00    +0.000 F 
ATOM     32  C   UNL     1       4.521   3.777  16.187  0.00  0.00    +0.000 A 
ATOM     33  C   UNL     1       3.805   4.255  17.276  0.00  0.00    +0.000 A 
ATOM     34  F   UNL     1       2.478   4.073  17.322  0.00  0.00    +0.000 F 
ENDBRANCH  24  27
ENDBRANCH   4  21
TORSDOF 5
ENDMDL
