MODEL 1
REMARK VINA RESULT:      -7.9      0.000      0.000
REMARK  Name = 
REMARK  10 active torsions:
REMARK  status: ('A' for Active; 'I' for Inactive)
REMARK    1  A    between atoms: C_1  and  C_2
REMARK    2  A    between atoms: C_2  and  C_3
REMARK    3  A    between atoms: C_4  and  C_5
REMARK    4  A    between atoms: C_5  and  C_7
REMARK    5  A    between atoms: N_9  and  C_10
REMARK    6  A    between atoms: C_10  and  C_11
REMARK    7  A    between atoms: C_11  and  N_12
REMARK    8  A    between atoms: C_21  and  O_22
REMARK    9  A    between atoms: C_25  and  C_26
REMARK   10  A    between atoms: C_25  and  C_27
REMARK                            x       y       z     vdW  Elec       q    Type
REMARK                         _______ _______ _______ _____ _____    ______ ____
ROOT
ATOM      1  C   UNL     1       3.219   6.218  18.588  0.00  0.00    +0.000 A 
ATOM      2  C   UNL     1       2.726   7.186  19.440  0.00  0.00    +0.000 A 
ATOM      3  N   UNL     1       1.816   6.605  20.301  0.00  0.00    +0.000 N 
ATOM      4  C   UNL     1       1.723   5.244  20.029  0.00  0.00    +0.000 A 
ATOM      5  C   UNL     1       0.988   4.179  20.594  0.00  0.00    +0.000 A 
ATOM      6  C   UNL     1       1.108   2.887  20.066  0.00  0.00    +0.000 A 
ATOM      7  C   UNL     1       1.952   2.647  19.004  0.00  0.00    +0.000 A 
ATOM      8  C   UNL     1       2.687   3.675  18.436  0.00  0.00    +0.000 A 
ATOM      9  C   UNL     1       2.577   4.994  18.948  0.00  0.00    +0.000 A 
ENDROOT
BRANCH   1  10
ATOM     10  C   UNL     1       4.182   6.380  17.510  0.00  0.00    +0.000 C 
ATOM     11  O   UNL     1       4.130   7.333  16.738  0.00  0.00    +0.000 OA
BRANCH  10  15
ATOM     12  C   UNL     1       7.202   6.989  17.186  0.00  0.00    +0.000 C 
ATOM     13  C   UNL     1       6.702   5.559  17.211  0.00  0.00    +0.000 C 
ATOM     14  C   UNL     1       7.680   4.637  17.905  0.00  0.00    +0.000 C 
ATOM     15  C   UNL     1       5.207   5.296  17.365  0.00  0.00    +0.000 C 
ATOM     16  C   UNL     1       5.889   4.998  16.026  0.00  0.00    +0.000 C 
ATOM     17  C   UNL     1       5.671   5.861  14.802  0.00  0.00    +0.000 C 
ATOM     18  C   UNL     1       5.984   3.533  15.642  0.00  0.00    +0.000 C 
ENDBRANCH  10  15
ENDBRANCH   1  10
BRANCH   7  19
ATOM     19  O   UNL     1       2.092   1.394  18.480  0.00  0.00    +0.000 OA
ATOM     20  H   UNL     1       2.336   1.479  17.545  0.00  0.00    +0.000 HD
ENDBRANCH   7  19
BRANCH   3  21
ATOM     21  C   UNL     1       1.042   7.429  21.236  0.00  0.00    +0.000 C 
BRANCH  21  22
ATOM     22  C   UNL     1       1.106   8.935  20.987  0.00  0.00    +0.000 C 
BRANCH  22  23
ATOM     23  N   UNL     1      -0.078   9.589  20.392  0.00  0.00    +0.000 NA
ATOM     24  C   UNL     1       0.239   9.992  18.991  0.00  0.00    +0.000 C 
ATOM     25  C   UNL     1       1.264  11.142  18.888  0.00  0.00    +0.000 C 
ATOM     26  O   UNL     1       0.833  12.295  19.620  0.00  0.00    +0.000 OA
ATOM     27  C   UNL     1       0.564  11.977  20.991  0.00  0.00    +0.000 C 
ATOM     28  C   UNL     1      -0.458  10.829  21.116  0.00  0.00    +0.000 C 
ENDBRANCH  22  23
ENDBRANCH  21  22
ENDBRANCH   3  21
TORSDOF 6
ENDMDL
MODEL 2
REMARK VINA RESULT:      -7.8      1.060      1.531
REMARK  Name = 
REMARK  10 active torsions:
REMARK  status: ('A' for Active; 'I' for Inactive)
REMARK    1  A    between atoms: C_1  and  C_2
REMARK    2  A    between atoms: C_2  and  C_3
REMARK    3  A    between atoms: C_4  and  C_5
REMARK    4  A    between atoms: C_5  and  C_7
REMARK    5  A    between atoms: N_9  and  C_10
REMARK    6  A    between atoms: C_10  and  C_11
REMARK    7  A    between atoms: C_11  and  N_12
REMARK    8  A    between atoms: C_21  and  O_22
REMARK    9  A    between atoms: C_25  and  C_26
REMARK   10  A    between atoms: C_25  and  C_27
REMARK                            x       y       z     vdW  Elec       q    Type
REMARK                         _______ _______ _______ _____ _____    ______ ____
ROOT
ATOM      1  C   UNL     1       3.224   6.192  18.587  0.00  0.00    +0.000 A 
ATOM      2  C   UNL     1       2.726   7.154  19.444  0.00  0.00    +0.000 A 
ATOM      3  N   UNL     1       1.818   6.564  20.301  0.00  0.00    +0.000 N 
ATOM      4  C   UNL     1       1.731   5.205  20.023  0.00  0.00    +0.000 A 
ATOM      5  C   UNL     1       1.001   4.133  20.583  0.00  0.00    +0.000 A 
ATOM      6  C   UNL     1       1.127   2.845  20.048  0.00  0.00    +0.000 A 
ATOM      7  C   UNL     1       1.973   2.613  18.986  0.00  0.00    +0.000 A 
ATOM      8  C   UNL     1       2.705   3.647  18.424  0.00  0.00    +0.000 A 
ATOM      9  C   UNL     1       2.588   4.963  18.941  0.00  0.00    +0.000 A 
ENDROOT
BRANCH   1  10
ATOM     10  C   UNL     1       4.188   6.363  17.511  0.00  0.00    +0.000 C 
ATOM     11  O   UNL     1       4.131   7.320  16.743  0.00  0.00    +0.000 OA
BRANCH  10  15
ATOM     12  C   UNL     1       7.204   6.989  17.189  0.00  0.00    +0.000 C 
ATOM     13  C   UNL     1       6.712   5.557  17.209  0.00  0.00    +0.000 C 
ATOM     14  C   UNL     1       7.694   4.636  17.900  0.00  0.00    +0.000 C 
ATOM     15  C   UNL     1       5.218   5.286  17.363  0.00  0.00    +0.000 C 
ATOM     16  C   UNL     1       5.901   4.995  16.022  0.00  0.00    +0.000 C 
ATOM     17  C   UNL     1       5.679   5.861  14.802  0.00  0.00    +0.000 C 
ATOM     18  C   UNL     1       6.003   3.532  15.633  0.00  0.00    +0.000 C 
ENDBRANCH  10  15
ENDBRANCH   1  10
BRANCH   7  19
ATOM     19  O   UNL     1       2.120   1.363  18.457  0.00  0.00    +0.000 OA
ATOM     20  H   UNL     1       2.187   1.446  17.493  0.00  0.00    +0.000 HD
ENDBRANCH   7  19
BRANCH   3  21
ATOM     21  C   UNL     1       1.039   7.380  21.239  0.00  0.00    +0.000 C 
BRANCH  21  22
ATOM     22  C   UNL     1       0.776   8.817  20.792  0.00  0.00    +0.000 C 
BRANCH  22  23
ATOM     23  N   UNL     1       1.223   9.911  21.679  0.00  0.00    +0.000 NA
ATOM     24  C   UNL     1       0.665   9.693  23.045  0.00  0.00    +0.000 C 
ATOM     25  C   UNL     1      -0.865   9.882  23.133  0.00  0.00    +0.000 C 
ATOM     26  O   UNL     1      -1.259  11.179  22.669  0.00  0.00    +0.000 OA
ATOM     27  C   UNL     1      -0.793  11.424  21.335  0.00  0.00    +0.000 C 
ATOM     28  C   UNL     1       0.733  11.238  21.226  0.00  0.00    +0.000 C 
ENDBRANCH  22  23
ENDBRANCH  21  22
ENDBRANCH   3  21
TORSDOF 6
ENDMDL
MODEL 3
REMARK VINA RESULT:      -7.7      0.991      1.264
REMARK  Name = 
REMARK  10 active torsions:
REMARK  status: ('A' for Active; 'I' for Inactive)
REMARK    1  A    between atoms: C_1  and  C_2
REMARK    2  A    between atoms: C_2  and  C_3
REMARK    3  A    between atoms: C_4  and  C_5
REMARK    4  A    between atoms: C_5  and  C_7
REMARK    5  A    between atoms: N_9  and  C_10
REMARK    6  A    between atoms: C_10  and  C_11
REMARK    7  A    between atoms: C_11  and  N_12
REMARK    8  A    between atoms: C_21  and  O_22
REMARK    9  A    between atoms: C_25  and  C_26
REMARK   10  A    between atoms: C_25  and  C_27
REMARK                            x       y       z     vdW  Elec       q    Type
REMARK                         _______ _______ _______ _____ _____    ______ ____
ROOT
ATOM      1  C   UNL     1       3.341   6.188  18.423  0.00  0.00    +0.000 A 
ATOM      2  C   UNL     1       2.973   7.182  19.309  0.00  0.00    +0.000 A 
ATOM      3  N   UNL     1       2.067   6.664  20.212  0.00  0.00    +0.000 N 
ATOM      4  C   UNL     1       1.850   5.319  19.934  0.00  0.00    +0.000 A 
ATOM      5  C   UNL     1       1.063   4.308  20.530  0.00  0.00    +0.000 A 
ATOM      6  C   UNL     1       1.050   3.018  19.984  0.00  0.00    +0.000 A 
ATOM      7  C   UNL     1       1.815   2.724  18.877  0.00  0.00    +0.000 A 
ATOM      8  C   UNL     1       2.600   3.698  18.279  0.00  0.00    +0.000 A 
ATOM      9  C   UNL     1       2.623   5.014  18.807  0.00  0.00    +0.000 A 
ENDROOT
BRANCH   1  10
ATOM     10  C   UNL     1       4.256   6.286  17.297  0.00  0.00    +0.000 C 
ATOM     11  O   UNL     1       4.155   7.182  16.462  0.00  0.00    +0.000 OA
BRANCH  10  15
ATOM     12  C   UNL     1       7.287   6.913  17.159  0.00  0.00    +0.000 C 
ATOM     13  C   UNL     1       6.792   5.481  17.122  0.00  0.00    +0.000 C 
ATOM     14  C   UNL     1       7.733   4.545  17.849  0.00  0.00    +0.000 C 
ATOM     15  C   UNL     1       5.292   5.210  17.185  0.00  0.00    +0.000 C 
ATOM     16  C   UNL     1       6.050   4.945  15.880  0.00  0.00    +0.000 C 
ATOM     17  C   UNL     1       5.898   5.836  14.666  0.00  0.00    +0.000 C 
ATOM     18  C   UNL     1       6.173   3.490  15.467  0.00  0.00    +0.000 C 
ENDBRANCH  10  15
ENDBRANCH   1  10
BRANCH   7  19
ATOM     19  O   UNL     1       1.826   1.471  18.336  0.00  0.00    +0.000 OA
ATOM     20  H   UNL     1       2.159   1.534  17.427  0.00  0.00    +0.000 HD
ENDBRANCH   7  19
BRANCH   3  21
ATOM     21  C   UNL     1       1.412   7.535  21.195  0.00  0.00    +0.000 C 
BRANCH  21  22
ATOM     22  C   UNL     1       0.990   8.907  20.673  0.00  0.00    +0.000 C 
BRANCH  22  23
ATOM     23  N   UNL     1      -0.424   9.306  20.837  0.00  0.00    +0.000 NA
ATOM     24  C   UNL     1      -0.549  10.772  20.591  0.00  0.00    +0.000 C 
ATOM     25  C   UNL     1       0.107  11.647  21.680  0.00  0.00    +0.000 C 
ATOM     26  O   UNL     1      -0.415  11.344  22.980  0.00  0.00    +0.000 OA
ATOM     27  C   UNL     1      -0.272   9.953  23.293  0.00  0.00    +0.000 C 
ATOM     28  C   UNL     1      -0.920   9.061  22.215  0.00  0.00    +0.000 C 
ENDBRANCH  22  23
ENDBRANCH  21  22
ENDBRANCH   3  21
TORSDOF 6
ENDMDL
MODEL 4
REMARK VINA RESULT:      -7.5      0.621      1.180
REMARK  Name = 
REMARK  10 active torsions:
REMARK  status: ('A' for Active; 'I' for Inactive)
REMARK    1  A    between atoms: C_1  and  C_2
REMARK    2  A    between atoms: C_2  and  C_3
REMARK    3  A    between atoms: C_4  and  C_5
REMARK    4  A    between atoms: C_5  and  C_7
REMARK    5  A    between atoms: N_9  and  C_10
REMARK    6  A    between atoms: C_10  and  C_11
REMARK    7  A    between atoms: C_11  and  N_12
REMARK    8  A    between atoms: C_21  and  O_22
REMARK    9  A    between atoms: C_25  and  C_26
REMARK   10  A    between atoms: C_25  and  C_27
REMARK                            x       y       z     vdW  Elec       q    Type
REMARK                         _______ _______ _______ _____ _____    ______ ____
ROOT
ATOM      1  C   UNL     1       3.227   6.239  18.567  0.00  0.00    +0.000 A 
ATOM      2  C   UNL     1       2.815   7.207  19.461  0.00  0.00    +0.000 A 
ATOM      3  N   UNL     1       1.893   6.654  20.328  0.00  0.00    +0.000 N 
ATOM      4  C   UNL     1       1.711   5.311  20.019  0.00  0.00    +0.000 A 
ATOM      5  C   UNL     1       0.928   4.274  20.572  0.00  0.00    +0.000 A 
ATOM      6  C   UNL     1       0.957   2.995  20.002  0.00  0.00    +0.000 A 
ATOM      7  C   UNL     1       1.758   2.738  18.911  0.00  0.00    +0.000 A 
ATOM      8  C   UNL     1       2.540   3.738  18.354  0.00  0.00    +0.000 A 
ATOM      9  C   UNL     1       2.522   5.044  18.908  0.00  0.00    +0.000 A 
ENDROOT
BRANCH   1  10
ATOM     10  C   UNL     1       4.171   6.377  17.470  0.00  0.00    +0.000 C 
ATOM     11  O   UNL     1       4.104   7.313  16.677  0.00  0.00    +0.000 OA
BRANCH  10  15
ATOM     12  C   UNL     1       7.193   6.980  17.155  0.00  0.00    +0.000 C 
ATOM     13  C   UNL     1       6.690   5.551  17.182  0.00  0.00    +0.000 C 
ATOM     14  C   UNL     1       7.664   4.629  17.882  0.00  0.00    +0.000 C 
ATOM     15  C   UNL     1       5.194   5.291  17.331  0.00  0.00    +0.000 C 
ATOM     16  C   UNL     1       5.881   4.988  15.995  0.00  0.00    +0.000 C 
ATOM     17  C   UNL     1       5.669   5.848  14.768  0.00  0.00    +0.000 C 
ATOM     18  C   UNL     1       5.974   3.522  15.615  0.00  0.00    +0.000 C 
ENDBRANCH  10  15
ENDBRANCH   1  10
BRANCH   7  19
ATOM     19  O   UNL     1       1.810   1.496  18.347  0.00  0.00    +0.000 OA
ATOM     20  H   UNL     1       2.489   1.503  17.654  0.00  0.00    +0.000 HD
ENDBRANCH   7  19
BRANCH   3  21
ATOM     21  C   UNL     1       1.194   7.493  21.308  0.00  0.00    +0.000 C 
BRANCH  21  22
ATOM     22  C   UNL     1       0.317   8.595  20.717  0.00  0.00    +0.000 C 
BRANCH  22  23
ATOM     23  N   UNL     1       0.968   9.863  20.326  0.00  0.00    +0.000 NA
ATOM     24  C   UNL     1       0.492  10.954  21.227  0.00  0.00    +0.000 C 
ATOM     25  C   UNL     1      -0.989  11.335  21.019  0.00  0.00    +0.000 C 
ATOM     26  O   UNL     1      -1.249  11.705  19.660  0.00  0.00    +0.000 OA
ATOM     27  C   UNL     1      -0.860  10.669  18.750  0.00  0.00    +0.000 C 
ATOM     28  C   UNL     1       0.618  10.272  18.942  0.00  0.00    +0.000 C 
ENDBRANCH  22  23
ENDBRANCH  21  22
ENDBRANCH   3  21
TORSDOF 6
ENDMDL
MODEL 5
REMARK VINA RESULT:      -7.5      1.913      4.597
REMARK  Name = 
REMARK  10 active torsions:
REMARK  status: ('A' for Active; 'I' for Inactive)
REMARK    1  A    between atoms: C_1  and  C_2
REMARK    2  A    between atoms: C_2  and  C_3
REMARK    3  A    between atoms: C_4  and  C_5
REMARK    4  A    between atoms: C_5  and  C_7
REMARK    5  A    between atoms: N_9  and  C_10
REMARK    6  A    between atoms: C_10  and  C_11
REMARK    7  A    between atoms: C_11  and  N_12
REMARK    8  A    between atoms: C_21  and  O_22
REMARK    9  A    between atoms: C_25  and  C_26
REMARK   10  A    between atoms: C_25  and  C_27
REMARK                            x       y       z     vdW  Elec       q    Type
REMARK                         _______ _______ _______ _____ _____    ______ ____
ROOT
ATOM      1  C   UNL     1       2.785   5.700  17.969  0.00  0.00    +0.000 A 
ATOM      2  C   UNL     1       2.207   6.954  17.994  0.00  0.00    +0.000 A 
ATOM      3  N   UNL     1       3.172   7.899  17.710  0.00  0.00    +0.000 N 
ATOM      4  C   UNL     1       4.388   7.266  17.476  0.00  0.00    +0.000 A 
ATOM      5  C   UNL     1       5.679   7.720  17.126  0.00  0.00    +0.000 A 
ATOM      6  C   UNL     1       6.726   6.803  16.974  0.00  0.00    +0.000 A 
ATOM      7  C   UNL     1       6.501   5.455  17.150  0.00  0.00    +0.000 A 
ATOM      8  C   UNL     1       5.241   4.985  17.488  0.00  0.00    +0.000 A 
ATOM      9  C   UNL     1       4.166   5.895  17.656  0.00  0.00    +0.000 A 
ENDROOT
BRANCH   1  10
ATOM     10  C   UNL     1       2.154   4.416  18.229  0.00  0.00    +0.000 C 
ATOM     11  O   UNL     1       1.295   3.958  17.479  0.00  0.00    +0.000 OA
BRANCH  10  15
ATOM     12  C   UNL     1       3.493   1.623  18.190  0.00  0.00    +0.000 C 
ATOM     13  C   UNL     1       3.239   2.339  19.501  0.00  0.00    +0.000 C 
ATOM     14  C   UNL     1       4.342   2.078  20.504  0.00  0.00    +0.000 C 
ATOM     15  C   UNL     1       2.571   3.710  19.483  0.00  0.00    +0.000 C 
ATOM     16  C   UNL     1       1.800   2.506  20.032  0.00  0.00    +0.000 C 
ATOM     17  C   UNL     1       0.653   1.872  19.275  0.00  0.00    +0.000 C 
ATOM     18  C   UNL     1       1.517   2.522  21.523  0.00  0.00    +0.000 C 
ENDBRANCH  10  15
ENDBRANCH   1  10
BRANCH   7  19
ATOM     19  O   UNL     1       7.504   4.543  16.996  0.00  0.00    +0.000 OA
ATOM     20  H   UNL     1       7.634   4.086  17.842  0.00  0.00    +0.000 HD
ENDBRANCH   7  19
BRANCH   3  21
ATOM     21  C   UNL     1       2.861   9.330  17.791  0.00  0.00    +0.000 C 
BRANCH  21  22
ATOM     22  C   UNL     1       1.403   9.666  18.100  0.00  0.00    +0.000 C 
BRANCH  22  23
ATOM     23  N   UNL     1       1.090  10.243  19.423  0.00  0.00    +0.000 NA
ATOM     24  C   UNL     1      -0.346   9.990  19.740  0.00  0.00    +0.000 C 
ATOM     25  C   UNL     1      -1.331  10.787  18.858  0.00  0.00    +0.000 C 
ATOM     26  O   UNL     1      -1.077  12.195  18.931  0.00  0.00    +0.000 OA
ATOM     27  C   UNL     1       0.279  12.504  18.584  0.00  0.00    +0.000 C 
ATOM     28  C   UNL     1       1.279  11.716  19.453  0.00  0.00    +0.000 C 
ENDBRANCH  22  23
ENDBRANCH  21  22
ENDBRANCH   3  21
TORSDOF 6
ENDMDL
MODEL 6
REMARK VINA RESULT:      -7.4      3.931      8.489
REMARK  Name = 
REMARK  10 active torsions:
REMARK  status: ('A' for Active; 'I' for Inactive)
REMARK    1  A    between atoms: C_1  and  C_2
REMARK    2  A    between atoms: C_2  and  C_3
REMARK    3  A    between atoms: C_4  and  C_5
REMARK    4  A    between atoms: C_5  and  C_7
REMARK    5  A    between atoms: N_9  and  C_10
REMARK    6  A    between atoms: C_10  and  C_11
REMARK    7  A    between atoms: C_11  and  N_12
REMARK    8  A    between atoms: C_21  and  O_22
REMARK    9  A    between atoms: C_25  and  C_26
REMARK   10  A    between atoms: C_25  and  C_27
REMARK                            x       y       z     vdW  Elec       q    Type
REMARK                         _______ _______ _______ _____ _____    ______ ____
ROOT
ATOM      1  C   UNL     1       4.665   3.430  17.678  0.00  0.00    +0.000 A 
ATOM      2  C   UNL     1       4.577   3.482  16.301  0.00  0.00    +0.000 A 
ATOM      3  N   UNL     1       5.512   4.381  15.826  0.00  0.00    +0.000 N 
ATOM      4  C   UNL     1       6.233   4.909  16.891  0.00  0.00    +0.000 A 
ATOM      5  C   UNL     1       7.300   5.829  16.994  0.00  0.00    +0.000 A 
ATOM      6  C   UNL     1       7.808   6.175  18.252  0.00  0.00    +0.000 A 
ATOM      7  C   UNL     1       7.282   5.610  19.393  0.00  0.00    +0.000 A 
ATOM      8  C   UNL     1       6.238   4.700  19.317  0.00  0.00    +0.000 A 
ATOM      9  C   UNL     1       5.700   4.340  18.055  0.00  0.00    +0.000 A 
ENDROOT
BRANCH   1  10
ATOM     10  C   UNL     1       3.865   2.637  18.598  0.00  0.00    +0.000 C 
ATOM     11  O   UNL     1       3.781   1.416  18.490  0.00  0.00    +0.000 OA
BRANCH  10  15
ATOM     12  C   UNL     1       0.842   2.197  19.112  0.00  0.00    +0.000 C 
ATOM     13  C   UNL     1       1.626   3.199  19.934  0.00  0.00    +0.000 C 
ATOM     14  C   UNL     1       1.147   3.243  21.368  0.00  0.00    +0.000 C 
ATOM     15  C   UNL     1       3.112   3.395  19.648  0.00  0.00    +0.000 C 
ATOM     16  C   UNL     1       2.124   4.511  19.294  0.00  0.00    +0.000 C 
ATOM     17  C   UNL     1       1.748   4.827  17.862  0.00  0.00    +0.000 C 
ATOM     18  C   UNL     1       2.238   5.783  20.113  0.00  0.00    +0.000 C 
ENDBRANCH  10  15
ENDBRANCH   1  10
BRANCH   7  19
ATOM     19  O   UNL     1       7.769   5.924  20.629  0.00  0.00    +0.000 OA
ATOM     20  H   UNL     1       7.723   5.131  21.186  0.00  0.00    +0.000 HD
ENDBRANCH   7  19
BRANCH   3  21
ATOM     21  C   UNL     1       5.555   4.728  14.401  0.00  0.00    +0.000 C 
BRANCH  21  22
ATOM     22  C   UNL     1       5.559   3.541  13.439  0.00  0.00    +0.000 C 
BRANCH  22  23
ATOM     23  N   UNL     1       5.631   3.823  11.991  0.00  0.00    +0.000 NA
ATOM     24  C   UNL     1       4.877   2.770  11.250  0.00  0.00    +0.000 C 
ATOM     25  C   UNL     1       5.547   1.379  11.288  0.00  0.00    +0.000 C 
ATOM     26  O   UNL     1       6.889   1.431  10.791  0.00  0.00    +0.000 OA
ATOM     27  C   UNL     1       7.677   2.393  11.504  0.00  0.00    +0.000 C 
ATOM     28  C   UNL     1       7.025   3.789  11.480  0.00  0.00    +0.000 C 
ENDBRANCH  22  23
ENDBRANCH  21  22
ENDBRANCH   3  21
TORSDOF 6
ENDMDL
MODEL 7
REMARK VINA RESULT:      -7.3      0.875      1.580
REMARK  Name = 
REMARK  10 active torsions:
REMARK  status: ('A' for Active; 'I' for Inactive)
REMARK    1  A    between atoms: C_1  and  C_2
REMARK    2  A    between atoms: C_2  and  C_3
REMARK    3  A    between atoms: C_4  and  C_5
REMARK    4  A    between atoms: C_5  and  C_7
REMARK    5  A    between atoms: N_9  and  C_10
REMARK    6  A    between atoms: C_10  and  C_11
REMARK    7  A    between atoms: C_11  and  N_12
REMARK    8  A    between atoms: C_21  and  O_22
REMARK    9  A    between atoms: C_25  and  C_26
REMARK   10  A    between atoms: C_25  and  C_27
REMARK                            x       y       z     vdW  Elec       q    Type
REMARK                         _______ _______ _______ _____ _____    ______ ____
ROOT
ATOM      1  C   UNL     1       3.448   6.055  18.672  0.00  0.00    +0.000 A 
ATOM      2  C   UNL     1       2.883   7.056  19.438  0.00  0.00    +0.000 A 
ATOM      3  N   UNL     1       1.886   6.513  20.223  0.00  0.00    +0.000 N 
ATOM      4  C   UNL     1       1.805   5.144  19.991  0.00  0.00    +0.000 A 
ATOM      5  C   UNL     1       1.007   4.104  20.517  0.00  0.00    +0.000 A 
ATOM      6  C   UNL     1       1.165   2.794  20.048  0.00  0.00    +0.000 A 
ATOM      7  C   UNL     1       2.107   2.510  19.085  0.00  0.00    +0.000 A 
ATOM      8  C   UNL     1       2.906   3.512  18.557  0.00  0.00    +0.000 A 
ATOM      9  C   UNL     1       2.760   4.849  19.009  0.00  0.00    +0.000 A 
ENDROOT
BRANCH   1  10
ATOM     10  C   UNL     1       4.514   6.171  17.691  0.00  0.00    +0.000 C 
ATOM     11  O   UNL     1       4.343   5.863  16.514  0.00  0.00    +0.000 OA
BRANCH  10  15
ATOM     12  C   UNL     1       6.958   6.578  15.830  0.00  0.00    +0.000 C 
ATOM     13  C   UNL     1       7.064   6.857  17.316  0.00  0.00    +0.000 C 
ATOM     14  C   UNL     1       7.972   8.034  17.600  0.00  0.00    +0.000 C 
ATOM     15  C   UNL     1       5.842   6.639  18.203  0.00  0.00    +0.000 C 
ATOM     16  C   UNL     1       7.042   5.694  18.330  0.00  0.00    +0.000 C 
ATOM     17  C   UNL     1       7.001   4.269  17.823  0.00  0.00    +0.000 C 
ATOM     18  C   UNL     1       7.820   5.781  19.630  0.00  0.00    +0.000 C 
ENDBRANCH  10  15
ENDBRANCH   1  10
BRANCH   7  19
ATOM     19  O   UNL     1       2.286   1.239  18.621  0.00  0.00    +0.000 OA
ATOM     20  H   UNL     1       1.414   0.853  18.441  0.00  0.00    +0.000 HD
ENDBRANCH   7  19
BRANCH   3  21
ATOM     21  C   UNL     1       1.032   7.375  21.047  0.00  0.00    +0.000 C 
BRANCH  21  22
ATOM     22  C   UNL     1       1.209   8.876  20.824  0.00  0.00    +0.000 C 
BRANCH  22  23
ATOM     23  N   UNL     1       0.087   9.623  20.218  0.00  0.00    +0.000 NA
ATOM     24  C   UNL     1       0.414   9.924  18.793  0.00  0.00    +0.000 C 
ATOM     25  C   UNL     1       1.551  10.953  18.617  0.00  0.00    +0.000 C 
ATOM     26  O   UNL     1       1.258  12.179  19.299  0.00  0.00    +0.000 OA
ATOM     27  C   UNL     1       0.987  11.955  20.689  0.00  0.00    +0.000 C 
ATOM     28  C   UNL     1      -0.146  10.928  20.887  0.00  0.00    +0.000 C 
ENDBRANCH  22  23
ENDBRANCH  21  22
ENDBRANCH   3  21
TORSDOF 6
ENDMDL
MODEL 8
REMARK VINA RESULT:      -7.3      1.927      4.622
REMARK  Name = 
REMARK  10 active torsions:
REMARK  status: ('A' for Active; 'I' for Inactive)
REMARK    1  A    between atoms: C_1  and  C_2
REMARK    2  A    between atoms: C_2  and  C_3
REMARK    3  A    between atoms: C_4  and  C_5
REMARK    4  A    between atoms: C_5  and  C_7
REMARK    5  A    between atoms: N_9  and  C_10
REMARK    6  A    between atoms: C_10  and  C_11
REMARK    7  A    between atoms: C_11  and  N_12
REMARK    8  A    between atoms: C_21  and  O_22
REMARK    9  A    between atoms: C_25  and  C_26
REMARK   10  A    between atoms: C_25  and  C_27
REMARK                            x       y       z     vdW  Elec       q    Type
REMARK                         _______ _______ _______ _____ _____    ______ ____
ROOT
ATOM      1  C   UNL     1       2.900   5.566  17.946  0.00  0.00    +0.000 A 
ATOM      2  C   UNL     1       2.282   6.801  17.961  0.00  0.00    +0.000 A 
ATOM      3  N   UNL     1       3.221   7.776  17.687  0.00  0.00    +0.000 N 
ATOM      4  C   UNL     1       4.459   7.181  17.470  0.00  0.00    +0.000 A 
ATOM      5  C   UNL     1       5.740   7.674  17.135  0.00  0.00    +0.000 A 
ATOM      6  C   UNL     1       6.817   6.790  16.999  0.00  0.00    +0.000 A 
ATOM      7  C   UNL     1       6.631   5.436  17.174  0.00  0.00    +0.000 A 
ATOM      8  C   UNL     1       5.383   4.928  17.497  0.00  0.00    +0.000 A 
ATOM      9  C   UNL     1       4.277   5.804  17.649  0.00  0.00    +0.000 A 
ENDROOT
BRANCH   1  10
ATOM     10  C   UNL     1       2.305   4.264  18.200  0.00  0.00    +0.000 C 
ATOM     11  O   UNL     1       1.518   3.750  17.409  0.00  0.00    +0.000 OA
BRANCH  10  15
ATOM     12  C   UNL     1       3.572   1.440  18.334  0.00  0.00    +0.000 C 
ATOM     13  C   UNL     1       3.298   2.223  19.601  0.00  0.00    +0.000 C 
ATOM     14  C   UNL     1       4.363   1.984  20.649  0.00  0.00    +0.000 C 
ATOM     15  C   UNL     1       2.666   3.609  19.498  0.00  0.00    +0.000 C 
ATOM     16  C   UNL     1       1.848   2.451  20.078  0.00  0.00    +0.000 C 
ATOM     17  C   UNL     1       0.708   1.810  19.316  0.00  0.00    +0.000 C 
ATOM     18  C   UNL     1       1.521   2.546  21.557  0.00  0.00    +0.000 C 
ENDBRANCH  10  15
ENDBRANCH   1  10
BRANCH   7  19
ATOM     19  O   UNL     1       7.665   4.555  17.035  0.00  0.00    +0.000 OA
ATOM     20  H   UNL     1       7.918   4.526  16.099  0.00  0.00    +0.000 HD
ENDBRANCH   7  19
BRANCH   3  21
ATOM     21  C   UNL     1       2.865   9.197  17.762  0.00  0.00    +0.000 C 
BRANCH  21  22
ATOM     22  C   UNL     1       1.633   9.518  18.607  0.00  0.00    +0.000 C 
BRANCH  22  23
ATOM     23  N   UNL     1       0.847  10.719  18.257  0.00  0.00    +0.000 NA
ATOM     24  C   UNL     1       1.450  11.910  18.926  0.00  0.00    +0.000 C 
ATOM     25  C   UNL     1       1.284  11.915  20.460  0.00  0.00    +0.000 C 
ATOM     26  O   UNL     1      -0.095  11.815  20.838  0.00  0.00    +0.000 OA
ATOM     27  C   UNL     1      -0.714  10.656  20.265  0.00  0.00    +0.000 C 
ATOM     28  C   UNL     1      -0.557  10.630  18.731  0.00  0.00    +0.000 C 
ENDBRANCH  22  23
ENDBRANCH  21  22
ENDBRANCH   3  21
TORSDOF 6
ENDMDL
MODEL 9
REMARK VINA RESULT:      -7.2      1.493      2.186
REMARK  Name = 
REMARK  10 active torsions:
REMARK  status: ('A' for Active; 'I' for Inactive)
REMARK    1  A    between atoms: C_1  and  C_2
REMARK    2  A    between atoms: C_2  and  C_3
REMARK    3  A    between atoms: C_4  and  C_5
REMARK    4  A    between atoms: C_5  and  C_7
REMARK    5  A    between atoms: N_9  and  C_10
REMARK    6  A    between atoms: C_10  and  C_11
REMARK    7  A    between atoms: C_11  and  N_12
REMARK    8  A    between atoms: C_21  and  O_22
REMARK    9  A    between atoms: C_25  and  C_26
REMARK   10  A    between atoms: C_25  and  C_27
REMARK                            x       y       z     vdW  Elec       q    Type
REMARK                         _______ _______ _______ _____ _____    ______ ____
ROOT
ATOM      1  C   UNL     1       3.846   5.680  18.569  0.00  0.00    +0.000 A 
ATOM      2  C   UNL     1       3.054   6.499  19.349  0.00  0.00    +0.000 A 
ATOM      3  N   UNL     1       2.189   5.715  20.086  0.00  0.00    +0.000 N 
ATOM      4  C   UNL     1       2.423   4.374  19.807  0.00  0.00    +0.000 A 
ATOM      5  C   UNL     1       1.869   3.162  20.275  0.00  0.00    +0.000 A 
ATOM      6  C   UNL     1       2.327   1.939  19.769  0.00  0.00    +0.000 A 
ATOM      7  C   UNL     1       3.330   1.911  18.825  0.00  0.00    +0.000 A 
ATOM      8  C   UNL     1       3.894   3.086  18.354  0.00  0.00    +0.000 A 
ATOM      9  C   UNL     1       3.441   4.338  18.845  0.00  0.00    +0.000 A 
ENDROOT
BRANCH   1  10
ATOM     10  C   UNL     1       4.880   6.070  17.623  0.00  0.00    +0.000 C 
ATOM     11  O   UNL     1       4.736   5.918  16.413  0.00  0.00    +0.000 OA
BRANCH  10  15
ATOM     12  C   UNL     1       7.320   6.835  15.875  0.00  0.00    +0.000 C 
ATOM     13  C   UNL     1       7.363   7.013  17.379  0.00  0.00    +0.000 C 
ATOM     14  C   UNL     1       8.148   8.245  17.775  0.00  0.00    +0.000 C 
ATOM     15  C   UNL     1       6.145   6.619  18.210  0.00  0.00    +0.000 C 
ATOM     16  C   UNL     1       7.425   5.782  18.308  0.00  0.00    +0.000 C 
ATOM     17  C   UNL     1       7.531   4.400  17.700  0.00  0.00    +0.000 C 
ATOM     18  C   UNL     1       8.158   5.845  19.635  0.00  0.00    +0.000 C 
ENDBRANCH  10  15
ENDBRANCH   1  10
BRANCH   7  19
ATOM     19  O   UNL     1       3.800   0.731  18.326  0.00  0.00    +0.000 OA
ATOM     20  H   UNL     1       3.056   0.245  17.937  0.00  0.00    +0.000 HD
ENDBRANCH   7  19
BRANCH   3  21
ATOM     21  C   UNL     1       1.145   6.332  20.913  0.00  0.00    +0.000 C 
BRANCH  21  22
ATOM     22  C   UNL     1       1.153   7.859  20.944  0.00  0.00    +0.000 C 
BRANCH  22  23
ATOM     23  N   UNL     1      -0.148   8.559  20.941  0.00  0.00    +0.000 NA
ATOM     24  C   UNL     1       0.041   9.939  20.406  0.00  0.00    +0.000 C 
ATOM     25  C   UNL     1       0.845  10.867  21.341  0.00  0.00    +0.000 C 
ATOM     26  O   UNL     1       0.246  10.947  22.641  0.00  0.00    +0.000 OA
ATOM     27  C   UNL     1       0.088   9.649  23.227  0.00  0.00    +0.000 C 
ATOM     28  C   UNL     1      -0.712   8.705  22.307  0.00  0.00    +0.000 C 
ENDBRANCH  22  23
ENDBRANCH  21  22
ENDBRANCH   3  21
TORSDOF 6
ENDMDL
