MODEL 1
REMARK VINA RESULT:      -5.8      0.000      0.000
REMARK  Name = 
REMARK  10 active torsions:
REMARK  status: ('A' for Active; 'I' for Inactive)
REMARK    1  A    between atoms: C_1  and  C_2
REMARK    2  A    between atoms: C_2  and  S_3
REMARK    3  A    between atoms: S_3  and  C_4
REMARK    4  A    between atoms: C_4  and  C_5
REMARK    5  A    between atoms: C_5  and  C_6
REMARK    6  A    between atoms: C_6  and  C_7
REMARK    7  A    between atoms: C_6  and  N_8
REMARK    8  A    between atoms: N_8  and  C_9
REMARK    9  A    between atoms: C_10  and  C_12
REMARK   10  A    between atoms: C_15  and  C_16
REMARK                            x       y       z     vdW  Elec       q    Type
REMARK                         _______ _______ _______ _____ _____    ______ ____
ROOT
ATOM      1  N   UNL     1       5.412   5.754  18.060  0.00  0.00    +0.000 N 
ATOM      2  C   UNL     1       4.378   6.396  17.252  0.00  0.00    +0.000 C 
ATOM      3  C   UNL     1       5.044   4.671  18.907  0.00  0.00    +0.000 C 
ATOM      4  O   UNL     1       5.845   3.783  19.186  0.00  0.00    +0.000 OA
ENDROOT
BRANCH   3   5
ATOM      5  C   UNL     1       3.672   4.619  19.393  0.00  0.00    +0.000 A 
ATOM      6  C   UNL     1       2.960   5.506  20.181  0.00  0.00    +0.000 A 
ATOM      7  C   UNL     1       1.664   4.958  20.351  0.00  0.00    +0.000 A 
ATOM      8  C   UNL     1       1.635   3.804  19.600  0.00  0.00    +0.000 A 
ATOM      9  C   UNL     1       0.590   2.801  19.314  0.00  0.00    +0.000 C 
ATOM     10  O   UNL     1       2.845   3.596  19.013  0.00  0.00    +0.000 OA
ENDBRANCH   3   5
BRANCH   1  11
ATOM     11  C   UNL     1       6.811   5.778  17.561  0.00  0.00    +0.000 C 
ATOM     12  C   UNL     1       7.676   6.785  18.333  0.00  0.00    +0.000 C 
BRANCH  11  13
ATOM     13  C   UNL     1       6.857   6.001  16.033  0.00  0.00    +0.000 C 
BRANCH  13  14
ATOM     14  C   UNL     1       7.167   4.769  15.172  0.00  0.00    +0.000 C 
BRANCH  14  15
ATOM     15  S   UNL     1       5.666   3.943  14.557  0.00  0.00    +0.000 S 
BRANCH  15  17
ATOM     16  C   UNL     1       4.981   3.405  11.968  0.00  0.00    +0.000 C 
ATOM     17  C   UNL     1       6.200   3.586  12.856  0.00  0.00    +0.000 C 
ENDBRANCH  15  17
ENDBRANCH  14  15
ENDBRANCH  13  14
ENDBRANCH  11  13
ENDBRANCH   1  11
TORSDOF 6
ENDMDL
MODEL 2
REMARK VINA RESULT:      -5.7      2.322      4.160
REMARK  Name = 
REMARK  10 active torsions:
REMARK  status: ('A' for Active; 'I' for Inactive)
REMARK    1  A    between atoms: C_1  and  C_2
REMARK    2  A    between atoms: C_2  and  S_3
REMARK    3  A    between atoms: S_3  and  C_4
REMARK    4  A    between atoms: C_4  and  C_5
REMARK    5  A    between atoms: C_5  and  C_6
REMARK    6  A    between atoms: C_6  and  C_7
REMARK    7  A    between atoms: C_6  and  N_8
REMARK    8  A    between atoms: N_8  and  C_9
REMARK    9  A    between atoms: C_10  and  C_12
REMARK   10  A    between atoms: C_15  and  C_16
REMARK                            x       y       z     vdW  Elec       q    Type
REMARK                         _______ _______ _______ _____ _____    ______ ____
ROOT
ATOM      1  N   UNL     1       4.978   5.263  17.856  0.00  0.00    +0.000 N 
ATOM      2  C   UNL     1       5.452   4.227  18.770  0.00  0.00    +0.000 C 
ATOM      3  C   UNL     1       3.754   5.927  18.151  0.00  0.00    +0.000 C 
ATOM      4  O   UNL     1       3.556   7.084  17.788  0.00  0.00    +0.000 OA
ENDROOT
BRANCH   3   5
ATOM      5  C   UNL     1       2.761   5.212  18.941  0.00  0.00    +0.000 A 
ATOM      6  C   UNL     1       2.196   5.513  20.167  0.00  0.00    +0.000 A 
ATOM      7  C   UNL     1       1.286   4.470  20.469  0.00  0.00    +0.000 A 
ATOM      8  C   UNL     1       1.293   3.627  19.380  0.00  0.00    +0.000 A 
ATOM      9  C   UNL     1       0.553   2.396  19.039  0.00  0.00    +0.000 C 
ATOM     10  O   UNL     1       2.180   4.073  18.449  0.00  0.00    +0.000 OA
ENDBRANCH   3   5
BRANCH   1  11
ATOM     11  C   UNL     1       5.984   6.017  17.065  0.00  0.00    +0.000 C 
ATOM     12  C   UNL     1       5.881   5.704  15.564  0.00  0.00    +0.000 C 
BRANCH  11  13
ATOM     13  C   UNL     1       7.409   5.804  17.622  0.00  0.00    +0.000 C 
BRANCH  13  14
ATOM     14  C   UNL     1       7.972   6.929  18.502  0.00  0.00    +0.000 C 
BRANCH  14  15
ATOM     15  S   UNL     1       7.836   8.568  17.724  0.00  0.00    +0.000 S 
BRANCH  15  17
ATOM     16  C   UNL     1       9.286  10.828  18.222  0.00  0.00    +0.000 C 
ATOM     17  C   UNL     1       8.853   9.531  18.883  0.00  0.00    +0.000 C 
ENDBRANCH  15  17
ENDBRANCH  14  15
ENDBRANCH  13  14
ENDBRANCH  11  13
ENDBRANCH   1  11
TORSDOF 6
ENDMDL
MODEL 3
REMARK VINA RESULT:      -5.7      1.556      1.795
REMARK  Name = 
REMARK  10 active torsions:
REMARK  status: ('A' for Active; 'I' for Inactive)
REMARK    1  A    between atoms: C_1  and  C_2
REMARK    2  A    between atoms: C_2  and  S_3
REMARK    3  A    between atoms: S_3  and  C_4
REMARK    4  A    between atoms: C_4  and  C_5
REMARK    5  A    between atoms: C_5  and  C_6
REMARK    6  A    between atoms: C_6  and  C_7
REMARK    7  A    between atoms: C_6  and  N_8
REMARK    8  A    between atoms: N_8  and  C_9
REMARK    9  A    between atoms: C_10  and  C_12
REMARK   10  A    between atoms: C_15  and  C_16
REMARK                            x       y       z     vdW  Elec       q    Type
REMARK                         _______ _______ _______ _____ _____    ______ ____
ROOT
ATOM      1  N   UNL     1       5.076   4.550  18.298  0.00  0.00    +0.000 N 
ATOM      2  C   UNL     1       4.943   5.605  19.299  0.00  0.00    +0.000 C 
ATOM      3  C   UNL     1       3.913   3.830  17.905  0.00  0.00    +0.000 C 
ATOM      4  O   UNL     1       3.815   3.345  16.780  0.00  0.00    +0.000 OA
ENDROOT
BRANCH   3   5
ATOM      5  C   UNL     1       2.817   3.727  18.859  0.00  0.00    +0.000 A 
ATOM      6  C   UNL     1       1.511   4.176  18.786  0.00  0.00    +0.000 A 
ATOM      7  C   UNL     1       0.879   3.807  19.998  0.00  0.00    +0.000 A 
ATOM      8  C   UNL     1       1.812   3.091  20.715  0.00  0.00    +0.000 A 
ATOM      9  C   UNL     1       1.784   2.398  22.018  0.00  0.00    +0.000 C 
ATOM     10  O   UNL     1       2.986   3.034  20.029  0.00  0.00    +0.000 OA
ENDBRANCH   3   5
BRANCH   1  11
ATOM     11  C   UNL     1       6.173   4.658  17.303  0.00  0.00    +0.000 C 
ATOM     12  C   UNL     1       7.557   4.604  17.970  0.00  0.00    +0.000 C 
BRANCH  11  13
ATOM     13  C   UNL     1       5.994   5.900  16.403  0.00  0.00    +0.000 C 
BRANCH  13  14
ATOM     14  C   UNL     1       5.678   5.633  14.925  0.00  0.00    +0.000 C 
BRANCH  14  15
ATOM     15  S   UNL     1       6.348   4.045  14.338  0.00  0.00    +0.000 S 
BRANCH  15  17
ATOM     16  C   UNL     1       5.874   2.842  11.932  0.00  0.00    +0.000 C 
ATOM     17  C   UNL     1       5.200   3.730  12.964  0.00  0.00    +0.000 C 
ENDBRANCH  15  17
ENDBRANCH  14  15
ENDBRANCH  13  14
ENDBRANCH  11  13
ENDBRANCH   1  11
TORSDOF 6
ENDMDL
MODEL 4
REMARK VINA RESULT:      -5.6      1.568      1.860
REMARK  Name = 
REMARK  10 active torsions:
REMARK  status: ('A' for Active; 'I' for Inactive)
REMARK    1  A    between atoms: C_1  and  C_2
REMARK    2  A    between atoms: C_2  and  S_3
REMARK    3  A    between atoms: S_3  and  C_4
REMARK    4  A    between atoms: C_4  and  C_5
REMARK    5  A    between atoms: C_5  and  C_6
REMARK    6  A    between atoms: C_6  and  C_7
REMARK    7  A    between atoms: C_6  and  N_8
REMARK    8  A    between atoms: N_8  and  C_9
REMARK    9  A    between atoms: C_10  and  C_12
REMARK   10  A    between atoms: C_15  and  C_16
REMARK                            x       y       z     vdW  Elec       q    Type
REMARK                         _______ _______ _______ _____ _____    ______ ____
ROOT
ATOM      1  N   UNL     1       4.867   4.532  17.514  0.00  0.00    +0.000 N 
ATOM      2  C   UNL     1       3.721   3.852  16.916  0.00  0.00    +0.000 C 
ATOM      3  C   UNL     1       4.932   4.645  18.931  0.00  0.00    +0.000 C 
ATOM      4  O   UNL     1       6.011   4.700  19.516  0.00  0.00    +0.000 OA
ENDROOT
BRANCH   3   5
ATOM      5  C   UNL     1       3.680   4.643  19.675  0.00  0.00    +0.000 A 
ATOM      6  C   UNL     1       2.721   5.627  19.830  0.00  0.00    +0.000 A 
ATOM      7  C   UNL     1       1.707   5.089  20.660  0.00  0.00    +0.000 A 
ATOM      8  C   UNL     1       2.067   3.782  20.908  0.00  0.00    +0.000 A 
ATOM      9  C   UNL     1       1.437   2.675  21.653  0.00  0.00    +0.000 C 
ATOM     10  O   UNL     1       3.257   3.504  20.309  0.00  0.00    +0.000 OA
ENDBRANCH   3   5
BRANCH   1  11
ATOM     11  C   UNL     1       6.157   4.517  16.777  0.00  0.00    +0.000 C 
ATOM     12  C   UNL     1       6.700   5.936  16.548  0.00  0.00    +0.000 C 
BRANCH  11  13
ATOM     13  C   UNL     1       6.046   3.704  15.468  0.00  0.00    +0.000 C 
BRANCH  13  14
ATOM     14  C   UNL     1       5.979   4.513  14.165  0.00  0.00    +0.000 C 
BRANCH  14  15
ATOM     15  S   UNL     1       6.235   3.486  12.685  0.00  0.00    +0.000 S 
BRANCH  15  17
ATOM     16  C   UNL     1       8.086   5.495  12.712  0.00  0.00    +0.000 C 
ATOM     17  C   UNL     1       7.340   4.586  11.750  0.00  0.00    +0.000 C 
ENDBRANCH  15  17
ENDBRANCH  14  15
ENDBRANCH  13  14
ENDBRANCH  11  13
ENDBRANCH   1  11
TORSDOF 6
ENDMDL
MODEL 5
REMARK VINA RESULT:      -5.6      1.453      1.645
REMARK  Name = 
REMARK  10 active torsions:
REMARK  status: ('A' for Active; 'I' for Inactive)
REMARK    1  A    between atoms: C_1  and  C_2
REMARK    2  A    between atoms: C_2  and  S_3
REMARK    3  A    between atoms: S_3  and  C_4
REMARK    4  A    between atoms: C_4  and  C_5
REMARK    5  A    between atoms: C_5  and  C_6
REMARK    6  A    between atoms: C_6  and  C_7
REMARK    7  A    between atoms: C_6  and  N_8
REMARK    8  A    between atoms: N_8  and  C_9
REMARK    9  A    between atoms: C_10  and  C_12
REMARK   10  A    between atoms: C_15  and  C_16
REMARK                            x       y       z     vdW  Elec       q    Type
REMARK                         _______ _______ _______ _____ _____    ______ ____
ROOT
ATOM      1  N   UNL     1       5.000   4.510  17.482  0.00  0.00    +0.000 N 
ATOM      2  C   UNL     1       3.814   3.897  16.889  0.00  0.00    +0.000 C 
ATOM      3  C   UNL     1       5.084   4.605  18.900  0.00  0.00    +0.000 C 
ATOM      4  O   UNL     1       6.170   4.598  19.473  0.00  0.00    +0.000 OA
ENDROOT
BRANCH   3   5
ATOM      5  C   UNL     1       3.841   4.659  19.656  0.00  0.00    +0.000 A 
ATOM      6  C   UNL     1       2.971   5.709  19.888  0.00  0.00    +0.000 A 
ATOM      7  C   UNL     1       1.920   5.205  20.692  0.00  0.00    +0.000 A 
ATOM      8  C   UNL     1       2.169   3.859  20.849  0.00  0.00    +0.000 A 
ATOM      9  C   UNL     1       1.451   2.762  21.527  0.00  0.00    +0.000 C 
ATOM     10  O   UNL     1       3.327   3.521  20.219  0.00  0.00    +0.000 OA
ENDBRANCH   3   5
BRANCH   1  11
ATOM     11  C   UNL     1       6.279   4.437  16.731  0.00  0.00    +0.000 C 
ATOM     12  C   UNL     1       6.889   5.829  16.505  0.00  0.00    +0.000 C 
BRANCH  11  13
ATOM     13  C   UNL     1       6.115   3.639  15.419  0.00  0.00    +0.000 C 
BRANCH  13  14
ATOM     14  C   UNL     1       6.122   4.454  14.119  0.00  0.00    +0.000 C 
BRANCH  14  15
ATOM     15  S   UNL     1       5.205   3.641  12.774  0.00  0.00    +0.000 S 
BRANCH  15  17
ATOM     16  C   UNL     1       6.082   1.512  11.304  0.00  0.00    +0.000 C 
ATOM     17  C   UNL     1       6.583   2.796  11.943  0.00  0.00    +0.000 C 
ENDBRANCH  15  17
ENDBRANCH  14  15
ENDBRANCH  13  14
ENDBRANCH  11  13
ENDBRANCH   1  11
TORSDOF 6
ENDMDL
MODEL 6
REMARK VINA RESULT:      -5.5      2.772      6.085
REMARK  Name = 
REMARK  10 active torsions:
REMARK  status: ('A' for Active; 'I' for Inactive)
REMARK    1  A    between atoms: C_1  and  C_2
REMARK    2  A    between atoms: C_2  and  S_3
REMARK    3  A    between atoms: S_3  and  C_4
REMARK    4  A    between atoms: C_4  and  C_5
REMARK    5  A    between atoms: C_5  and  C_6
REMARK    6  A    between atoms: C_6  and  C_7
REMARK    7  A    between atoms: C_6  and  N_8
REMARK    8  A    between atoms: N_8  and  C_9
REMARK    9  A    between atoms: C_10  and  C_12
REMARK   10  A    between atoms: C_15  and  C_16
REMARK                            x       y       z     vdW  Elec       q    Type
REMARK                         _______ _______ _______ _____ _____    ______ ____
ROOT
ATOM      1  N   UNL     1       5.060   4.922  16.876  0.00  0.00    +0.000 N 
ATOM      2  C   UNL     1       4.574   3.550  16.755  0.00  0.00    +0.000 C 
ATOM      3  C   UNL     1       5.373   5.644  15.690  0.00  0.00    +0.000 C 
ATOM      4  O   UNL     1       5.272   6.868  15.646  0.00  0.00    +0.000 OA
ENDROOT
BRANCH   3   5
ATOM      5  C   UNL     1       5.768   4.885  14.512  0.00  0.00    +0.000 A 
ATOM      6  C   UNL     1       7.018   4.493  14.069  0.00  0.00    +0.000 A 
ATOM      7  C   UNL     1       6.822   3.777  12.862  0.00  0.00    +0.000 A 
ATOM      8  C   UNL     1       5.460   3.710  12.673  0.00  0.00    +0.000 A 
ATOM      9  C   UNL     1       4.603   3.078  11.650  0.00  0.00    +0.000 C 
ATOM     10  O   UNL     1       4.815   4.374  13.671  0.00  0.00    +0.000 OA
ENDBRANCH   3   5
BRANCH   1  11
ATOM     11  C   UNL     1       4.642   5.715  18.061  0.00  0.00    +0.000 C 
ATOM     12  C   UNL     1       5.370   5.263  19.337  0.00  0.00    +0.000 C 
BRANCH  11  13
ATOM     13  C   UNL     1       3.106   5.717  18.220  0.00  0.00    +0.000 C 
BRANCH  13  14
ATOM     14  C   UNL     1       2.566   6.004  19.628  0.00  0.00    +0.000 C 
BRANCH  14  15
ATOM     15  S   UNL     1       1.655   4.595  20.334  0.00  0.00    +0.000 S 
BRANCH  15  17
ATOM     16  C   UNL     1       1.592   2.175  19.067  0.00  0.00    +0.000 C 
ATOM     17  C   UNL     1       1.343   3.652  18.811  0.00  0.00    +0.000 C 
ENDBRANCH  15  17
ENDBRANCH  14  15
ENDBRANCH  13  14
ENDBRANCH  11  13
ENDBRANCH   1  11
TORSDOF 6
ENDMDL
MODEL 7
REMARK VINA RESULT:      -5.5      1.090      1.584
REMARK  Name = 
REMARK  10 active torsions:
REMARK  status: ('A' for Active; 'I' for Inactive)
REMARK    1  A    between atoms: C_1  and  C_2
REMARK    2  A    between atoms: C_2  and  S_3
REMARK    3  A    between atoms: S_3  and  C_4
REMARK    4  A    between atoms: C_4  and  C_5
REMARK    5  A    between atoms: C_5  and  C_6
REMARK    6  A    between atoms: C_6  and  C_7
REMARK    7  A    between atoms: C_6  and  N_8
REMARK    8  A    between atoms: N_8  and  C_9
REMARK    9  A    between atoms: C_10  and  C_12
REMARK   10  A    between atoms: C_15  and  C_16
REMARK                            x       y       z     vdW  Elec       q    Type
REMARK                         _______ _______ _______ _____ _____    ______ ____
ROOT
ATOM      1  N   UNL     1       5.548   5.803  18.202  0.00  0.00    +0.000 N 
ATOM      2  C   UNL     1       4.594   6.454  17.308  0.00  0.00    +0.000 C 
ATOM      3  C   UNL     1       5.066   4.837  19.130  0.00  0.00    +0.000 C 
ATOM      4  O   UNL     1       5.779   3.913  19.513  0.00  0.00    +0.000 OA
ENDROOT
BRANCH   3   5
ATOM      5  C   UNL     1       3.684   4.947  19.575  0.00  0.00    +0.000 A 
ATOM      6  C   UNL     1       2.698   3.986  19.704  0.00  0.00    +0.000 A 
ATOM      7  C   UNL     1       1.537   4.645  20.179  0.00  0.00    +0.000 A 
ATOM      8  C   UNL     1       1.899   5.959  20.382  0.00  0.00    +0.000 A 
ATOM      9  C   UNL     1       1.186   7.144  20.899  0.00  0.00    +0.000 C 
ATOM     10  O   UNL     1       3.198   6.147  20.025  0.00  0.00    +0.000 OA
ENDBRANCH   3   5
BRANCH   1  11
ATOM     11  C   UNL     1       6.954   5.661  17.747  0.00  0.00    +0.000 C 
ATOM     12  C   UNL     1       7.528   6.993  17.239  0.00  0.00    +0.000 C 
BRANCH  11  13
ATOM     13  C   UNL     1       7.098   4.519  16.717  0.00  0.00    +0.000 C 
BRANCH  13  14
ATOM     14  C   UNL     1       7.109   4.931  15.238  0.00  0.00    +0.000 C 
BRANCH  14  15
ATOM     15  S   UNL     1       5.644   4.342  14.333  0.00  0.00    +0.000 S 
BRANCH  15  17
ATOM     16  C   UNL     1       5.443   3.008  11.958  0.00  0.00    +0.000 C 
ATOM     17  C   UNL     1       6.452   3.752  12.815  0.00  0.00    +0.000 C 
ENDBRANCH  15  17
ENDBRANCH  14  15
ENDBRANCH  13  14
ENDBRANCH  11  13
ENDBRANCH   1  11
TORSDOF 6
ENDMDL
MODEL 8
REMARK VINA RESULT:      -5.4      2.419      5.647
REMARK  Name = 
REMARK  10 active torsions:
REMARK  status: ('A' for Active; 'I' for Inactive)
REMARK    1  A    between atoms: C_1  and  C_2
REMARK    2  A    between atoms: C_2  and  S_3
REMARK    3  A    between atoms: S_3  and  C_4
REMARK    4  A    between atoms: C_4  and  C_5
REMARK    5  A    between atoms: C_5  and  C_6
REMARK    6  A    between atoms: C_6  and  C_7
REMARK    7  A    between atoms: C_6  and  N_8
REMARK    8  A    between atoms: N_8  and  C_9
REMARK    9  A    between atoms: C_10  and  C_12
REMARK   10  A    between atoms: C_15  and  C_16
REMARK                            x       y       z     vdW  Elec       q    Type
REMARK                         _______ _______ _______ _____ _____    ______ ____
ROOT
ATOM      1  N   UNL     1       5.981   5.368  16.795  0.00  0.00    +0.000 N 
ATOM      2  C   UNL     1       5.261   6.403  16.056  0.00  0.00    +0.000 C 
ATOM      3  C   UNL     1       7.022   4.657  16.136  0.00  0.00    +0.000 C 
ATOM      4  O   UNL     1       7.972   4.196  16.764  0.00  0.00    +0.000 OA
ENDROOT
BRANCH   3   5
ATOM      5  C   UNL     1       6.956   4.534  14.686  0.00  0.00    +0.000 A 
ATOM      6  C   UNL     1       7.675   5.172  13.692  0.00  0.00    +0.000 A 
ATOM      7  C   UNL     1       7.200   4.675  12.454  0.00  0.00    +0.000 A 
ATOM      8  C   UNL     1       6.267   3.709  12.762  0.00  0.00    +0.000 A 
ATOM      9  C   UNL     1       5.443   2.793  11.949  0.00  0.00    +0.000 C 
ATOM     10  O   UNL     1       6.118   3.615  14.111  0.00  0.00    +0.000 OA
ENDBRANCH   3   5
BRANCH   1  11
ATOM     11  C   UNL     1       6.078   5.497  18.271  0.00  0.00    +0.000 C 
ATOM     12  C   UNL     1       7.433   6.077  18.706  0.00  0.00    +0.000 C 
BRANCH  11  13
ATOM     13  C   UNL     1       5.749   4.162  18.974  0.00  0.00    +0.000 C 
BRANCH  13  14
ATOM     14  C   UNL     1       4.316   4.004  19.503  0.00  0.00    +0.000 C 
BRANCH  14  15
ATOM     15  S   UNL     1       3.447   2.583  18.770  0.00  0.00    +0.000 S 
BRANCH  15  17
ATOM     16  C   UNL     1       1.845   4.568  17.793  0.00  0.00    +0.000 C 
ATOM     17  C   UNL     1       2.702   3.403  17.328  0.00  0.00    +0.000 C 
ENDBRANCH  15  17
ENDBRANCH  14  15
ENDBRANCH  13  14
ENDBRANCH  11  13
ENDBRANCH   1  11
TORSDOF 6
ENDMDL
MODEL 9
REMARK VINA RESULT:      -5.4      2.620      6.274
REMARK  Name = 
REMARK  10 active torsions:
REMARK  status: ('A' for Active; 'I' for Inactive)
REMARK    1  A    between atoms: C_1  and  C_2
REMARK    2  A    between atoms: C_2  and  S_3
REMARK    3  A    between atoms: S_3  and  C_4
REMARK    4  A    between atoms: C_4  and  C_5
REMARK    5  A    between atoms: C_5  and  C_6
REMARK    6  A    between atoms: C_6  and  C_7
REMARK    7  A    between atoms: C_6  and  N_8
REMARK    8  A    between atoms: N_8  and  C_9
REMARK    9  A    between atoms: C_10  and  C_12
REMARK   10  A    between atoms: C_15  and  C_16
REMARK                            x       y       z     vdW  Elec       q    Type
REMARK                         _______ _______ _______ _____ _____    ______ ____
ROOT
ATOM      1  N   UNL     1       5.436   4.825  16.693  0.00  0.00    +0.000 N 
ATOM      2  C   UNL     1       5.108   3.404  16.613  0.00  0.00    +0.000 C 
ATOM      3  C   UNL     1       5.558   5.568  15.485  0.00  0.00    +0.000 C 
ATOM      4  O   UNL     1       5.308   6.770  15.451  0.00  0.00    +0.000 OA
ENDROOT
BRANCH   3   5
ATOM      5  C   UNL     1       5.939   4.850  14.277  0.00  0.00    +0.000 A 
ATOM      6  C   UNL     1       7.183   4.633  13.711  0.00  0.00    +0.000 A 
ATOM      7  C   UNL     1       6.973   3.872  12.534  0.00  0.00    +0.000 A 
ATOM      8  C   UNL     1       5.623   3.606  12.485  0.00  0.00    +0.000 A 
ATOM      9  C   UNL     1       4.769   2.838  11.558  0.00  0.00    +0.000 C 
ATOM     10  O   UNL     1       4.992   4.190  13.540  0.00  0.00    +0.000 OA
ENDBRANCH   3   5
BRANCH   1  11
ATOM     11  C   UNL     1       5.028   5.573  17.910  0.00  0.00    +0.000 C 
ATOM     12  C   UNL     1       6.043   5.406  19.051  0.00  0.00    +0.000 C 
BRANCH  11  13
ATOM     13  C   UNL     1       3.588   5.209  18.336  0.00  0.00    +0.000 C 
BRANCH  13  14
ATOM     14  C   UNL     1       3.405   4.729  19.782  0.00  0.00    +0.000 C 
BRANCH  14  15
ATOM     15  S   UNL     1       3.424   2.915  19.929  0.00  0.00    +0.000 S 
BRANCH  15  17
ATOM     16  C   UNL     1       0.947   3.936  20.461  0.00  0.00    +0.000 C 
ATOM     17  C   UNL     1       1.647   2.619  20.174  0.00  0.00    +0.000 C 
ENDBRANCH  15  17
ENDBRANCH  14  15
ENDBRANCH  13  14
ENDBRANCH  11  13
ENDBRANCH   1  11
TORSDOF 6
ENDMDL
