MODEL 1
REMARK VINA RESULT:      -7.7      0.000      0.000
REMARK  Name = 
REMARK  3 active torsions:
REMARK  status: ('A' for Active; 'I' for Inactive)
REMARK    1  A    between atoms: C_2  and  C_18
REMARK    2  A    between atoms: N_3  and  N_4
REMARK    3  A    between atoms: C_9  and  C_10
REMARK                            x       y       z     vdW  Elec       q    Type
REMARK                         _______ _______ _______ _____ _____    ______ ____
ROOT
ATOM      1  N   UNL     1       5.267   3.354  19.222  0.00  0.00    +0.000 N 
ATOM      2  C   UNL     1       4.008   3.739  19.760  0.00  0.00    +0.000 A 
ATOM      3  N   UNL     1       3.260   2.842  20.452  0.00  0.00    +0.000 NA
ATOM      4  N   UNL     1       2.063   3.183  20.932  0.00  0.00    +0.000 NA
ATOM      5  C   UNL     1       1.572   4.436  20.778  0.00  0.00    +0.000 A 
ATOM      6  C   UNL     1       2.357   5.402  20.127  0.00  0.00    +0.000 A 
ATOM      7  N   UNL     1       3.561   5.016  19.632  0.00  0.00    +0.000 NA
ATOM      8  H   UNL     1       5.776   2.589  19.690  0.00  0.00    +0.000 HD
ENDROOT
BRANCH   6   9
ATOM      9  C   UNL     1       1.931   6.822  19.992  0.00  0.00    +0.000 A 
ATOM     10  C   UNL     1       2.169   7.506  18.781  0.00  0.00    +0.000 A 
ATOM     11  C   UNL     1       1.813   8.850  18.640  0.00  0.00    +0.000 A 
ATOM     12  C   UNL     1       1.195   9.526  19.695  0.00  0.00    +0.000 A 
ATOM     13 CL   UNL     1       0.740  11.210  19.514  0.00  0.00    +0.000 Cl
ATOM     14  C   UNL     1       0.938   8.857  20.894  0.00  0.00    +0.000 A 
ATOM     15  C   UNL     1       1.313   7.519  21.049  0.00  0.00    +0.000 A 
ENDBRANCH   6   9
BRANCH   1  18
ATOM     16  O   UNL     1       4.191   3.475  16.698  0.00  0.00    +0.000 OA
ATOM     17  C   UNL     1       5.276   4.007  16.886  0.00  0.00    +0.000 C 
ATOM     18  N   UNL     1       5.858   3.967  18.128  0.00  0.00    +0.000 N 
ATOM     19  H   UNL     1       6.829   4.289  18.240  0.00  0.00    +0.000 HD
BRANCH  17  20
ATOM     20  C   UNL     1       5.960   4.617  15.677  0.00  0.00    +0.000 C 
ATOM     21 CL   UNL     1       5.839   3.656  14.176  0.00  0.00    +0.000 Cl
ATOM     22 CL   UNL     1       5.252   6.224  15.362  0.00  0.00    +0.000 Cl
ATOM     23 CL   UNL     1       7.693   4.826  16.035  0.00  0.00    +0.000 Cl
ENDBRANCH  17  20
ENDBRANCH   1  18
TORSDOF 3
ENDMDL
MODEL 2
REMARK VINA RESULT:      -7.7      0.089      1.060
REMARK  Name = 
REMARK  3 active torsions:
REMARK  status: ('A' for Active; 'I' for Inactive)
REMARK    1  A    between atoms: C_2  and  C_18
REMARK    2  A    between atoms: N_3  and  N_4
REMARK    3  A    between atoms: C_9  and  C_10
REMARK                            x       y       z     vdW  Elec       q    Type
REMARK                         _______ _______ _______ _____ _____    ______ ____
ROOT
ATOM      1  N   UNL     1       5.204   3.358  19.263  0.00  0.00    +0.000 N 
ATOM      2  C   UNL     1       3.946   3.772  19.783  0.00  0.00    +0.000 A 
ATOM      3  N   UNL     1       3.171   2.894  20.469  0.00  0.00    +0.000 NA
ATOM      4  N   UNL     1       1.975   3.261  20.931  0.00  0.00    +0.000 NA
ATOM      5  C   UNL     1       1.512   4.525  20.766  0.00  0.00    +0.000 A 
ATOM      6  C   UNL     1       2.326   5.470  20.122  0.00  0.00    +0.000 A 
ATOM      7  N   UNL     1       3.528   5.057  19.644  0.00  0.00    +0.000 NA
ATOM      8  H   UNL     1       5.691   2.585  19.741  0.00  0.00    +0.000 HD
ENDROOT
BRANCH   6   9
ATOM      9  C   UNL     1       1.932   6.899  19.975  0.00  0.00    +0.000 A 
ATOM     10  C   UNL     1       1.277   7.551  21.041  0.00  0.00    +0.000 A 
ATOM     11  C   UNL     1       0.864   8.881  20.917  0.00  0.00    +0.000 A 
ATOM     12  C   UNL     1       1.116   9.586  19.737  0.00  0.00    +0.000 A 
ATOM     13 CL   UNL     1       0.604  11.257  19.585  0.00  0.00    +0.000 Cl
ATOM     14  C   UNL     1       1.777   8.958  18.679  0.00  0.00    +0.000 A 
ATOM     15  C   UNL     1       2.173   7.621  18.790  0.00  0.00    +0.000 A 
ENDBRANCH   6   9
BRANCH   1  18
ATOM     16  O   UNL     1       4.139   3.542  16.738  0.00  0.00    +0.000 OA
ATOM     17  C   UNL     1       5.245   4.027  16.932  0.00  0.00    +0.000 C 
ATOM     18  N   UNL     1       5.822   3.954  18.175  0.00  0.00    +0.000 N 
ATOM     19  H   UNL     1       6.805   4.235  18.291  0.00  0.00    +0.000 HD
BRANCH  17  20
ATOM     20  C   UNL     1       5.957   4.618  15.728  0.00  0.00    +0.000 C 
ATOM     21 CL   UNL     1       5.854   3.640  14.237  0.00  0.00    +0.000 Cl
ATOM     22 CL   UNL     1       5.268   6.226  15.382  0.00  0.00    +0.000 Cl
ATOM     23 CL   UNL     1       7.684   4.816  16.116  0.00  0.00    +0.000 Cl
ENDBRANCH  17  20
ENDBRANCH   1  18
TORSDOF 3
ENDMDL
MODEL 3
REMARK VINA RESULT:      -7.6      1.189      1.284
REMARK  Name = 
REMARK  3 active torsions:
REMARK  status: ('A' for Active; 'I' for Inactive)
REMARK    1  A    between atoms: C_2  and  C_18
REMARK    2  A    between atoms: N_3  and  N_4
REMARK    3  A    between atoms: C_9  and  C_10
REMARK                            x       y       z     vdW  Elec       q    Type
REMARK                         _______ _______ _______ _____ _____    ______ ____
ROOT
ATOM      1  N   UNL     1       5.097   3.266  19.033  0.00  0.00    +0.000 N 
ATOM      2  C   UNL     1       3.913   3.621  19.736  0.00  0.00    +0.000 A 
ATOM      3  N   UNL     1       3.286   2.706  20.520  0.00  0.00    +0.000 NA
ATOM      4  N   UNL     1       2.157   3.018  21.157  0.00  0.00    +0.000 NA
ATOM      5  C   UNL     1       1.620   4.259  21.076  0.00  0.00    +0.000 A 
ATOM      6  C   UNL     1       2.287   5.243  20.329  0.00  0.00    +0.000 A 
ATOM      7  N   UNL     1       3.422   4.886  19.674  0.00  0.00    +0.000 NA
ATOM      8  H   UNL     1       5.682   2.513  19.425  0.00  0.00    +0.000 HD
ENDROOT
BRANCH   6   9
ATOM      9  C   UNL     1       1.814   6.654  20.257  0.00  0.00    +0.000 A 
ATOM     10  C   UNL     1       2.145   7.440  19.134  0.00  0.00    +0.000 A 
ATOM     11  C   UNL     1       1.745   8.778  19.058  0.00  0.00    +0.000 A 
ATOM     12  C   UNL     1       0.990   9.343  20.089  0.00  0.00    +0.000 A 
ATOM     13 CL   UNL     1       0.481  11.019  19.990  0.00  0.00    +0.000 Cl
ATOM     14  C   UNL     1       0.642   8.572  21.200  0.00  0.00    +0.000 A 
ATOM     15  C   UNL     1       1.059   7.240  21.292  0.00  0.00    +0.000 A 
ENDBRANCH   6   9
BRANCH   1  18
ATOM     16  O   UNL     1       6.485   5.634  18.925  0.00  0.00    +0.000 OA
ATOM     17  C   UNL     1       6.219   5.075  17.870  0.00  0.00    +0.000 C 
ATOM     18  N   UNL     1       5.521   3.893  17.872  0.00  0.00    +0.000 N 
ATOM     19  H   UNL     1       5.180   3.509  16.980  0.00  0.00    +0.000 HD
BRANCH  17  20
ATOM     20  C   UNL     1       6.618   5.792  16.594  0.00  0.00    +0.000 C 
ATOM     21 CL   UNL     1       7.468   4.779  15.393  0.00  0.00    +0.000 Cl
ATOM     22 CL   UNL     1       5.154   6.453  15.820  0.00  0.00    +0.000 Cl
ATOM     23 CL   UNL     1       7.699   7.148  17.005  0.00  0.00    +0.000 Cl
ENDBRANCH  17  20
ENDBRANCH   1  18
TORSDOF 3
ENDMDL
MODEL 4
REMARK VINA RESULT:      -7.6      0.292      1.505
REMARK  Name = 
REMARK  3 active torsions:
REMARK  status: ('A' for Active; 'I' for Inactive)
REMARK    1  A    between atoms: C_2  and  C_18
REMARK    2  A    between atoms: N_3  and  N_4
REMARK    3  A    between atoms: C_9  and  C_10
REMARK                            x       y       z     vdW  Elec       q    Type
REMARK                         _______ _______ _______ _____ _____    ______ ____
ROOT
ATOM      1  N   UNL     1       5.318   3.525  18.990  0.00  0.00    +0.000 N 
ATOM      2  C   UNL     1       4.078   3.886  19.586  0.00  0.00    +0.000 A 
ATOM      3  N   UNL     1       3.370   2.968  20.293  0.00  0.00    +0.000 NA
ATOM      4  N   UNL     1       2.190   3.285  20.827  0.00  0.00    +0.000 NA
ATOM      5  C   UNL     1       1.678   4.535  20.715  0.00  0.00    +0.000 A 
ATOM      6  C   UNL     1       2.424   5.521  20.049  0.00  0.00    +0.000 A 
ATOM      7  N   UNL     1       3.611   5.159  19.498  0.00  0.00    +0.000 NA
ATOM      8  H   UNL     1       5.855   2.759  19.423  0.00  0.00    +0.000 HD
ENDROOT
BRANCH   6   9
ATOM      9  C   UNL     1       1.976   6.938  19.956  0.00  0.00    +0.000 A 
ATOM     10  C   UNL     1       1.340   7.539  21.062  0.00  0.00    +0.000 A 
ATOM     11  C   UNL     1       0.876   8.856  20.989  0.00  0.00    +0.000 A 
ATOM     12  C   UNL     1       1.060   9.600  19.820  0.00  0.00    +0.000 A 
ATOM     13 CL   UNL     1       0.486  11.255  19.732  0.00  0.00    +0.000 Cl
ATOM     14  C   UNL     1       1.702   9.023  18.723  0.00  0.00    +0.000 A 
ATOM     15  C   UNL     1       2.148   7.699  18.782  0.00  0.00    +0.000 A 
ENDBRANCH   6   9
BRANCH   1  18
ATOM     16  O   UNL     1       4.128   3.691  16.519  0.00  0.00    +0.000 OA
ATOM     17  C   UNL     1       5.218   4.225  16.670  0.00  0.00    +0.000 C 
ATOM     18  N   UNL     1       5.856   4.164  17.883  0.00  0.00    +0.000 N 
ATOM     19  H   UNL     1       6.829   4.489  17.957  0.00  0.00    +0.000 HD
BRANCH  17  20
ATOM     20  C   UNL     1       5.843   4.864  15.443  0.00  0.00    +0.000 C 
ATOM     21 CL   UNL     1       7.627   4.953  15.465  0.00  0.00    +0.000 Cl
ATOM     22 CL   UNL     1       5.355   3.940  13.998  0.00  0.00    +0.000 Cl
ATOM     23 CL   UNL     1       5.231   6.529  15.281  0.00  0.00    +0.000 Cl
ENDBRANCH  17  20
ENDBRANCH   1  18
TORSDOF 3
ENDMDL
MODEL 5
REMARK VINA RESULT:      -7.6      0.292      1.070
REMARK  Name = 
REMARK  3 active torsions:
REMARK  status: ('A' for Active; 'I' for Inactive)
REMARK    1  A    between atoms: C_2  and  C_18
REMARK    2  A    between atoms: N_3  and  N_4
REMARK    3  A    between atoms: C_9  and  C_10
REMARK                            x       y       z     vdW  Elec       q    Type
REMARK                         _______ _______ _______ _____ _____    ______ ____
ROOT
ATOM      1  N   UNL     1       5.350   3.540  18.982  0.00  0.00    +0.000 N 
ATOM      2  C   UNL     1       4.110   3.893  19.582  0.00  0.00    +0.000 A 
ATOM      3  N   UNL     1       3.419   2.976  20.306  0.00  0.00    +0.000 NA
ATOM      4  N   UNL     1       2.239   3.285  20.844  0.00  0.00    +0.000 NA
ATOM      5  C   UNL     1       1.710   4.527  20.719  0.00  0.00    +0.000 A 
ATOM      6  C   UNL     1       2.438   5.513  20.035  0.00  0.00    +0.000 A 
ATOM      7  N   UNL     1       3.626   5.158  19.480  0.00  0.00    +0.000 NA
ATOM      8  H   UNL     1       5.900   2.786  19.421  0.00  0.00    +0.000 HD
ENDROOT
BRANCH   6   9
ATOM      9  C   UNL     1       1.972   6.923  19.926  0.00  0.00    +0.000 A 
ATOM     10  C   UNL     1       2.157   7.624  18.716  0.00  0.00    +0.000 A 
ATOM     11  C   UNL     1       1.762   8.960  18.599  0.00  0.00    +0.000 A 
ATOM     12  C   UNL     1       1.157   9.609  19.677  0.00  0.00    +0.000 A 
ATOM     13 CL   UNL     1       0.654  11.283  19.527  0.00  0.00    +0.000 Cl
ATOM     14  C   UNL     1       0.953   8.923  20.877  0.00  0.00    +0.000 A 
ATOM     15  C   UNL     1       1.367   7.594  21.007  0.00  0.00    +0.000 A 
ENDBRANCH   6   9
BRANCH   1  18
ATOM     16  O   UNL     1       4.128   3.684  16.526  0.00  0.00    +0.000 OA
ATOM     17  C   UNL     1       5.219   4.222  16.658  0.00  0.00    +0.000 C 
ATOM     18  N   UNL     1       5.873   4.170  17.863  0.00  0.00    +0.000 N 
ATOM     19  H   UNL     1       6.846   4.498  17.922  0.00  0.00    +0.000 HD
BRANCH  17  20
ATOM     20  C   UNL     1       5.827   4.852  15.418  0.00  0.00    +0.000 C 
ATOM     21 CL   UNL     1       7.611   4.938  15.414  0.00  0.00    +0.000 Cl
ATOM     22 CL   UNL     1       5.316   3.919  13.986  0.00  0.00    +0.000 Cl
ATOM     23 CL   UNL     1       5.215   6.517  15.254  0.00  0.00    +0.000 Cl
ENDBRANCH  17  20
ENDBRANCH   1  18
TORSDOF 3
ENDMDL
MODEL 6
REMARK VINA RESULT:      -7.5      0.139      1.516
REMARK  Name = 
REMARK  3 active torsions:
REMARK  status: ('A' for Active; 'I' for Inactive)
REMARK    1  A    between atoms: C_2  and  C_18
REMARK    2  A    between atoms: N_3  and  N_4
REMARK    3  A    between atoms: C_9  and  C_10
REMARK                            x       y       z     vdW  Elec       q    Type
REMARK                         _______ _______ _______ _____ _____    ______ ____
ROOT
ATOM      1  N   UNL     1       5.212   3.335  19.247  0.00  0.00    +0.000 N 
ATOM      2  C   UNL     1       3.952   3.724  19.779  0.00  0.00    +0.000 A 
ATOM      3  N   UNL     1       3.187   2.822  20.445  0.00  0.00    +0.000 NA
ATOM      4  N   UNL     1       1.988   3.166  20.919  0.00  0.00    +0.000 NA
ATOM      5  C   UNL     1       1.513   4.429  20.786  0.00  0.00    +0.000 A 
ATOM      6  C   UNL     1       2.316   5.398  20.163  0.00  0.00    +0.000 A 
ATOM      7  N   UNL     1       3.520   5.008  19.672  0.00  0.00    +0.000 NA
ATOM      8  H   UNL     1       5.707   2.555  19.704  0.00  0.00    +0.000 HD
ENDROOT
BRANCH   6   9
ATOM      9  C   UNL     1       1.907   6.825  20.052  0.00  0.00    +0.000 A 
ATOM     10  C   UNL     1       1.225   7.437  21.124  0.00  0.00    +0.000 A 
ATOM     11  C   UNL     1       0.798   8.765  21.032  0.00  0.00    +0.000 A 
ATOM     12  C   UNL     1       1.064   9.509  19.879  0.00  0.00    +0.000 A 
ATOM     13 CL   UNL     1       0.535  11.177  19.767  0.00  0.00    +0.000 Cl
ATOM     14  C   UNL     1       1.752   8.920  18.815  0.00  0.00    +0.000 A 
ATOM     15  C   UNL     1       2.162   7.586  18.893  0.00  0.00    +0.000 A 
ENDBRANCH   6   9
BRANCH   1  18
ATOM     16  O   UNL     1       4.147   3.553  16.724  0.00  0.00    +0.000 OA
ATOM     17  C   UNL     1       5.245   4.052  16.930  0.00  0.00    +0.000 C 
ATOM     18  N   UNL     1       5.822   3.963  18.172  0.00  0.00    +0.000 N 
ATOM     19  H   UNL     1       6.800   4.257  18.294  0.00  0.00    +0.000 HD
BRANCH  17  20
ATOM     20  C   UNL     1       5.947   4.679  15.740  0.00  0.00    +0.000 C 
ATOM     21 CL   UNL     1       5.314   6.273  15.243  0.00  0.00    +0.000 Cl
ATOM     22 CL   UNL     1       7.678   4.869  16.125  0.00  0.00    +0.000 Cl
ATOM     23 CL   UNL     1       5.798   3.588  14.339  0.00  0.00    +0.000 Cl
ENDBRANCH  17  20
ENDBRANCH   1  18
TORSDOF 3
ENDMDL
MODEL 7
REMARK VINA RESULT:      -7.5      1.189      1.661
REMARK  Name = 
REMARK  3 active torsions:
REMARK  status: ('A' for Active; 'I' for Inactive)
REMARK    1  A    between atoms: C_2  and  C_18
REMARK    2  A    between atoms: N_3  and  N_4
REMARK    3  A    between atoms: C_9  and  C_10
REMARK                            x       y       z     vdW  Elec       q    Type
REMARK                         _______ _______ _______ _____ _____    ______ ____
ROOT
ATOM      1  N   UNL     1       5.096   3.252  19.032  0.00  0.00    +0.000 N 
ATOM      2  C   UNL     1       3.913   3.622  19.729  0.00  0.00    +0.000 A 
ATOM      3  N   UNL     1       3.271   2.716  20.509  0.00  0.00    +0.000 NA
ATOM      4  N   UNL     1       2.142   3.042  21.141  0.00  0.00    +0.000 NA
ATOM      5  C   UNL     1       1.622   4.290  21.056  0.00  0.00    +0.000 A 
ATOM      6  C   UNL     1       2.305   5.265  20.312  0.00  0.00    +0.000 A 
ATOM      7  N   UNL     1       3.439   4.894  19.664  0.00  0.00    +0.000 NA
ATOM      8  H   UNL     1       5.669   2.491  19.427  0.00  0.00    +0.000 HD
ENDROOT
BRANCH   6   9
ATOM      9  C   UNL     1       1.850   6.682  20.238  0.00  0.00    +0.000 A 
ATOM     10  C   UNL     1       1.072   7.216  21.286  0.00  0.00    +0.000 A 
ATOM     11  C   UNL     1       0.601   8.531  21.224  0.00  0.00    +0.000 A 
ATOM     12  C   UNL     1       0.917   9.338  20.129  0.00  0.00    +0.000 A 
ATOM     13 CL   UNL     1       0.332  10.990  20.055  0.00  0.00    +0.000 Cl
ATOM     14  C   UNL     1       1.699   8.827  19.091  0.00  0.00    +0.000 A 
ATOM     15  C   UNL     1       2.155   7.506  19.136  0.00  0.00    +0.000 A 
ENDBRANCH   6   9
BRANCH   1  18
ATOM     16  O   UNL     1       6.470   5.628  18.928  0.00  0.00    +0.000 OA
ATOM     17  C   UNL     1       6.224   5.059  17.873  0.00  0.00    +0.000 C 
ATOM     18  N   UNL     1       5.534   3.873  17.872  0.00  0.00    +0.000 N 
ATOM     19  H   UNL     1       5.210   3.480  16.978  0.00  0.00    +0.000 HD
BRANCH  17  20
ATOM     20  C   UNL     1       6.639   5.770  16.598  0.00  0.00    +0.000 C 
ATOM     21 CL   UNL     1       7.516   4.755  15.418  0.00  0.00    +0.000 Cl
ATOM     22 CL   UNL     1       5.182   6.414  15.795  0.00  0.00    +0.000 Cl
ATOM     23 CL   UNL     1       7.702   7.137  17.016  0.00  0.00    +0.000 Cl
ENDBRANCH  17  20
ENDBRANCH   1  18
TORSDOF 3
ENDMDL
MODEL 8
REMARK VINA RESULT:      -7.5      1.190      1.432
REMARK  Name = 
REMARK  3 active torsions:
REMARK  status: ('A' for Active; 'I' for Inactive)
REMARK    1  A    between atoms: C_2  and  C_18
REMARK    2  A    between atoms: N_3  and  N_4
REMARK    3  A    between atoms: C_9  and  C_10
REMARK                            x       y       z     vdW  Elec       q    Type
REMARK                         _______ _______ _______ _____ _____    ______ ____
ROOT
ATOM      1  N   UNL     1       5.135   3.235  19.037  0.00  0.00    +0.000 N 
ATOM      2  C   UNL     1       3.956   3.579  19.754  0.00  0.00    +0.000 A 
ATOM      3  N   UNL     1       3.347   2.658  20.544  0.00  0.00    +0.000 NA
ATOM      4  N   UNL     1       2.222   2.959  21.194  0.00  0.00    +0.000 NA
ATOM      5  C   UNL     1       1.672   4.196  21.118  0.00  0.00    +0.000 A 
ATOM      6  C   UNL     1       2.322   5.186  20.364  0.00  0.00    +0.000 A 
ATOM      7  N   UNL     1       3.453   4.840  19.697  0.00  0.00    +0.000 NA
ATOM      8  H   UNL     1       5.732   2.488  19.423  0.00  0.00    +0.000 HD
ENDROOT
BRANCH   6   9
ATOM      9  C   UNL     1       1.835   6.592  20.298  0.00  0.00    +0.000 A 
ATOM     10  C   UNL     1       2.164   7.389  19.182  0.00  0.00    +0.000 A 
ATOM     11  C   UNL     1       1.751   8.723  19.112  0.00  0.00    +0.000 A 
ATOM     12  C   UNL     1       0.985   9.274  20.142  0.00  0.00    +0.000 A 
ATOM     13 CL   UNL     1       0.459  10.945  20.050  0.00  0.00    +0.000 Cl
ATOM     14  C   UNL     1       0.638   8.492  21.246  0.00  0.00    +0.000 A 
ATOM     15  C   UNL     1       1.068   7.164  21.332  0.00  0.00    +0.000 A 
ENDBRANCH   6   9
BRANCH   1  18
ATOM     16  O   UNL     1       6.475   5.631  18.914  0.00  0.00    +0.000 OA
ATOM     17  C   UNL     1       6.215   5.062  17.862  0.00  0.00    +0.000 C 
ATOM     18  N   UNL     1       5.541   3.867  17.871  0.00  0.00    +0.000 N 
ATOM     19  H   UNL     1       5.203   3.473  16.983  0.00  0.00    +0.000 HD
BRANCH  17  20
ATOM     20  C   UNL     1       6.593   5.783  16.581  0.00  0.00    +0.000 C 
ATOM     21 CL   UNL     1       5.217   6.438  15.649  0.00  0.00    +0.000 Cl
ATOM     22 CL   UNL     1       7.683   7.138  16.981  0.00  0.00    +0.000 Cl
ATOM     23 CL   UNL     1       7.467   4.653  15.516  0.00  0.00    +0.000 Cl
ENDBRANCH  17  20
ENDBRANCH   1  18
TORSDOF 3
ENDMDL
MODEL 9
REMARK VINA RESULT:      -7.5      0.222      1.147
REMARK  Name = 
REMARK  3 active torsions:
REMARK  status: ('A' for Active; 'I' for Inactive)
REMARK    1  A    between atoms: C_2  and  C_18
REMARK    2  A    between atoms: N_3  and  N_4
REMARK    3  A    between atoms: C_9  and  C_10
REMARK                            x       y       z     vdW  Elec       q    Type
REMARK                         _______ _______ _______ _____ _____    ______ ____
ROOT
ATOM      1  N   UNL     1       5.243   3.428  19.080  0.00  0.00    +0.000 N 
ATOM      2  C   UNL     1       3.998   3.777  19.673  0.00  0.00    +0.000 A 
ATOM      3  N   UNL     1       3.289   2.849  20.365  0.00  0.00    +0.000 NA
ATOM      4  N   UNL     1       2.105   3.156  20.896  0.00  0.00    +0.000 NA
ATOM      5  C   UNL     1       1.589   4.406  20.796  0.00  0.00    +0.000 A 
ATOM      6  C   UNL     1       2.336   5.402  20.146  0.00  0.00    +0.000 A 
ATOM      7  N   UNL     1       3.527   5.050  19.598  0.00  0.00    +0.000 NA
ATOM      8  H   UNL     1       5.780   2.659  19.507  0.00  0.00    +0.000 HD
ENDROOT
BRANCH   6   9
ATOM      9  C   UNL     1       1.884   6.819  20.067  0.00  0.00    +0.000 A 
ATOM     10  C   UNL     1       2.145   7.566  18.901  0.00  0.00    +0.000 A 
ATOM     11  C   UNL     1       1.765   8.909  18.814  0.00  0.00    +0.000 A 
ATOM     12  C   UNL     1       1.098   9.518  19.880  0.00  0.00    +0.000 A 
ATOM     13 CL   UNL     1       0.614  11.200  19.769  0.00  0.00    +0.000 Cl
ATOM     14  C   UNL     1       0.819   8.786  21.036  0.00  0.00    +0.000 A 
ATOM     15  C   UNL     1       1.217   7.449  21.137  0.00  0.00    +0.000 A 
ENDBRANCH   6   9
BRANCH   1  18
ATOM     16  O   UNL     1       4.046   3.659  16.618  0.00  0.00    +0.000 OA
ATOM     17  C   UNL     1       5.144   4.177  16.775  0.00  0.00    +0.000 C 
ATOM     18  N   UNL     1       5.785   4.082  17.985  0.00  0.00    +0.000 N 
ATOM     19  H   UNL     1       6.763   4.394  18.061  0.00  0.00    +0.000 HD
BRANCH  17  20
ATOM     20  C   UNL     1       5.773   4.832  15.559  0.00  0.00    +0.000 C 
ATOM     21 CL   UNL     1       5.258   6.515  15.258  0.00  0.00    +0.000 Cl
ATOM     22 CL   UNL     1       7.546   4.825  15.752  0.00  0.00    +0.000 Cl
ATOM     23 CL   UNL     1       5.360   3.882  14.110  0.00  0.00    +0.000 Cl
ENDBRANCH  17  20
ENDBRANCH   1  18
TORSDOF 3
ENDMDL
