MODEL 1
REMARK VINA RESULT:      -7.4      0.000      0.000
REMARK  Name = 
REMARK  11 active torsions:
REMARK  status: ('A' for Active; 'I' for Inactive)
REMARK    1  A    between atoms: C_1  and  C_2
REMARK    2  A    between atoms: C_2  and  O_3
REMARK    3  A    between atoms: O_3  and  C_4
REMARK    4  A    between atoms: C_4  and  C_5
REMARK    5  A    between atoms: C_5  and  C_6
REMARK    6  A    between atoms: C_6  and  N_7
REMARK    7  A    between atoms: C_8  and  C_10
REMARK    8  A    between atoms: C_15  and  O_16
REMARK    9  A    between atoms: O_16  and  C_17
REMARK   10  A    between atoms: N_20  and  S_21
REMARK   11  A    between atoms: S_21  and  C_22
REMARK                            x       y       z     vdW  Elec       q    Type
REMARK                         _______ _______ _______ _____ _____    ______ ____
ROOT
ATOM      1  C   UNL     1       3.371   3.659  19.616  0.00  0.00    +0.000 A 
ATOM      2  C   UNL     1       3.215   2.718  20.664  0.00  0.00    +0.000 A 
ATOM      3  C   UNL     1       1.990   2.457  21.276  0.00  0.00    +0.000 A 
ATOM      4  C   UNL     1       0.862   3.078  20.798  0.00  0.00    +0.000 A 
ATOM      5  C   UNL     1       0.991   4.028  19.787  0.00  0.00    +0.000 A 
ATOM      6  C   UNL     1       2.225   4.428  19.263  0.00  0.00    +0.000 A 
ENDROOT
BRANCH   1   8
ATOM      7  N   UNL     1       4.623   3.538  17.476  0.00  0.00    +0.000 N 
ATOM      8  C   UNL     1       4.707   3.661  18.870  0.00  0.00    +0.000 C 
ATOM      9  O   UNL     1       5.770   3.851  19.447  0.00  0.00    +0.000 OA
ATOM     10  H   UNL     1       3.718   3.441  17.070  0.00  0.00    +0.000 HD
BRANCH   7  11
ATOM     11  C   UNL     1       5.594   3.967  16.473  0.00  0.00    +0.000 C 
BRANCH  11  12
ATOM     12  C   UNL     1       5.153   5.265  15.765  0.00  0.00    +0.000 C 
BRANCH  12  13
ATOM     13  C   UNL     1       5.816   6.574  16.231  0.00  0.00    +0.000 C 
BRANCH  13  14
ATOM     14  O   UNL     1       7.212   6.411  16.481  0.00  0.00    +0.000 OA
BRANCH  14  16
ATOM     15  C   UNL     1       7.872   6.298  18.800  0.00  0.00    +0.000 C 
ATOM     16  C   UNL     1       7.641   7.199  17.600  0.00  0.00    +0.000 C 
ENDBRANCH  14  16
ENDBRANCH  13  14
ENDBRANCH  12  13
ENDBRANCH  11  12
ENDBRANCH   7  11
ENDBRANCH   1   8
BRANCH   6  17
ATOM     17  O   UNL     1       2.270   5.529  18.456  0.00  0.00    +0.000 OA
BRANCH  17  18
ATOM     18  C   UNL     1       2.759   6.826  18.940  0.00  0.00    +0.000 C 
ATOM     19  C   UNL     1       2.249   7.393  20.273  0.00  0.00    +0.000 C 
ATOM     20  C   UNL     1       1.328   8.616  20.239  0.00  0.00    +0.000 C 
ATOM     21  N   UNL     1       1.051   9.185  18.914  0.00  0.00    +0.000 NA
ATOM     22  C   UNL     1       2.019   9.084  17.818  0.00  0.00    +0.000 C 
ATOM     23  C   UNL     1       2.951   7.877  17.850  0.00  0.00    +0.000 C 
BRANCH  21  24
ATOM     24  S   UNL     1      -0.101  10.443  18.826  0.00  0.00    +0.000 S 
ATOM     25  C   UNL     1      -0.650  10.524  20.516  0.00  0.00    +0.000 C 
ATOM     26  O   UNL     1       0.589  11.684  18.544  0.00  0.00    +0.000 OA
ATOM     27  O   UNL     1      -1.220   9.996  18.027  0.00  0.00    +0.000 OA
ENDBRANCH  21  24
ENDBRANCH  17  18
ENDBRANCH   6  17
TORSDOF 9
ENDMDL
MODEL 2
REMARK VINA RESULT:      -7.2      1.066      1.311
REMARK  Name = 
REMARK  11 active torsions:
REMARK  status: ('A' for Active; 'I' for Inactive)
REMARK    1  A    between atoms: C_1  and  C_2
REMARK    2  A    between atoms: C_2  and  O_3
REMARK    3  A    between atoms: O_3  and  C_4
REMARK    4  A    between atoms: C_4  and  C_5
REMARK    5  A    between atoms: C_5  and  C_6
REMARK    6  A    between atoms: C_6  and  N_7
REMARK    7  A    between atoms: C_8  and  C_10
REMARK    8  A    between atoms: C_15  and  O_16
REMARK    9  A    between atoms: O_16  and  C_17
REMARK   10  A    between atoms: N_20  and  S_21
REMARK   11  A    between atoms: S_21  and  C_22
REMARK                            x       y       z     vdW  Elec       q    Type
REMARK                         _______ _______ _______ _____ _____    ______ ____
ROOT
ATOM      1  C   UNL     1       3.379   3.911  19.456  0.00  0.00    +0.000 A 
ATOM      2  C   UNL     1       3.362   2.920  20.469  0.00  0.00    +0.000 A 
ATOM      3  C   UNL     1       2.211   2.576  21.179  0.00  0.00    +0.000 A 
ATOM      4  C   UNL     1       1.019   3.165  20.835  0.00  0.00    +0.000 A 
ATOM      5  C   UNL     1       1.012   4.162  19.862  0.00  0.00    +0.000 A 
ATOM      6  C   UNL     1       2.174   4.640  19.247  0.00  0.00    +0.000 A 
ENDROOT
BRANCH   1   8
ATOM      7  N   UNL     1       4.429   4.377  17.256  0.00  0.00    +0.000 N 
ATOM      8  C   UNL     1       4.637   4.006  18.592  0.00  0.00    +0.000 C 
ATOM      9  O   UNL     1       5.759   3.859  19.063  0.00  0.00    +0.000 OA
ATOM     10  H   UNL     1       3.492   4.534  16.957  0.00  0.00    +0.000 HD
BRANCH   7  11
ATOM     11  C   UNL     1       5.375   5.003  16.335  0.00  0.00    +0.000 C 
BRANCH  11  12
ATOM     12  C   UNL     1       5.594   6.494  16.663  0.00  0.00    +0.000 C 
BRANCH  12  13
ATOM     13  C   UNL     1       6.760   6.836  17.608  0.00  0.00    +0.000 C 
BRANCH  13  14
ATOM     14  O   UNL     1       7.702   7.721  17.001  0.00  0.00    +0.000 OA
BRANCH  14  16
ATOM     15  C   UNL     1       8.762   9.103  18.672  0.00  0.00    +0.000 C 
ATOM     16  C   UNL     1       7.677   9.017  17.614  0.00  0.00    +0.000 C 
ENDBRANCH  14  16
ENDBRANCH  13  14
ENDBRANCH  12  13
ENDBRANCH  11  12
ENDBRANCH   7  11
ENDBRANCH   1   8
BRANCH   6  17
ATOM     17  O   UNL     1       2.096   5.775  18.492  0.00  0.00    +0.000 OA
BRANCH  17  18
ATOM     18  C   UNL     1       2.584   7.070  18.984  0.00  0.00    +0.000 C 
ATOM     19  C   UNL     1       2.083   7.622  20.326  0.00  0.00    +0.000 C 
ATOM     20  C   UNL     1       1.157   8.841  20.312  0.00  0.00    +0.000 C 
ATOM     21  N   UNL     1       0.867   9.422  18.995  0.00  0.00    +0.000 NA
ATOM     22  C   UNL     1       1.825   9.336  17.890  0.00  0.00    +0.000 C 
ATOM     23  C   UNL     1       2.763   8.132  17.902  0.00  0.00    +0.000 C 
BRANCH  21  24
ATOM     24  S   UNL     1      -0.291  10.676  18.929  0.00  0.00    +0.000 S 
ATOM     25  C   UNL     1      -1.349  10.098  17.620  0.00  0.00    +0.000 C 
ATOM     26  O   UNL     1      -1.071  10.651  20.148  0.00  0.00    +0.000 OA
ATOM     27  O   UNL     1       0.355  11.883  18.464  0.00  0.00    +0.000 OA
ENDBRANCH  21  24
ENDBRANCH  17  18
ENDBRANCH   6  17
TORSDOF 9
ENDMDL
MODEL 3
REMARK VINA RESULT:      -7.0      1.248      1.657
REMARK  Name = 
REMARK  11 active torsions:
REMARK  status: ('A' for Active; 'I' for Inactive)
REMARK    1  A    between atoms: C_1  and  C_2
REMARK    2  A    between atoms: C_2  and  O_3
REMARK    3  A    between atoms: O_3  and  C_4
REMARK    4  A    between atoms: C_4  and  C_5
REMARK    5  A    between atoms: C_5  and  C_6
REMARK    6  A    between atoms: C_6  and  N_7
REMARK    7  A    between atoms: C_8  and  C_10
REMARK    8  A    between atoms: C_15  and  O_16
REMARK    9  A    between atoms: O_16  and  C_17
REMARK   10  A    between atoms: N_20  and  S_21
REMARK   11  A    between atoms: S_21  and  C_22
REMARK                            x       y       z     vdW  Elec       q    Type
REMARK                         _______ _______ _______ _____ _____    ______ ____
ROOT
ATOM      1  C   UNL     1       3.457   4.085  19.300  0.00  0.00    +0.000 A 
ATOM      2  C   UNL     1       3.559   3.033  20.244  0.00  0.00    +0.000 A 
ATOM      3  C   UNL     1       2.462   2.528  20.942  0.00  0.00    +0.000 A 
ATOM      4  C   UNL     1       1.210   3.012  20.653  0.00  0.00    +0.000 A 
ATOM      5  C   UNL     1       1.084   4.065  19.749  0.00  0.00    +0.000 A 
ATOM      6  C   UNL     1       2.181   4.699  19.154  0.00  0.00    +0.000 A 
ENDROOT
BRANCH   1   8
ATOM      7  N   UNL     1       5.752   5.003  19.076  0.00  0.00    +0.000 N 
ATOM      8  C   UNL     1       4.684   4.365  18.430  0.00  0.00    +0.000 C 
ATOM      9  O   UNL     1       4.760   3.973  17.272  0.00  0.00    +0.000 OA
ATOM     10  H   UNL     1       5.639   5.245  20.036  0.00  0.00    +0.000 HD
BRANCH   7  11
ATOM     11  C   UNL     1       7.167   4.984  18.714  0.00  0.00    +0.000 C 
BRANCH  11  12
ATOM     12  C   UNL     1       7.734   6.407  18.537  0.00  0.00    +0.000 C 
BRANCH  12  13
ATOM     13  C   UNL     1       7.073   7.294  17.466  0.00  0.00    +0.000 C 
BRANCH  13  14
ATOM     14  O   UNL     1       7.796   8.506  17.249  0.00  0.00    +0.000 OA
BRANCH  14  16
ATOM     15  C   UNL     1       8.919  10.364  18.304  0.00  0.00    +0.000 C 
ATOM     16  C   UNL     1       8.517   8.905  18.423  0.00  0.00    +0.000 C 
ENDBRANCH  14  16
ENDBRANCH  13  14
ENDBRANCH  12  13
ENDBRANCH  11  12
ENDBRANCH   7  11
ENDBRANCH   1   8
BRANCH   6  17
ATOM     17  O   UNL     1       1.974   5.868  18.478  0.00  0.00    +0.000 OA
BRANCH  17  18
ATOM     18  C   UNL     1       2.477   7.153  18.979  0.00  0.00    +0.000 C 
ATOM     19  C   UNL     1       1.979   7.704  20.323  0.00  0.00    +0.000 C 
ATOM     20  C   UNL     1       1.069   8.934  20.313  0.00  0.00    +0.000 C 
ATOM     21  N   UNL     1       0.789   9.527  18.999  0.00  0.00    +0.000 NA
ATOM     22  C   UNL     1       1.749   9.435  17.896  0.00  0.00    +0.000 C 
ATOM     23  C   UNL     1       2.672   8.219  17.903  0.00  0.00    +0.000 C 
BRANCH  21  24
ATOM     24  S   UNL     1      -0.353  10.795  18.937  0.00  0.00    +0.000 S 
ATOM     25  C   UNL     1      -0.686  11.041  20.667  0.00  0.00    +0.000 C 
ATOM     26  O   UNL     1       0.308  11.990  18.458  0.00  0.00    +0.000 OA
ATOM     27  O   UNL     1      -1.568  10.300  18.328  0.00  0.00    +0.000 OA
ENDBRANCH  21  24
ENDBRANCH  17  18
ENDBRANCH   6  17
TORSDOF 9
ENDMDL
MODEL 4
REMARK VINA RESULT:      -6.9      1.724      2.364
REMARK  Name = 
REMARK  11 active torsions:
REMARK  status: ('A' for Active; 'I' for Inactive)
REMARK    1  A    between atoms: C_1  and  C_2
REMARK    2  A    between atoms: C_2  and  O_3
REMARK    3  A    between atoms: O_3  and  C_4
REMARK    4  A    between atoms: C_4  and  C_5
REMARK    5  A    between atoms: C_5  and  C_6
REMARK    6  A    between atoms: C_6  and  N_7
REMARK    7  A    between atoms: C_8  and  C_10
REMARK    8  A    between atoms: C_15  and  O_16
REMARK    9  A    between atoms: O_16  and  C_17
REMARK   10  A    between atoms: N_20  and  S_21
REMARK   11  A    between atoms: S_21  and  C_22
REMARK                            x       y       z     vdW  Elec       q    Type
REMARK                         _______ _______ _______ _____ _____    ______ ____
ROOT
ATOM      1  C   UNL     1       3.550   3.860  18.886  0.00  0.00    +0.000 A 
ATOM      2  C   UNL     1       3.270   2.680  19.619  0.00  0.00    +0.000 A 
ATOM      3  C   UNL     1       2.011   2.080  19.642  0.00  0.00    +0.000 A 
ATOM      4  C   UNL     1       1.011   2.604  18.860  0.00  0.00    +0.000 A 
ATOM      5  C   UNL     1       1.251   3.779  18.151  0.00  0.00    +0.000 A 
ATOM      6  C   UNL     1       2.452   4.491  18.234  0.00  0.00    +0.000 A 
ENDROOT
BRANCH   1   8
ATOM      7  N   UNL     1       5.661   3.820  17.580  0.00  0.00    +0.000 N 
ATOM      8  C   UNL     1       5.019   4.263  18.746  0.00  0.00    +0.000 C 
ATOM      9  O   UNL     1       5.568   5.002  19.553  0.00  0.00    +0.000 OA
ATOM     10  H   UNL     1       5.135   3.267  16.940  0.00  0.00    +0.000 HD
BRANCH   7  11
ATOM     11  C   UNL     1       6.834   4.391  16.923  0.00  0.00    +0.000 C 
BRANCH  11  12
ATOM     12  C   UNL     1       6.456   5.549  15.978  0.00  0.00    +0.000 C 
BRANCH  12  13
ATOM     13  C   UNL     1       5.977   5.169  14.566  0.00  0.00    +0.000 C 
BRANCH  13  14
ATOM     14  O   UNL     1       6.112   3.771  14.309  0.00  0.00    +0.000 OA
BRANCH  14  16
ATOM     15  C   UNL     1       7.045   4.064  12.102  0.00  0.00    +0.000 C 
ATOM     16  C   UNL     1       5.913   3.470  12.921  0.00  0.00    +0.000 C 
ENDBRANCH  14  16
ENDBRANCH  13  14
ENDBRANCH  12  13
ENDBRANCH  11  12
ENDBRANCH   7  11
ENDBRANCH   1   8
BRANCH   6  17
ATOM     17  O   UNL     1       2.508   5.747  17.700  0.00  0.00    +0.000 OA
BRANCH  17  18
ATOM     18  C   UNL     1       2.915   6.911  18.497  0.00  0.00    +0.000 C 
ATOM     19  C   UNL     1       2.330   7.128  19.900  0.00  0.00    +0.000 C 
ATOM     20  C   UNL     1       1.352   8.286  20.111  0.00  0.00    +0.000 C 
ATOM     21  N   UNL     1       1.095   9.141  18.945  0.00  0.00    +0.000 NA
ATOM     22  C   UNL     1       2.104   9.340  17.902  0.00  0.00    +0.000 C 
ATOM     23  C   UNL     1       3.094   8.197  17.693  0.00  0.00    +0.000 C 
BRANCH  21  24
ATOM     24  S   UNL     1      -0.114  10.337  19.101  0.00  0.00    +0.000 S 
ATOM     25  C   UNL     1       0.852  11.823  18.943  0.00  0.00    +0.000 C 
ATOM     26  O   UNL     1      -0.983  10.271  17.945  0.00  0.00    +0.000 OA
ATOM     27  O   UNL     1      -0.636  10.301  20.449  0.00  0.00    +0.000 OA
ENDBRANCH  21  24
ENDBRANCH  17  18
ENDBRANCH   6  17
TORSDOF 9
ENDMDL
MODEL 5
REMARK VINA RESULT:      -6.8      1.794      2.592
REMARK  Name = 
REMARK  11 active torsions:
REMARK  status: ('A' for Active; 'I' for Inactive)
REMARK    1  A    between atoms: C_1  and  C_2
REMARK    2  A    between atoms: C_2  and  O_3
REMARK    3  A    between atoms: O_3  and  C_4
REMARK    4  A    between atoms: C_4  and  C_5
REMARK    5  A    between atoms: C_5  and  C_6
REMARK    6  A    between atoms: C_6  and  N_7
REMARK    7  A    between atoms: C_8  and  C_10
REMARK    8  A    between atoms: C_15  and  O_16
REMARK    9  A    between atoms: O_16  and  C_17
REMARK   10  A    between atoms: N_20  and  S_21
REMARK   11  A    between atoms: S_21  and  C_22
REMARK                            x       y       z     vdW  Elec       q    Type
REMARK                         _______ _______ _______ _____ _____    ______ ____
ROOT
ATOM      1  C   UNL     1       3.597   4.001  18.576  0.00  0.00    +0.000 A 
ATOM      2  C   UNL     1       3.669   2.764  19.264  0.00  0.00    +0.000 A 
ATOM      3  C   UNL     1       2.541   2.035  19.640  0.00  0.00    +0.000 A 
ATOM      4  C   UNL     1       1.301   2.490  19.264  0.00  0.00    +0.000 A 
ATOM      5  C   UNL     1       1.199   3.717  18.612  0.00  0.00    +0.000 A 
ATOM      6  C   UNL     1       2.299   4.546  18.363  0.00  0.00    +0.000 A 
ENDROOT
BRANCH   1   8
ATOM      7  N   UNL     1       4.823   5.071  16.703  0.00  0.00    +0.000 N 
ATOM      8  C   UNL     1       4.901   4.561  18.006  0.00  0.00    +0.000 C 
ATOM      9  O   UNL     1       5.920   4.643  18.680  0.00  0.00    +0.000 OA
ATOM     10  H   UNL     1       3.945   5.021  16.234  0.00  0.00    +0.000 HD
BRANCH   7  11
ATOM     11  C   UNL     1       5.688   6.063  16.069  0.00  0.00    +0.000 C 
BRANCH  11  12
ATOM     12  C   UNL     1       7.058   5.468  15.685  0.00  0.00    +0.000 C 
BRANCH  12  13
ATOM     13  C   UNL     1       7.156   4.766  14.318  0.00  0.00    +0.000 C 
BRANCH  13  14
ATOM     14  O   UNL     1       5.873   4.402  13.807  0.00  0.00    +0.000 OA
BRANCH  14  16
ATOM     15  C   UNL     1       4.819   3.444  11.858  0.00  0.00    +0.000 C 
ATOM     16  C   UNL     1       5.973   3.347  12.840  0.00  0.00    +0.000 C 
ENDBRANCH  14  16
ENDBRANCH  13  14
ENDBRANCH  12  13
ENDBRANCH  11  12
ENDBRANCH   7  11
ENDBRANCH   1   8
BRANCH   6  17
ATOM     17  O   UNL     1       2.073   5.825  17.942  0.00  0.00    +0.000 OA
BRANCH  17  18
ATOM     18  C   UNL     1       2.606   6.986  18.666  0.00  0.00    +0.000 C 
ATOM     19  C   UNL     1       2.084   7.324  20.070  0.00  0.00    +0.000 C 
ATOM     20  C   UNL     1       1.220   8.576  20.244  0.00  0.00    +0.000 C 
ATOM     21  N   UNL     1       1.007   9.392  19.042  0.00  0.00    +0.000 NA
ATOM     22  C   UNL     1       2.000   9.446  17.965  0.00  0.00    +0.000 C 
ATOM     23  C   UNL     1       2.876   8.208  17.792  0.00  0.00    +0.000 C 
BRANCH  21  24
ATOM     24  S   UNL     1      -0.084  10.700  19.164  0.00  0.00    +0.000 S 
ATOM     25  C   UNL     1      -1.367  10.182  18.045  0.00  0.00    +0.000 C 
ATOM     26  O   UNL     1      -0.657  10.702  20.494  0.00  0.00    +0.000 OA
ATOM     27  O   UNL     1       0.535  11.878  18.600  0.00  0.00    +0.000 OA
ENDBRANCH  21  24
ENDBRANCH  17  18
ENDBRANCH   6  17
TORSDOF 9
ENDMDL
MODEL 6
REMARK VINA RESULT:      -6.8      1.731      2.449
REMARK  Name = 
REMARK  11 active torsions:
REMARK  status: ('A' for Active; 'I' for Inactive)
REMARK    1  A    between atoms: C_1  and  C_2
REMARK    2  A    between atoms: C_2  and  O_3
REMARK    3  A    between atoms: O_3  and  C_4
REMARK    4  A    between atoms: C_4  and  C_5
REMARK    5  A    between atoms: C_5  and  C_6
REMARK    6  A    between atoms: C_6  and  N_7
REMARK    7  A    between atoms: C_8  and  C_10
REMARK    8  A    between atoms: C_15  and  O_16
REMARK    9  A    between atoms: O_16  and  C_17
REMARK   10  A    between atoms: N_20  and  S_21
REMARK   11  A    between atoms: S_21  and  C_22
REMARK                            x       y       z     vdW  Elec       q    Type
REMARK                         _______ _______ _______ _____ _____    ______ ____
ROOT
ATOM      1  C   UNL     1       3.162   3.637  19.343  0.00  0.00    +0.000 A 
ATOM      2  C   UNL     1       3.341   2.668  20.361  0.00  0.00    +0.000 A 
ATOM      3  C   UNL     1       2.466   2.524  21.438  0.00  0.00    +0.000 A 
ATOM      4  C   UNL     1       1.335   3.302  21.482  0.00  0.00    +0.000 A 
ATOM      5  C   UNL     1       1.148   4.281  20.509  0.00  0.00    +0.000 A 
ATOM      6  C   UNL     1       2.087   4.556  19.508  0.00  0.00    +0.000 A 
ENDROOT
BRANCH   1   8
ATOM      7  N   UNL     1       4.825   4.643  17.799  0.00  0.00    +0.000 N 
ATOM      8  C   UNL     1       4.046   3.516  18.100  0.00  0.00    +0.000 C 
ATOM      9  O   UNL     1       4.135   2.472  17.467  0.00  0.00    +0.000 OA
ATOM     10  H   UNL     1       4.742   5.439  18.392  0.00  0.00    +0.000 HD
BRANCH   7  11
ATOM     11  C   UNL     1       6.065   4.702  17.029  0.00  0.00    +0.000 C 
BRANCH  11  12
ATOM     12  C   UNL     1       5.797   4.795  15.514  0.00  0.00    +0.000 C 
BRANCH  12  13
ATOM     13  C   UNL     1       7.022   4.956  14.596  0.00  0.00    +0.000 C 
BRANCH  13  14
ATOM     14  O   UNL     1       6.843   4.301  13.340  0.00  0.00    +0.000 OA
BRANCH  14  16
ATOM     15  C   UNL     1       5.318   3.172  11.848  0.00  0.00    +0.000 C 
ATOM     16  C   UNL     1       5.577   3.630  13.272  0.00  0.00    +0.000 C 
ENDBRANCH  14  16
ENDBRANCH  13  14
ENDBRANCH  12  13
ENDBRANCH  11  12
ENDBRANCH   7  11
ENDBRANCH   1   8
BRANCH   6  17
ATOM     17  O   UNL     1       1.932   5.684  18.755  0.00  0.00    +0.000 OA
BRANCH  17  18
ATOM     18  C   UNL     1       2.456   6.985  19.190  0.00  0.00    +0.000 C 
ATOM     19  C   UNL     1       1.984   7.603  20.514  0.00  0.00    +0.000 C 
ATOM     20  C   UNL     1       1.086   8.842  20.461  0.00  0.00    +0.000 C 
ATOM     21  N   UNL     1       0.794   9.377  19.125  0.00  0.00    +0.000 NA
ATOM     22  C   UNL     1       1.737   9.223  18.014  0.00  0.00    +0.000 C 
ATOM     23  C   UNL     1       2.646   7.999  18.064  0.00  0.00    +0.000 C 
BRANCH  21  24
ATOM     24  S   UNL     1      -0.335  10.654  19.021  0.00  0.00    +0.000 S 
ATOM     25  C   UNL     1       0.741  12.040  18.724  0.00  0.00    +0.000 C 
ATOM     26  O   UNL     1      -1.132  10.472  17.826  0.00  0.00    +0.000 OA
ATOM     27  O   UNL     1      -0.943  10.847  20.319  0.00  0.00    +0.000 OA
ENDBRANCH  21  24
ENDBRANCH  17  18
ENDBRANCH   6  17
TORSDOF 9
ENDMDL
MODEL 7
REMARK VINA RESULT:      -6.8      1.692      2.001
REMARK  Name = 
REMARK  11 active torsions:
REMARK  status: ('A' for Active; 'I' for Inactive)
REMARK    1  A    between atoms: C_1  and  C_2
REMARK    2  A    between atoms: C_2  and  O_3
REMARK    3  A    between atoms: O_3  and  C_4
REMARK    4  A    between atoms: C_4  and  C_5
REMARK    5  A    between atoms: C_5  and  C_6
REMARK    6  A    between atoms: C_6  and  N_7
REMARK    7  A    between atoms: C_8  and  C_10
REMARK    8  A    between atoms: C_15  and  O_16
REMARK    9  A    between atoms: O_16  and  C_17
REMARK   10  A    between atoms: N_20  and  S_21
REMARK   11  A    between atoms: S_21  and  C_22
REMARK                            x       y       z     vdW  Elec       q    Type
REMARK                         _______ _______ _______ _____ _____    ______ ____
ROOT
ATOM      1  C   UNL     1       3.401   3.702  17.898  0.00  0.00    +0.000 A 
ATOM      2  C   UNL     1       3.518   2.402  18.449  0.00  0.00    +0.000 A 
ATOM      3  C   UNL     1       2.442   1.713  19.008  0.00  0.00    +0.000 A 
ATOM      4  C   UNL     1       1.192   2.280  18.960  0.00  0.00    +0.000 A 
ATOM      5  C   UNL     1       1.053   3.568  18.448  0.00  0.00    +0.000 A 
ATOM      6  C   UNL     1       2.137   4.346  18.027  0.00  0.00    +0.000 A 
ENDROOT
BRANCH   1   8
ATOM      7  N   UNL     1       5.741   4.526  17.842  0.00  0.00    +0.000 N 
ATOM      8  C   UNL     1       4.591   4.232  17.096  0.00  0.00    +0.000 C 
ATOM      9  O   UNL     1       4.568   4.305  15.874  0.00  0.00    +0.000 OA
ATOM     10  H   UNL     1       5.705   4.391  18.828  0.00  0.00    +0.000 HD
BRANCH   7  11
ATOM     11  C   UNL     1       7.126   4.578  17.381  0.00  0.00    +0.000 C 
BRANCH  11  12
ATOM     12  C   UNL     1       7.469   5.940  16.744  0.00  0.00    +0.000 C 
BRANCH  12  13
ATOM     13  C   UNL     1       6.833   7.189  17.381  0.00  0.00    +0.000 C 
BRANCH  13  14
ATOM     14  O   UNL     1       7.641   8.353  17.206  0.00  0.00    +0.000 OA
BRANCH  14  16
ATOM     15  C   UNL     1       8.845  10.089  18.374  0.00  0.00    +0.000 C 
ATOM     16  C   UNL     1       8.426   8.629  18.374  0.00  0.00    +0.000 C 
ENDBRANCH  14  16
ENDBRANCH  13  14
ENDBRANCH  12  13
ENDBRANCH  11  12
ENDBRANCH   7  11
ENDBRANCH   1   8
BRANCH   6  17
ATOM     17  O   UNL     1       1.932   5.672  17.773  0.00  0.00    +0.000 OA
BRANCH  17  18
ATOM     18  C   UNL     1       2.598   6.724  18.552  0.00  0.00    +0.000 C 
ATOM     19  C   UNL     1       2.214   6.955  20.020  0.00  0.00    +0.000 C 
ATOM     20  C   UNL     1       1.453   8.233  20.382  0.00  0.00    +0.000 C 
ATOM     21  N   UNL     1       1.200   9.173  19.282  0.00  0.00    +0.000 NA
ATOM     22  C   UNL     1       2.105   9.271  18.133  0.00  0.00    +0.000 C 
ATOM     23  C   UNL     1       2.880   8.007  17.773  0.00  0.00    +0.000 C 
BRANCH  21  24
ATOM     24  S   UNL     1       0.212  10.525  19.617  0.00  0.00    +0.000 S 
ATOM     25  C   UNL     1      -0.945  10.447  18.268  0.00  0.00    +0.000 C 
ATOM     26  O   UNL     1      -0.532  10.265  20.830  0.00  0.00    +0.000 OA
ATOM     27  O   UNL     1       0.996  11.729  19.447  0.00  0.00    +0.000 OA
ENDBRANCH  21  24
ENDBRANCH  17  18
ENDBRANCH   6  17
TORSDOF 9
ENDMDL
MODEL 8
REMARK VINA RESULT:      -6.8      1.161      1.328
REMARK  Name = 
REMARK  11 active torsions:
REMARK  status: ('A' for Active; 'I' for Inactive)
REMARK    1  A    between atoms: C_1  and  C_2
REMARK    2  A    between atoms: C_2  and  O_3
REMARK    3  A    between atoms: O_3  and  C_4
REMARK    4  A    between atoms: C_4  and  C_5
REMARK    5  A    between atoms: C_5  and  C_6
REMARK    6  A    between atoms: C_6  and  N_7
REMARK    7  A    between atoms: C_8  and  C_10
REMARK    8  A    between atoms: C_15  and  O_16
REMARK    9  A    between atoms: O_16  and  C_17
REMARK   10  A    between atoms: N_20  and  S_21
REMARK   11  A    between atoms: S_21  and  C_22
REMARK                            x       y       z     vdW  Elec       q    Type
REMARK                         _______ _______ _______ _____ _____    ______ ____
ROOT
ATOM      1  C   UNL     1       2.902   3.709  18.929  0.00  0.00    +0.000 A 
ATOM      2  C   UNL     1       3.374   2.694  19.797  0.00  0.00    +0.000 A 
ATOM      3  C   UNL     1       2.990   2.596  21.135  0.00  0.00    +0.000 A 
ATOM      4  C   UNL     1       2.052   3.473  21.622  0.00  0.00    +0.000 A 
ATOM      5  C   UNL     1       1.591   4.498  20.798  0.00  0.00    +0.000 A 
ATOM      6  C   UNL     1       2.077   4.718  19.505  0.00  0.00    +0.000 A 
ENDROOT
BRANCH   1   8
ATOM      7  N   UNL     1       4.474   3.973  17.027  0.00  0.00    +0.000 N 
ATOM      8  C   UNL     1       3.202   3.550  17.438  0.00  0.00    +0.000 C 
ATOM      9  O   UNL     1       2.416   3.003  16.674  0.00  0.00    +0.000 OA
ATOM     10  H   UNL     1       5.082   4.358  17.715  0.00  0.00    +0.000 HD
BRANCH   7  11
ATOM     11  C   UNL     1       5.231   3.545  15.854  0.00  0.00    +0.000 C 
BRANCH  11  12
ATOM     12  C   UNL     1       5.872   4.738  15.117  0.00  0.00    +0.000 C 
BRANCH  12  13
ATOM     13  C   UNL     1       7.307   5.120  15.523  0.00  0.00    +0.000 C 
BRANCH  13  14
ATOM     14  O   UNL     1       7.552   4.894  16.911  0.00  0.00    +0.000 OA
BRANCH  14  16
ATOM     15  C   UNL     1       7.903   5.931  19.063  0.00  0.00    +0.000 C 
ATOM     16  C   UNL     1       7.262   6.062  17.693  0.00  0.00    +0.000 C 
ENDBRANCH  14  16
ENDBRANCH  13  14
ENDBRANCH  12  13
ENDBRANCH  11  12
ENDBRANCH   7  11
ENDBRANCH   1   8
BRANCH   6  17
ATOM     17  O   UNL     1       1.747   5.881  18.870  0.00  0.00    +0.000 OA
BRANCH  17  18
ATOM     18  C   UNL     1       2.324   7.172  19.265  0.00  0.00    +0.000 C 
ATOM     19  C   UNL     1       1.822   7.886  20.528  0.00  0.00    +0.000 C 
ATOM     20  C   UNL     1       1.004   9.170  20.362  0.00  0.00    +0.000 C 
ATOM     21  N   UNL     1       0.814   9.647  18.986  0.00  0.00    +0.000 NA
ATOM     22  C   UNL     1       1.802   9.380  17.938  0.00  0.00    +0.000 C 
ATOM     23  C   UNL     1       2.633   8.110  18.101  0.00  0.00    +0.000 C 
BRANCH  21  24
ATOM     24  S   UNL     1      -0.230  10.979  18.755  0.00  0.00    +0.000 S 
ATOM     25  C   UNL     1      -0.950  11.136  20.374  0.00  0.00    +0.000 C 
ATOM     26  O   UNL     1       0.573  12.162  18.530  0.00  0.00    +0.000 OA
ATOM     27  O   UNL     1      -1.286  10.591  17.846  0.00  0.00    +0.000 OA
ENDBRANCH  21  24
ENDBRANCH  17  18
ENDBRANCH   6  17
TORSDOF 9
ENDMDL
MODEL 9
REMARK VINA RESULT:      -6.8      1.210      1.325
REMARK  Name = 
REMARK  11 active torsions:
REMARK  status: ('A' for Active; 'I' for Inactive)
REMARK    1  A    between atoms: C_1  and  C_2
REMARK    2  A    between atoms: C_2  and  O_3
REMARK    3  A    between atoms: O_3  and  C_4
REMARK    4  A    between atoms: C_4  and  C_5
REMARK    5  A    between atoms: C_5  and  C_6
REMARK    6  A    between atoms: C_6  and  N_7
REMARK    7  A    between atoms: C_8  and  C_10
REMARK    8  A    between atoms: C_15  and  O_16
REMARK    9  A    between atoms: O_16  and  C_17
REMARK   10  A    between atoms: N_20  and  S_21
REMARK   11  A    between atoms: S_21  and  C_22
REMARK                            x       y       z     vdW  Elec       q    Type
REMARK                         _______ _______ _______ _____ _____    ______ ____
ROOT
ATOM      1  C   UNL     1       2.878   3.352  19.184  0.00  0.00    +0.000 A 
ATOM      2  C   UNL     1       3.070   2.397  20.213  0.00  0.00    +0.000 A 
ATOM      3  C   UNL     1       2.386   2.439  21.428  0.00  0.00    +0.000 A 
ATOM      4  C   UNL     1       1.424   3.401  21.616  0.00  0.00    +0.000 A 
ATOM      5  C   UNL     1       1.235   4.369  20.632  0.00  0.00    +0.000 A 
ATOM      6  C   UNL     1       2.016   4.448  19.474  0.00  0.00    +0.000 A 
ENDROOT
BRANCH   1   8
ATOM      7  N   UNL     1       3.720   4.154  16.992  0.00  0.00    +0.000 N 
ATOM      8  C   UNL     1       3.497   3.045  17.820  0.00  0.00    +0.000 C 
ATOM      9  O   UNL     1       3.860   1.916  17.513  0.00  0.00    +0.000 OA
ATOM     10  H   UNL     1       3.449   5.051  17.330  0.00  0.00    +0.000 HD
BRANCH   7  11
ATOM     11  C   UNL     1       4.680   4.285  15.899  0.00  0.00    +0.000 C 
BRANCH  11  12
ATOM     12  C   UNL     1       5.494   5.591  16.004  0.00  0.00    +0.000 C 
BRANCH  12  13
ATOM     13  C   UNL     1       6.995   5.506  15.672  0.00  0.00    +0.000 C 
BRANCH  13  14
ATOM     14  O   UNL     1       7.754   6.509  16.349  0.00  0.00    +0.000 OA
BRANCH  14  16
ATOM     15  C   UNL     1       7.912   6.377  18.754  0.00  0.00    +0.000 C 
ATOM     16  C   UNL     1       7.121   6.910  17.573  0.00  0.00    +0.000 C 
ENDBRANCH  14  16
ENDBRANCH  13  14
ENDBRANCH  12  13
ENDBRANCH  11  12
ENDBRANCH   7  11
ENDBRANCH   1   8
BRANCH   6  17
ATOM     17  O   UNL     1       1.919   5.564  18.693  0.00  0.00    +0.000 OA
BRANCH  17  18
ATOM     18  C   UNL     1       2.505   6.848  19.099  0.00  0.00    +0.000 C 
ATOM     19  C   UNL     1       2.101   7.492  20.433  0.00  0.00    +0.000 C 
ATOM     20  C   UNL     1       1.248   8.762  20.401  0.00  0.00    +0.000 C 
ATOM     21  N   UNL     1       0.930   9.298  19.071  0.00  0.00    +0.000 NA
ATOM     22  C   UNL     1       1.828   9.103  17.929  0.00  0.00    +0.000 C 
ATOM     23  C   UNL     1       2.693   7.846  17.959  0.00  0.00    +0.000 C 
BRANCH  21  24
ATOM     24  S   UNL     1      -0.155  10.615  18.995  0.00  0.00    +0.000 S 
ATOM     25  C   UNL     1      -1.242  10.089  17.689  0.00  0.00    +0.000 C 
ATOM     26  O   UNL     1      -0.936  10.642  20.213  0.00  0.00    +0.000 OA
ATOM     27  O   UNL     1       0.559  11.781  18.523  0.00  0.00    +0.000 OA
ENDBRANCH  21  24
ENDBRANCH  17  18
ENDBRANCH   6  17
TORSDOF 9
ENDMDL
