MODEL 1
REMARK VINA RESULT:      -8.1      0.000      0.000
REMARK  Name = 
REMARK  13 active torsions:
REMARK  status: ('A' for Active; 'I' for Inactive)
REMARK    1  A    between atoms: C_1  and  C_2
REMARK    2  A    between atoms: C_2  and  C_3
REMARK    3  A    between atoms: C_3  and  C_4
REMARK    4  A    between atoms: C_4  and  C_5
REMARK    5  A    between atoms: C_5  and  C_6
REMARK    6  A    between atoms: C_9  and  C_10
REMARK    7  A    between atoms: C_10  and  C_11
REMARK    8  A    between atoms: C_11  and  C_12
REMARK    9  A    between atoms: C_12  and  C_13
REMARK   10  A    between atoms: C_13  and  C_14
REMARK   11  A    between atoms: C_14  and  C_15
REMARK   12  A    between atoms: C_15  and  N_16
REMARK   13  A    between atoms: C_22  and  N_23
REMARK                            x       y       z     vdW  Elec       q    Type
REMARK                         _______ _______ _______ _____ _____    ______ ____
ROOT
ATOM      1  C   UNL     1       6.370   4.036  14.294  0.00  0.00    +0.000 A 
ATOM      2  C   UNL     1       5.616   3.697  15.428  0.00  0.00    +0.000 A 
ATOM      3  C   UNL     1       5.825   4.308  16.677  0.00  0.00    +0.000 A 
ATOM      4  C   UNL     1       5.086   4.012  17.865  0.00  0.00    +0.000 A 
ATOM      5  C   UNL     1       5.364   4.746  19.032  0.00  0.00    +0.000 A 
ATOM      6  C   UNL     1       6.348   5.727  19.038  0.00  0.00    +0.000 A 
ATOM      7  C   UNL     1       7.072   5.983  17.877  0.00  0.00    +0.000 A 
ATOM      8  C   UNL     1       6.830   5.299  16.698  0.00  0.00    +0.000 A 
ATOM      9  N   UNL     1       7.564   5.636  15.621  0.00  0.00    +0.000 NA
ATOM     10  C   UNL     1       7.338   5.017  14.451  0.00  0.00    +0.000 A 
ENDROOT
BRANCH  10  11
ATOM     11  N   UNL     1       8.118   5.470  13.390  0.00  0.00    +0.000 N 
ATOM     12  H   UNL     1       7.492   5.568  12.594  0.00  0.00    +0.000 HD
ATOM     13  H   UNL     1       8.584   6.340  13.609  0.00  0.00    +0.000 HD
ENDBRANCH  10  11
BRANCH   1  14
ATOM     14  C   UNL     1       6.095   3.336  12.985  0.00  0.00    +0.000 C 
BRANCH  14  15
ATOM     15  C   UNL     1       4.856   3.896  12.280  0.00  0.00    +0.000 C 
BRANCH  15  16
ATOM     16  C   UNL     1       4.545   3.138  10.989  0.00  0.00    +0.000 C 
BRANCH  16  18
ATOM     17  C   UNL     1       2.869   4.278   9.491  0.00  0.00    +0.000 C 
ATOM     18  C   UNL     1       3.070   3.290  10.628  0.00  0.00    +0.000 C 
ENDBRANCH  16  18
ENDBRANCH  15  16
ENDBRANCH  14  15
ENDBRANCH   1  14
BRANCH   4  19
ATOM     19  C   UNL     1       3.938   3.022  17.935  0.00  0.00    +0.000 C 
BRANCH  19  20
ATOM     20  C   UNL     1       2.643   3.342  17.183  0.00  0.00    +0.000 C 
BRANCH  20  21
ATOM     21  C   UNL     1       1.428   3.671  18.053  0.00  0.00    +0.000 C 
BRANCH  21  22
ATOM     22  C   UNL     1       1.895   4.519  19.243  0.00  0.00    +0.000 C 
BRANCH  22  23
ATOM     23  C   UNL     1       1.191   4.162  20.550  0.00  0.00    +0.000 C 
BRANCH  23  24
ATOM     24  C   UNL     1       1.522   2.723  20.952  0.00  0.00    +0.000 C 
BRANCH  24  25
ATOM     25  N   UNL     1       2.528   2.706  22.006  0.00  0.00    +0.000 NA
ATOM     26  H   UNL     1       3.319   3.287  21.735  0.00  0.00    +0.000 HD
ATOM     27  H   UNL     1       2.892   1.758  22.108  0.00  0.00    +0.000 HD
ENDBRANCH  24  25
ENDBRANCH  23  24
ENDBRANCH  22  23
ENDBRANCH  21  22
ENDBRANCH  20  21
ENDBRANCH  19  20
ENDBRANCH   4  19
TORSDOF 12
ENDMDL
MODEL 2
REMARK VINA RESULT:      -7.9      0.979      1.075
REMARK  Name = 
REMARK  13 active torsions:
REMARK  status: ('A' for Active; 'I' for Inactive)
REMARK    1  A    between atoms: C_1  and  C_2
REMARK    2  A    between atoms: C_2  and  C_3
REMARK    3  A    between atoms: C_3  and  C_4
REMARK    4  A    between atoms: C_4  and  C_5
REMARK    5  A    between atoms: C_5  and  C_6
REMARK    6  A    between atoms: C_9  and  C_10
REMARK    7  A    between atoms: C_10  and  C_11
REMARK    8  A    between atoms: C_11  and  C_12
REMARK    9  A    between atoms: C_12  and  C_13
REMARK   10  A    between atoms: C_13  and  C_14
REMARK   11  A    between atoms: C_14  and  C_15
REMARK   12  A    between atoms: C_15  and  N_16
REMARK   13  A    between atoms: C_22  and  N_23
REMARK                            x       y       z     vdW  Elec       q    Type
REMARK                         _______ _______ _______ _____ _____    ______ ____
ROOT
ATOM      1  C   UNL     1       6.302   4.379  13.992  0.00  0.00    +0.000 A 
ATOM      2  C   UNL     1       5.371   4.054  14.991  0.00  0.00    +0.000 A 
ATOM      3  C   UNL     1       5.524   4.475  16.324  0.00  0.00    +0.000 A 
ATOM      4  C   UNL     1       4.610   4.184  17.383  0.00  0.00    +0.000 A 
ATOM      5  C   UNL     1       4.861   4.722  18.658  0.00  0.00    +0.000 A 
ATOM      6  C   UNL     1       5.983   5.507  18.890  0.00  0.00    +0.000 A 
ATOM      7  C   UNL     1       6.874   5.759  17.850  0.00  0.00    +0.000 A 
ATOM      8  C   UNL     1       6.668   5.265  16.574  0.00  0.00    +0.000 A 
ATOM      9  N   UNL     1       7.571   5.585  15.629  0.00  0.00    +0.000 NA
ATOM     10  C   UNL     1       7.390   5.150  14.371  0.00  0.00    +0.000 A 
ENDROOT
BRANCH  10  11
ATOM     11  N   UNL     1       8.355   5.574  13.462  0.00  0.00    +0.000 N 
ATOM     12  H   UNL     1       8.966   6.214  13.966  0.00  0.00    +0.000 HD
ATOM     13  H   UNL     1       8.870   4.797  13.068  0.00  0.00    +0.000 HD
ENDBRANCH  10  11
BRANCH   1  14
ATOM     14  C   UNL     1       6.076   3.889  12.582  0.00  0.00    +0.000 C 
BRANCH  14  15
ATOM     15  C   UNL     1       4.677   3.295  12.393  0.00  0.00    +0.000 C 
BRANCH  15  16
ATOM     16  C   UNL     1       4.434   2.858  10.949  0.00  0.00    +0.000 C 
BRANCH  16  18
ATOM     17  C   UNL     1       2.981   4.332   9.511  0.00  0.00    +0.000 C 
ATOM     18  C   UNL     1       3.008   3.200  10.524  0.00  0.00    +0.000 C 
ENDBRANCH  16  18
ENDBRANCH  15  16
ENDBRANCH  14  15
ENDBRANCH   1  14
BRANCH   4  19
ATOM     19  C   UNL     1       3.316   3.410  17.209  0.00  0.00    +0.000 C 
BRANCH  19  20
ATOM     20  C   UNL     1       3.183   2.039  17.879  0.00  0.00    +0.000 C 
BRANCH  20  21
ATOM     21  C   UNL     1       2.575   2.037  19.283  0.00  0.00    +0.000 C 
BRANCH  21  22
ATOM     22  C   UNL     1       1.226   2.764  19.233  0.00  0.00    +0.000 C 
BRANCH  22  23
ATOM     23  C   UNL     1       0.880   3.484  20.534  0.00  0.00    +0.000 C 
BRANCH  23  24
ATOM     24  C   UNL     1       2.157   3.973  21.222  0.00  0.00    +0.000 C 
BRANCH  24  25
ATOM     25  N   UNL     1       2.306   5.413  21.058  0.00  0.00    +0.000 NA
ATOM     26  H   UNL     1       2.148   5.665  20.084  0.00  0.00    +0.000 HD
ATOM     27  H   UNL     1       3.268   5.679  21.270  0.00  0.00    +0.000 HD
ENDBRANCH  24  25
ENDBRANCH  23  24
ENDBRANCH  22  23
ENDBRANCH  21  22
ENDBRANCH  20  21
ENDBRANCH  19  20
ENDBRANCH   4  19
TORSDOF 12
ENDMDL
MODEL 3
REMARK VINA RESULT:      -7.7      1.384      1.855
REMARK  Name = 
REMARK  13 active torsions:
REMARK  status: ('A' for Active; 'I' for Inactive)
REMARK    1  A    between atoms: C_1  and  C_2
REMARK    2  A    between atoms: C_2  and  C_3
REMARK    3  A    between atoms: C_3  and  C_4
REMARK    4  A    between atoms: C_4  and  C_5
REMARK    5  A    between atoms: C_5  and  C_6
REMARK    6  A    between atoms: C_9  and  C_10
REMARK    7  A    between atoms: C_10  and  C_11
REMARK    8  A    between atoms: C_11  and  C_12
REMARK    9  A    between atoms: C_12  and  C_13
REMARK   10  A    between atoms: C_13  and  C_14
REMARK   11  A    between atoms: C_14  and  C_15
REMARK   12  A    between atoms: C_15  and  N_16
REMARK   13  A    between atoms: C_22  and  N_23
REMARK                            x       y       z     vdW  Elec       q    Type
REMARK                         _______ _______ _______ _____ _____    ______ ____
ROOT
ATOM      1  C   UNL     1       5.954   4.357  14.156  0.00  0.00    +0.000 A 
ATOM      2  C   UNL     1       5.267   4.019  15.333  0.00  0.00    +0.000 A 
ATOM      3  C   UNL     1       5.710   4.429  16.602  0.00  0.00    +0.000 A 
ATOM      4  C   UNL     1       5.053   4.125  17.835  0.00  0.00    +0.000 A 
ATOM      5  C   UNL     1       5.578   4.653  19.027  0.00  0.00    +0.000 A 
ATOM      6  C   UNL     1       6.722   5.441  19.013  0.00  0.00    +0.000 A 
ATOM      7  C   UNL     1       7.361   5.706  17.805  0.00  0.00    +0.000 A 
ATOM      8  C   UNL     1       6.879   5.221  16.601  0.00  0.00    +0.000 A 
ATOM      9  N   UNL     1       7.550   5.554  15.483  0.00  0.00    +0.000 NA
ATOM     10  C   UNL     1       7.097   5.129  14.292  0.00  0.00    +0.000 A 
ENDROOT
BRANCH  10  11
ATOM     11  N   UNL     1       7.837   5.565  13.196  0.00  0.00    +0.000 N 
ATOM     12  H   UNL     1       7.747   6.578  13.172  0.00  0.00    +0.000 HD
ATOM     13  H   UNL     1       8.804   5.276  13.254  0.00  0.00    +0.000 HD
ENDBRANCH  10  11
BRANCH   1  14
ATOM     14  C   UNL     1       5.423   3.878  12.825  0.00  0.00    +0.000 C 
BRANCH  14  15
ATOM     15  C   UNL     1       6.414   2.959  12.105  0.00  0.00    +0.000 C 
BRANCH  15  16
ATOM     16  C   UNL     1       5.705   1.817  11.377  0.00  0.00    +0.000 C 
BRANCH  16  18
ATOM     17  C   UNL     1       5.930  -0.692  11.288  0.00  0.00    +0.000 C 
ATOM     18  C   UNL     1       6.657   0.638  11.186  0.00  0.00    +0.000 C 
ENDBRANCH  16  18
ENDBRANCH  15  16
ENDBRANCH  14  15
ENDBRANCH   1  14
BRANCH   4  19
ATOM     19  C   UNL     1       3.754   3.346  17.943  0.00  0.00    +0.000 C 
BRANCH  19  20
ATOM     20  C   UNL     1       2.430   4.097  17.771  0.00  0.00    +0.000 C 
BRANCH  20  21
ATOM     21  C   UNL     1       1.172   3.340  18.202  0.00  0.00    +0.000 C 
BRANCH  21  22
ATOM     22  C   UNL     1       0.817   3.758  19.634  0.00  0.00    +0.000 C 
BRANCH  22  23
ATOM     23  C   UNL     1       1.418   2.840  20.696  0.00  0.00    +0.000 C 
BRANCH  23  24
ATOM     24  C   UNL     1       2.286   3.648  21.662  0.00  0.00    +0.000 C 
BRANCH  24  25
ATOM     25  N   UNL     1       2.443   5.016  21.187  0.00  0.00    +0.000 NA
ATOM     26  H   UNL     1       1.681   5.592  21.541  0.00  0.00    +0.000 HD
ATOM     27  H   UNL     1       2.363   5.031  20.170  0.00  0.00    +0.000 HD
ENDBRANCH  24  25
ENDBRANCH  23  24
ENDBRANCH  22  23
ENDBRANCH  21  22
ENDBRANCH  20  21
ENDBRANCH  19  20
ENDBRANCH   4  19
TORSDOF 12
ENDMDL
MODEL 4
REMARK VINA RESULT:      -7.7      1.535      2.083
REMARK  Name = 
REMARK  13 active torsions:
REMARK  status: ('A' for Active; 'I' for Inactive)
REMARK    1  A    between atoms: C_1  and  C_2
REMARK    2  A    between atoms: C_2  and  C_3
REMARK    3  A    between atoms: C_3  and  C_4
REMARK    4  A    between atoms: C_4  and  C_5
REMARK    5  A    between atoms: C_5  and  C_6
REMARK    6  A    between atoms: C_9  and  C_10
REMARK    7  A    between atoms: C_10  and  C_11
REMARK    8  A    between atoms: C_11  and  C_12
REMARK    9  A    between atoms: C_12  and  C_13
REMARK   10  A    between atoms: C_13  and  C_14
REMARK   11  A    between atoms: C_14  and  C_15
REMARK   12  A    between atoms: C_15  and  N_16
REMARK   13  A    between atoms: C_22  and  N_23
REMARK                            x       y       z     vdW  Elec       q    Type
REMARK                         _______ _______ _______ _____ _____    ______ ____
ROOT
ATOM      1  C   UNL     1       5.990   4.427  14.149  0.00  0.00    +0.000 A 
ATOM      2  C   UNL     1       5.174   4.055  15.229  0.00  0.00    +0.000 A 
ATOM      3  C   UNL     1       5.503   4.369  16.560  0.00  0.00    +0.000 A 
ATOM      4  C   UNL     1       4.713   4.026  17.700  0.00  0.00    +0.000 A 
ATOM      5  C   UNL     1       5.136   4.459  18.969  0.00  0.00    +0.000 A 
ATOM      6  C   UNL     1       6.308   5.189  19.117  0.00  0.00    +0.000 A 
ATOM      7  C   UNL     1       7.077   5.493  17.996  0.00  0.00    +0.000 A 
ATOM      8  C   UNL     1       6.699   5.102  16.723  0.00  0.00    +0.000 A 
ATOM      9  N   UNL     1       7.493   5.466  15.700  0.00  0.00    +0.000 NA
ATOM     10  C   UNL     1       7.146   5.133  14.446  0.00  0.00    +0.000 A 
ENDROOT
BRANCH  10  11
ATOM     11  N   UNL     1       8.010   5.595  13.457  0.00  0.00    +0.000 N 
ATOM     12  H   UNL     1       8.318   6.519  13.752  0.00  0.00    +0.000 HD
ATOM     13  H   UNL     1       8.791   4.968  13.315  0.00  0.00    +0.000 HD
ENDBRANCH  10  11
BRANCH   1  14
ATOM     14  C   UNL     1       5.577   4.052  12.746  0.00  0.00    +0.000 C 
BRANCH  14  15
ATOM     15  C   UNL     1       6.462   2.950  12.158  0.00  0.00    +0.000 C 
BRANCH  15  16
ATOM     16  C   UNL     1       5.639   1.883  11.436  0.00  0.00    +0.000 C 
BRANCH  16  18
ATOM     17  C   UNL     1       6.040  -0.604  11.363  0.00  0.00    +0.000 C 
ATOM     18  C   UNL     1       6.547   0.763  10.935  0.00  0.00    +0.000 C 
ENDBRANCH  16  18
ENDBRANCH  15  16
ENDBRANCH  14  15
ENDBRANCH   1  14
BRANCH   4  19
ATOM     19  C   UNL     1       3.378   3.307  17.631  0.00  0.00    +0.000 C 
BRANCH  19  20
ATOM     20  C   UNL     1       3.175   2.050  18.482  0.00  0.00    +0.000 C 
BRANCH  20  21
ATOM     21  C   UNL     1       2.084   2.136  19.552  0.00  0.00    +0.000 C 
BRANCH  21  22
ATOM     22  C   UNL     1       2.735   2.536  20.882  0.00  0.00    +0.000 C 
BRANCH  22  23
ATOM     23  C   UNL     1       1.999   3.666  21.598  0.00  0.00    +0.000 C 
BRANCH  23  24
ATOM     24  C   UNL     1       1.546   4.723  20.589  0.00  0.00    +0.000 C 
BRANCH  24  25
ATOM     25  N   UNL     1       2.334   5.940  20.735  0.00  0.00    +0.000 NA
ATOM     26  H   UNL     1       3.306   5.698  20.921  0.00  0.00    +0.000 HD
ATOM     27  H   UNL     1       2.008   6.457  21.552  0.00  0.00    +0.000 HD
ENDBRANCH  24  25
ENDBRANCH  23  24
ENDBRANCH  22  23
ENDBRANCH  21  22
ENDBRANCH  20  21
ENDBRANCH  19  20
ENDBRANCH   4  19
TORSDOF 12
ENDMDL
MODEL 5
REMARK VINA RESULT:      -7.6      1.161      1.623
REMARK  Name = 
REMARK  13 active torsions:
REMARK  status: ('A' for Active; 'I' for Inactive)
REMARK    1  A    between atoms: C_1  and  C_2
REMARK    2  A    between atoms: C_2  and  C_3
REMARK    3  A    between atoms: C_3  and  C_4
REMARK    4  A    between atoms: C_4  and  C_5
REMARK    5  A    between atoms: C_5  and  C_6
REMARK    6  A    between atoms: C_9  and  C_10
REMARK    7  A    between atoms: C_10  and  C_11
REMARK    8  A    between atoms: C_11  and  C_12
REMARK    9  A    between atoms: C_12  and  C_13
REMARK   10  A    between atoms: C_13  and  C_14
REMARK   11  A    between atoms: C_14  and  C_15
REMARK   12  A    between atoms: C_15  and  N_16
REMARK   13  A    between atoms: C_22  and  N_23
REMARK                            x       y       z     vdW  Elec       q    Type
REMARK                         _______ _______ _______ _____ _____    ______ ____
ROOT
ATOM      1  C   UNL     1       6.398   4.360  14.011  0.00  0.00    +0.000 A 
ATOM      2  C   UNL     1       5.399   4.024  14.938  0.00  0.00    +0.000 A 
ATOM      3  C   UNL     1       5.376   4.555  16.240  0.00  0.00    +0.000 A 
ATOM      4  C   UNL     1       4.385   4.259  17.226  0.00  0.00    +0.000 A 
ATOM      5  C   UNL     1       4.455   4.912  18.469  0.00  0.00    +0.000 A 
ATOM      6  C   UNL     1       5.475   5.814  18.743  0.00  0.00    +0.000 A 
ATOM      7  C   UNL     1       6.445   6.071  17.777  0.00  0.00    +0.000 A 
ATOM      8  C   UNL     1       6.416   5.465  16.532  0.00  0.00    +0.000 A 
ATOM      9  N   UNL     1       7.381   5.798  15.657  0.00  0.00    +0.000 NA
ATOM     10  C   UNL     1       7.371   5.255  14.428  0.00  0.00    +0.000 A 
ENDROOT
BRANCH  10  11
ATOM     11  N   UNL     1       8.385   5.699  13.584  0.00  0.00    +0.000 N 
ATOM     12  H   UNL     1       9.264   5.462  14.039  0.00  0.00    +0.000 HD
ATOM     13  H   UNL     1       8.318   5.286  12.663  0.00  0.00    +0.000 HD
ENDBRANCH  10  11
BRANCH   1  14
ATOM     14  C   UNL     1       6.363   3.747  12.631  0.00  0.00    +0.000 C 
BRANCH  14  15
ATOM     15  C   UNL     1       4.932   3.506  12.141  0.00  0.00    +0.000 C 
BRANCH  15  16
ATOM     16  C   UNL     1       4.838   2.274  11.242  0.00  0.00    +0.000 C 
BRANCH  16  18
ATOM     17  C   UNL     1       6.015   0.046  11.176  0.00  0.00    +0.000 C 
ATOM     18  C   UNL     1       6.185   1.556  11.185  0.00  0.00    +0.000 C 
ENDBRANCH  16  18
ENDBRANCH  15  16
ENDBRANCH  14  15
ENDBRANCH   1  14
BRANCH   4  19
ATOM     19  C   UNL     1       3.188   3.356  16.992  0.00  0.00    +0.000 C 
BRANCH  19  20
ATOM     20  C   UNL     1       1.823   3.787  17.538  0.00  0.00    +0.000 C 
BRANCH  20  21
ATOM     21  C   UNL     1       1.177   2.838  18.548  0.00  0.00    +0.000 C 
BRANCH  21  22
ATOM     22  C   UNL     1       0.920   3.608  19.849  0.00  0.00    +0.000 C 
BRANCH  22  23
ATOM     23  C   UNL     1       2.198   3.950  20.610  0.00  0.00    +0.000 C 
BRANCH  23  24
ATOM     24  C   UNL     1       2.355   3.026  21.820  0.00  0.00    +0.000 C 
BRANCH  24  25
ATOM     25  N   UNL     1       1.056   2.531  22.257  0.00  0.00    +0.000 NA
ATOM     26  H   UNL     1       0.675   1.901  21.553  0.00  0.00    +0.000 HD
ATOM     27  H   UNL     1       0.404   3.312  22.324  0.00  0.00    +0.000 HD
ENDBRANCH  24  25
ENDBRANCH  23  24
ENDBRANCH  22  23
ENDBRANCH  21  22
ENDBRANCH  20  21
ENDBRANCH  19  20
ENDBRANCH   4  19
TORSDOF 12
ENDMDL
MODEL 6
REMARK VINA RESULT:      -7.4      1.604      1.906
REMARK  Name = 
REMARK  13 active torsions:
REMARK  status: ('A' for Active; 'I' for Inactive)
REMARK    1  A    between atoms: C_1  and  C_2
REMARK    2  A    between atoms: C_2  and  C_3
REMARK    3  A    between atoms: C_3  and  C_4
REMARK    4  A    between atoms: C_4  and  C_5
REMARK    5  A    between atoms: C_5  and  C_6
REMARK    6  A    between atoms: C_9  and  C_10
REMARK    7  A    between atoms: C_10  and  C_11
REMARK    8  A    between atoms: C_11  and  C_12
REMARK    9  A    between atoms: C_12  and  C_13
REMARK   10  A    between atoms: C_13  and  C_14
REMARK   11  A    between atoms: C_14  and  C_15
REMARK   12  A    between atoms: C_15  and  N_16
REMARK   13  A    between atoms: C_22  and  N_23
REMARK                            x       y       z     vdW  Elec       q    Type
REMARK                         _______ _______ _______ _____ _____    ______ ____
ROOT
ATOM      1  C   UNL     1       5.882   4.606  14.291  0.00  0.00    +0.000 A 
ATOM      2  C   UNL     1       5.111   4.288  15.420  0.00  0.00    +0.000 A 
ATOM      3  C   UNL     1       5.561   4.540  16.729  0.00  0.00    +0.000 A 
ATOM      4  C   UNL     1       4.822   4.247  17.917  0.00  0.00    +0.000 A 
ATOM      5  C   UNL     1       5.373   4.609  19.159  0.00  0.00    +0.000 A 
ATOM      6  C   UNL     1       6.617   5.222  19.234  0.00  0.00    +0.000 A 
ATOM      7  C   UNL     1       7.331   5.477  18.066  0.00  0.00    +0.000 A 
ATOM      8  C   UNL     1       6.830   5.153  16.817  0.00  0.00    +0.000 A 
ATOM      9  N   UNL     1       7.582   5.464  15.746  0.00  0.00    +0.000 NA
ATOM     10  C   UNL     1       7.118   5.193  14.515  0.00  0.00    +0.000 A 
ENDROOT
BRANCH  10  11
ATOM     11  N   UNL     1       7.951   5.595  13.474  0.00  0.00    +0.000 N 
ATOM     12  H   UNL     1       8.904   5.416  13.783  0.00  0.00    +0.000 HD
ATOM     13  H   UNL     1       7.740   5.109  12.613  0.00  0.00    +0.000 HD
ENDBRANCH  10  11
BRANCH   1  14
ATOM     14  C   UNL     1       5.338   4.304  12.915  0.00  0.00    +0.000 C 
BRANCH  14  15
ATOM     15  C   UNL     1       5.794   2.936  12.401  0.00  0.00    +0.000 C 
BRANCH  15  16
ATOM     16  C   UNL     1       5.035   2.518  11.141  0.00  0.00    +0.000 C 
BRANCH  16  18
ATOM     17  C   UNL     1       3.226   3.680   9.826  0.00  0.00    +0.000 C 
ATOM     18  C   UNL     1       3.616   3.082  11.167  0.00  0.00    +0.000 C 
ENDBRANCH  16  18
ENDBRANCH  15  16
ENDBRANCH  14  15
ENDBRANCH   1  14
BRANCH   4  19
ATOM     19  C   UNL     1       3.424   3.659  17.932  0.00  0.00    +0.000 C 
BRANCH  19  20
ATOM     20  C   UNL     1       2.226   4.610  18.023  0.00  0.00    +0.000 C 
BRANCH  20  21
ATOM     21  C   UNL     1       1.410   4.536  19.315  0.00  0.00    +0.000 C 
BRANCH  21  22
ATOM     22  C   UNL     1       1.967   5.568  20.303  0.00  0.00    +0.000 C 
BRANCH  22  23
ATOM     23  C   UNL     1       2.437   6.856  19.630  0.00  0.00    +0.000 C 
BRANCH  23  24
ATOM     24  C   UNL     1       1.646   8.051  20.167  0.00  0.00    +0.000 C 
BRANCH  24  25
ATOM     25  N   UNL     1       1.648   8.053  21.624  0.00  0.00    +0.000 NA
ATOM     26  H   UNL     1       0.729   7.780  21.968  0.00  0.00    +0.000 HD
ATOM     27  H   UNL     1       1.808   9.003  21.959  0.00  0.00    +0.000 HD
ENDBRANCH  24  25
ENDBRANCH  23  24
ENDBRANCH  22  23
ENDBRANCH  21  22
ENDBRANCH  20  21
ENDBRANCH  19  20
ENDBRANCH   4  19
TORSDOF 12
ENDMDL
MODEL 7
REMARK VINA RESULT:      -7.3      2.192      6.898
REMARK  Name = 
REMARK  13 active torsions:
REMARK  status: ('A' for Active; 'I' for Inactive)
REMARK    1  A    between atoms: C_1  and  C_2
REMARK    2  A    between atoms: C_2  and  C_3
REMARK    3  A    between atoms: C_3  and  C_4
REMARK    4  A    between atoms: C_4  and  C_5
REMARK    5  A    between atoms: C_5  and  C_6
REMARK    6  A    between atoms: C_9  and  C_10
REMARK    7  A    between atoms: C_10  and  C_11
REMARK    8  A    between atoms: C_11  and  C_12
REMARK    9  A    between atoms: C_12  and  C_13
REMARK   10  A    between atoms: C_13  and  C_14
REMARK   11  A    between atoms: C_14  and  C_15
REMARK   12  A    between atoms: C_15  and  N_16
REMARK   13  A    between atoms: C_22  and  N_23
REMARK                            x       y       z     vdW  Elec       q    Type
REMARK                         _______ _______ _______ _____ _____    ______ ____
ROOT
ATOM      1  C   UNL     1       3.911   3.084  18.264  0.00  0.00    +0.000 A 
ATOM      2  C   UNL     1       4.369   3.938  17.249  0.00  0.00    +0.000 A 
ATOM      3  C   UNL     1       5.447   4.820  17.442  0.00  0.00    +0.000 A 
ATOM      4  C   UNL     1       5.964   5.707  16.448  0.00  0.00    +0.000 A 
ATOM      5  C   UNL     1       7.088   6.492  16.764  0.00  0.00    +0.000 A 
ATOM      6  C   UNL     1       7.674   6.421  18.021  0.00  0.00    +0.000 A 
ATOM      7  C   UNL     1       7.140   5.567  18.983  0.00  0.00    +0.000 A 
ATOM      8  C   UNL     1       6.044   4.764  18.720  0.00  0.00    +0.000 A 
ATOM      9  N   UNL     1       5.617   3.952  19.705  0.00  0.00    +0.000 NA
ATOM     10  C   UNL     1       4.575   3.135  19.480  0.00  0.00    +0.000 A 
ENDROOT
BRANCH  10  11
ATOM     11  N   UNL     1       4.242   2.305  20.546  0.00  0.00    +0.000 N 
ATOM     12  H   UNL     1       3.983   2.915  21.318  0.00  0.00    +0.000 HD
ATOM     13  H   UNL     1       3.496   1.665  20.308  0.00  0.00    +0.000 HD
ENDBRANCH  10  11
BRANCH   1  14
ATOM     14  C   UNL     1       2.744   2.165  17.988  0.00  0.00    +0.000 C 
BRANCH  14  15
ATOM     15  C   UNL     1       1.397   2.869  18.174  0.00  0.00    +0.000 C 
BRANCH  15  16
ATOM     16  C   UNL     1       0.617   2.302  19.360  0.00  0.00    +0.000 C 
BRANCH  16  18
ATOM     17  C   UNL     1       1.149   4.553  20.360  0.00  0.00    +0.000 C 
ATOM     18  C   UNL     1       0.957   3.071  20.634  0.00  0.00    +0.000 C 
ENDBRANCH  16  18
ENDBRANCH  15  16
ENDBRANCH  14  15
ENDBRANCH   1  14
BRANCH   4  19
ATOM     19  C   UNL     1       5.447   5.794  15.024  0.00  0.00    +0.000 C 
BRANCH  19  20
ATOM     20  C   UNL     1       5.171   4.494  14.261  0.00  0.00    +0.000 C 
BRANCH  20  21
ATOM     21  C   UNL     1       6.405   3.722  13.788  0.00  0.00    +0.000 C 
BRANCH  21  22
ATOM     22  C   UNL     1       6.386   3.663  12.256  0.00  0.00    +0.000 C 
BRANCH  22  23
ATOM     23  C   UNL     1       5.647   2.444  11.709  0.00  0.00    +0.000 C 
BRANCH  23  24
ATOM     24  C   UNL     1       6.644   1.443  11.121  0.00  0.00    +0.000 C 
BRANCH  24  25
ATOM     25  N   UNL     1       6.230   0.077  11.413  0.00  0.00    +0.000 NA
ATOM     26  H   UNL     1       7.046  -0.533  11.430  0.00  0.00    +0.000 HD
ATOM     27  H   UNL     1       5.636  -0.264  10.656  0.00  0.00    +0.000 HD
ENDBRANCH  24  25
ENDBRANCH  23  24
ENDBRANCH  22  23
ENDBRANCH  21  22
ENDBRANCH  20  21
ENDBRANCH  19  20
ENDBRANCH   4  19
TORSDOF 12
ENDMDL
MODEL 8
REMARK VINA RESULT:      -7.3      2.030      2.602
REMARK  Name = 
REMARK  13 active torsions:
REMARK  status: ('A' for Active; 'I' for Inactive)
REMARK    1  A    between atoms: C_1  and  C_2
REMARK    2  A    between atoms: C_2  and  C_3
REMARK    3  A    between atoms: C_3  and  C_4
REMARK    4  A    between atoms: C_4  and  C_5
REMARK    5  A    between atoms: C_5  and  C_6
REMARK    6  A    between atoms: C_9  and  C_10
REMARK    7  A    between atoms: C_10  and  C_11
REMARK    8  A    between atoms: C_11  and  C_12
REMARK    9  A    between atoms: C_12  and  C_13
REMARK   10  A    between atoms: C_13  and  C_14
REMARK   11  A    between atoms: C_14  and  C_15
REMARK   12  A    between atoms: C_15  and  N_16
REMARK   13  A    between atoms: C_22  and  N_23
REMARK                            x       y       z     vdW  Elec       q    Type
REMARK                         _______ _______ _______ _____ _____    ______ ____
ROOT
ATOM      1  C   UNL     1       5.815   4.575  14.479  0.00  0.00    +0.000 A 
ATOM      2  C   UNL     1       5.141   4.330  15.686  0.00  0.00    +0.000 A 
ATOM      3  C   UNL     1       5.700   4.656  16.935  0.00  0.00    +0.000 A 
ATOM      4  C   UNL     1       5.063   4.439  18.196  0.00  0.00    +0.000 A 
ATOM      5  C   UNL     1       5.717   4.870  19.364  0.00  0.00    +0.000 A 
ATOM      6  C   UNL     1       6.964   5.478  19.299  0.00  0.00    +0.000 A 
ATOM      7  C   UNL     1       7.578   5.658  18.062  0.00  0.00    +0.000 A 
ATOM      8  C   UNL     1       6.973   5.264  16.880  0.00  0.00    +0.000 A 
ATOM      9  N   UNL     1       7.633   5.506  15.733  0.00  0.00    +0.000 NA
ATOM     10  C   UNL     1       7.066   5.166  14.564  0.00  0.00    +0.000 A 
ENDROOT
BRANCH  10  11
ATOM     11  N   UNL     1       7.810   5.499  13.435  0.00  0.00    +0.000 N 
ATOM     12  H   UNL     1       8.243   6.400  13.630  0.00  0.00    +0.000 HD
ATOM     13  H   UNL     1       8.500   4.793  13.216  0.00  0.00    +0.000 HD
ENDBRANCH  10  11
BRANCH   1  14
ATOM     14  C   UNL     1       5.157   4.196  13.174  0.00  0.00    +0.000 C 
BRANCH  14  15
ATOM     15  C   UNL     1       5.873   3.033  12.482  0.00  0.00    +0.000 C 
BRANCH  15  16
ATOM     16  C   UNL     1       5.111   2.549  11.249  0.00  0.00    +0.000 C 
BRANCH  16  18
ATOM     17  C   UNL     1       3.348   3.795   9.950  0.00  0.00    +0.000 C 
ATOM     18  C   UNL     1       3.687   3.097  11.256  0.00  0.00    +0.000 C 
ENDBRANCH  16  18
ENDBRANCH  15  16
ENDBRANCH  14  15
ENDBRANCH   1  14
BRANCH   4  19
ATOM     19  C   UNL     1       3.669   3.862  18.364  0.00  0.00    +0.000 C 
BRANCH  19  20
ATOM     20  C   UNL     1       2.849   4.266  19.593  0.00  0.00    +0.000 C 
BRANCH  20  21
ATOM     21  C   UNL     1       1.988   5.521  19.439  0.00  0.00    +0.000 C 
BRANCH  21  22
ATOM     22  C   UNL     1       2.243   6.122  18.051  0.00  0.00    +0.000 C 
BRANCH  22  23
ATOM     23  C   UNL     1       2.934   7.483  18.101  0.00  0.00    +0.000 C 
BRANCH  23  24
ATOM     24  C   UNL     1       1.926   8.572  18.475  0.00  0.00    +0.000 C 
BRANCH  24  25
ATOM     25  N   UNL     1       1.892   9.611  17.454  0.00  0.00    +0.000 NA
ATOM     26  H   UNL     1       1.722  10.515  17.890  0.00  0.00    +0.000 HD
ATOM     27  H   UNL     1       1.103   9.443  16.829  0.00  0.00    +0.000 HD
ENDBRANCH  24  25
ENDBRANCH  23  24
ENDBRANCH  22  23
ENDBRANCH  21  22
ENDBRANCH  20  21
ENDBRANCH  19  20
ENDBRANCH   4  19
TORSDOF 12
ENDMDL
MODEL 9
REMARK VINA RESULT:      -7.3      1.596      1.929
REMARK  Name = 
REMARK  13 active torsions:
REMARK  status: ('A' for Active; 'I' for Inactive)
REMARK    1  A    between atoms: C_1  and  C_2
REMARK    2  A    between atoms: C_2  and  C_3
REMARK    3  A    between atoms: C_3  and  C_4
REMARK    4  A    between atoms: C_4  and  C_5
REMARK    5  A    between atoms: C_5  and  C_6
REMARK    6  A    between atoms: C_9  and  C_10
REMARK    7  A    between atoms: C_10  and  C_11
REMARK    8  A    between atoms: C_11  and  C_12
REMARK    9  A    between atoms: C_12  and  C_13
REMARK   10  A    between atoms: C_13  and  C_14
REMARK   11  A    between atoms: C_14  and  C_15
REMARK   12  A    between atoms: C_15  and  N_16
REMARK   13  A    between atoms: C_22  and  N_23
REMARK                            x       y       z     vdW  Elec       q    Type
REMARK                         _______ _______ _______ _____ _____    ______ ____
ROOT
ATOM      1  C   UNL     1       6.456   4.330  14.093  0.00  0.00    +0.000 A 
ATOM      2  C   UNL     1       5.610   3.899  15.127  0.00  0.00    +0.000 A 
ATOM      3  C   UNL     1       5.797   4.296  16.463  0.00  0.00    +0.000 A 
ATOM      4  C   UNL     1       4.967   3.898  17.557  0.00  0.00    +0.000 A 
ATOM      5  C   UNL     1       5.238   4.423  18.833  0.00  0.00    +0.000 A 
ATOM      6  C   UNL     1       6.300   5.295  19.034  0.00  0.00    +0.000 A 
ATOM      7  C   UNL     1       7.111   5.652  17.959  0.00  0.00    +0.000 A 
ATOM      8  C   UNL     1       6.881   5.175  16.679  0.00  0.00    +0.000 A 
ATOM      9  N   UNL     1       7.702   5.597  15.701  0.00  0.00    +0.000 NA
ATOM     10  C   UNL     1       7.494   5.182  14.441  0.00  0.00    +0.000 A 
ENDROOT
BRANCH  10  11
ATOM     11  N   UNL     1       8.370   5.712  13.498  0.00  0.00    +0.000 N 
ATOM     12  H   UNL     1       8.031   6.647  13.283  0.00  0.00    +0.000 HD
ATOM     13  H   UNL     1       9.324   5.728  13.836  0.00  0.00    +0.000 HD
ENDBRANCH  10  11
BRANCH   1  14
ATOM     14  C   UNL     1       6.200   3.860  12.682  0.00  0.00    +0.000 C 
BRANCH  14  15
ATOM     15  C   UNL     1       4.831   3.188  12.536  0.00  0.00    +0.000 C 
BRANCH  15  16
ATOM     16  C   UNL     1       4.472   2.941  11.071  0.00  0.00    +0.000 C 
BRANCH  16  18
ATOM     17  C   UNL     1       3.025   4.056   9.335  0.00  0.00    +0.000 C 
ATOM     18  C   UNL     1       3.097   3.526  10.757  0.00  0.00    +0.000 C 
ENDBRANCH  16  18
ENDBRANCH  15  16
ENDBRANCH  14  15
ENDBRANCH   1  14
BRANCH   4  19
ATOM     19  C   UNL     1       3.737   3.020  17.423  0.00  0.00    +0.000 C 
BRANCH  19  20
ATOM     20  C   UNL     1       2.572   3.233  18.395  0.00  0.00    +0.000 C 
BRANCH  20  21
ATOM     21  C   UNL     1       1.848   4.576  18.285  0.00  0.00    +0.000 C 
BRANCH  21  22
ATOM     22  C   UNL     1       1.867   5.255  19.660  0.00  0.00    +0.000 C 
BRANCH  22  23
ATOM     23  C   UNL     1       2.313   6.714  19.606  0.00  0.00    +0.000 C 
BRANCH  23  24
ATOM     24  C   UNL     1       2.367   7.195  18.154  0.00  0.00    +0.000 C 
BRANCH  24  25
ATOM     25  N   UNL     1       3.737   7.513  17.771  0.00  0.00    +0.000 NA
ATOM     26  H   UNL     1       4.038   8.361  18.248  0.00  0.00    +0.000 HD
ATOM     27  H   UNL     1       3.768   7.721  16.773  0.00  0.00    +0.000 HD
ENDBRANCH  24  25
ENDBRANCH  23  24
ENDBRANCH  22  23
ENDBRANCH  21  22
ENDBRANCH  20  21
ENDBRANCH  19  20
ENDBRANCH   4  19
TORSDOF 12
ENDMDL
