MODEL 1
REMARK VINA RESULT:      -8.1      0.000      0.000
REMARK  Name = 
REMARK  13 active torsions:
REMARK  status: ('A' for Active; 'I' for Inactive)
REMARK    1  A    between atoms: C_1  and  O_2
REMARK    2  A    between atoms: O_2  and  C_3
REMARK    3  A    between atoms: C_7  and  C_8
REMARK    4  A    between atoms: C_10  and  C_11
REMARK    5  A    between atoms: C_11  and  S_12
REMARK    6  A    between atoms: S_12  and  C_14
REMARK    7  A    between atoms: C_14  and  C_15
REMARK    8  A    between atoms: N_17  and  C_18
REMARK    9  A    between atoms: C_18  and  C_19
REMARK   10  A    between atoms: C_18  and  C_20
REMARK   11  A    between atoms: C_20  and  C_21
REMARK   12  A    between atoms: C_21  and  C_22
REMARK   13  A    between atoms: C_28  and  C_29
REMARK                            x       y       z     vdW  Elec       q    Type
REMARK                         _______ _______ _______ _____ _____    ______ ____
ROOT
ATOM      1  S   UNL     1       4.322   3.016  19.020  0.00  0.00    +0.000 S 
ATOM      2  O   UNL     1       4.679   2.237  20.337  0.00  0.00    +0.000 OA
ENDROOT
BRANCH   1   3
ATOM      3  C   UNL     1       5.153   4.634  19.027  0.00  0.00    +0.000 C 
BRANCH   3   6
ATOM      4  C   UNL     1       6.166   4.948  15.616  0.00  0.00    +0.000 A 
ATOM      5  N   UNL     1       5.340   4.459  16.519  0.00  0.00    +0.000 NA
ATOM      6  C   UNL     1       5.743   5.041  17.716  0.00  0.00    +0.000 A 
ATOM      7  C   UNL     1       6.729   5.967  17.449  0.00  0.00    +0.000 A 
ATOM      8  C   UNL     1       7.503   6.940  18.231  0.00  0.00    +0.000 C 
ATOM      9  O   UNL     1       7.004   5.909  16.119  0.00  0.00    +0.000 OA
BRANCH   4  14
ATOM     10  C   UNL     1       5.829   3.306  12.209  0.00  0.00    +0.000 A 
ATOM     11  C   UNL     1       6.888   3.890  11.521  0.00  0.00    +0.000 A 
ATOM     12  C   UNL     1       7.690   4.828  12.158  0.00  0.00    +0.000 A 
ATOM     13  C   UNL     1       7.432   5.175  13.477  0.00  0.00    +0.000 A 
ATOM     14  C   UNL     1       6.376   4.592  14.206  0.00  0.00    +0.000 A 
ATOM     15  C   UNL     1       5.569   3.652  13.542  0.00  0.00    +0.000 A 
BRANCH  10  17
ATOM     16  C   UNL     1       3.961   3.182  10.847  0.00  0.00    +0.000 C 
ATOM     17  O   UNL     1       5.018   2.473  11.484  0.00  0.00    +0.000 OA
ENDBRANCH  10  17
ENDBRANCH   4  14
ENDBRANCH   3   6
ENDBRANCH   1   3
BRANCH   1  18
ATOM     18  C   UNL     1       2.616   3.614  19.143  0.00  0.00    +0.000 C 
BRANCH  18  19
ATOM     19  C   UNL     1       2.595   4.942  19.862  0.00  0.00    +0.000 C 
ATOM     20  O   UNL     1       2.698   5.021  21.083  0.00  0.00    +0.000 OA
ATOM     21  N   UNL     1       2.380   6.042  19.057  0.00  0.00    +0.000 N 
ATOM     22  H   UNL     1       2.335   5.927  18.048  0.00  0.00    +0.000 HD
BRANCH  21  23
ATOM     23  C   UNL     1       2.308   7.392  19.610  0.00  0.00    +0.000 C 
ATOM     24  C   UNL     1       2.197   8.401  18.467  0.00  0.00    +0.000 C 
BRANCH  23  25
ATOM     25  C   UNL     1       1.153   7.534  20.628  0.00  0.00    +0.000 C 
BRANCH  25  26
ATOM     26  C   UNL     1       1.452   8.636  21.667  0.00  0.00    +0.000 C 
BRANCH  26  27
ATOM     27  C   UNL     1       0.409   9.720  21.829  0.00  0.00    +0.000 A 
ATOM     28  C   UNL     1       0.075  10.551  20.743  0.00  0.00    +0.000 A 
ATOM     29  C   UNL     1      -0.855  11.585  20.881  0.00  0.00    +0.000 A 
ATOM     30  C   UNL     1      -1.507  11.771  22.097  0.00  0.00    +0.000 A 
ATOM     31  C   UNL     1      -1.224  10.926  23.170  0.00  0.00    +0.000 A 
ATOM     32  C   UNL     1      -0.274   9.907  23.037  0.00  0.00    +0.000 A 
ENDBRANCH  26  27
ENDBRANCH  25  26
ENDBRANCH  23  25
ENDBRANCH  21  23
ENDBRANCH  18  19
ENDBRANCH   1  18
TORSDOF 10
ENDMDL
MODEL 2
REMARK VINA RESULT:      -7.6      5.764     12.850
REMARK  Name = 
REMARK  13 active torsions:
REMARK  status: ('A' for Active; 'I' for Inactive)
REMARK    1  A    between atoms: C_1  and  O_2
REMARK    2  A    between atoms: O_2  and  C_3
REMARK    3  A    between atoms: C_7  and  C_8
REMARK    4  A    between atoms: C_10  and  C_11
REMARK    5  A    between atoms: C_11  and  S_12
REMARK    6  A    between atoms: S_12  and  C_14
REMARK    7  A    between atoms: C_14  and  C_15
REMARK    8  A    between atoms: N_17  and  C_18
REMARK    9  A    between atoms: C_18  and  C_19
REMARK   10  A    between atoms: C_18  and  C_20
REMARK   11  A    between atoms: C_20  and  C_21
REMARK   12  A    between atoms: C_21  and  C_22
REMARK   13  A    between atoms: C_28  and  C_29
REMARK                            x       y       z     vdW  Elec       q    Type
REMARK                         _______ _______ _______ _____ _____    ______ ____
ROOT
ATOM      1  S   UNL     1      -2.951  10.404  17.330  0.00  0.00    +0.000 S 
ATOM      2  O   UNL     1      -2.423   9.554  16.118  0.00  0.00    +0.000 OA
ENDROOT
BRANCH   1   3
ATOM      3  C   UNL     1      -4.491  11.248  16.854  0.00  0.00    +0.000 C 
BRANCH   3   6
ATOM      4  C   UNL     1      -5.662  12.544  19.969  0.00  0.00    +0.000 A 
ATOM      5  N   UNL     1      -4.773  11.853  19.286  0.00  0.00    +0.000 NA
ATOM      6  C   UNL     1      -5.157  12.004  17.957  0.00  0.00    +0.000 A 
ATOM      7  C   UNL     1      -6.203  12.900  17.898  0.00  0.00    +0.000 A 
ATOM      8  C   UNL     1      -6.996  13.527  16.831  0.00  0.00    +0.000 C 
ATOM      9  O   UNL     1      -6.530  13.242  19.171  0.00  0.00    +0.000 OA
BRANCH   4  14
ATOM     10  C   UNL     1      -5.152  12.909  23.714  0.00  0.00    +0.000 A 
ATOM     11  C   UNL     1      -6.446  12.706  24.186  0.00  0.00    +0.000 A 
ATOM     12  C   UNL     1      -7.478  12.474  23.285  0.00  0.00    +0.000 A 
ATOM     13  C   UNL     1      -7.212  12.444  21.923  0.00  0.00    +0.000 A 
ATOM     14  C   UNL     1      -5.911  12.632  21.415  0.00  0.00    +0.000 A 
ATOM     15  C   UNL     1      -4.881  12.875  22.340  0.00  0.00    +0.000 A 
BRANCH  10  17
ATOM     16  C   UNL     1      -3.373  14.304  24.214  0.00  0.00    +0.000 C 
ATOM     17  O   UNL     1      -4.209  13.238  24.652  0.00  0.00    +0.000 OA
ENDBRANCH  10  17
ENDBRANCH   4  14
ENDBRANCH   3   6
ENDBRANCH   1   3
BRANCH   1  18
ATOM     18  C   UNL     1      -1.908  11.874  17.506  0.00  0.00    +0.000 C 
BRANCH  18  19
ATOM     19  C   UNL     1      -0.688  11.535  18.328  0.00  0.00    +0.000 C 
ATOM     20  O   UNL     1      -0.197  12.331  19.123  0.00  0.00    +0.000 OA
ATOM     21  N   UNL     1      -0.129  10.299  18.066  0.00  0.00    +0.000 N 
ATOM     22  H   UNL     1      -0.594   9.663  17.425  0.00  0.00    +0.000 HD
BRANCH  21  23
ATOM     23  C   UNL     1       1.069   9.839  18.763  0.00  0.00    +0.000 C 
ATOM     24  C   UNL     1       0.681   9.328  20.151  0.00  0.00    +0.000 C 
BRANCH  23  25
ATOM     25  C   UNL     1       1.837   8.777  17.944  0.00  0.00    +0.000 C 
BRANCH  25  26
ATOM     26  C   UNL     1       2.309   7.611  18.837  0.00  0.00    +0.000 C 
BRANCH  26  27
ATOM     27  C   UNL     1       2.945   6.429  18.135  0.00  0.00    +0.000 A 
ATOM     28  C   UNL     1       4.161   6.585  17.445  0.00  0.00    +0.000 A 
ATOM     29  C   UNL     1       4.745   5.519  16.756  0.00  0.00    +0.000 A 
ATOM     30  C   UNL     1       4.145   4.262  16.789  0.00  0.00    +0.000 A 
ATOM     31  C   UNL     1       2.965   4.078  17.510  0.00  0.00    +0.000 A 
ATOM     32  C   UNL     1       2.369   5.154  18.179  0.00  0.00    +0.000 A 
ENDBRANCH  26  27
ENDBRANCH  25  26
ENDBRANCH  23  25
ENDBRANCH  21  23
ENDBRANCH  18  19
ENDBRANCH   1  18
TORSDOF 10
ENDMDL
MODEL 3
REMARK VINA RESULT:      -7.6      2.799      5.412
REMARK  Name = 
REMARK  13 active torsions:
REMARK  status: ('A' for Active; 'I' for Inactive)
REMARK    1  A    between atoms: C_1  and  O_2
REMARK    2  A    between atoms: O_2  and  C_3
REMARK    3  A    between atoms: C_7  and  C_8
REMARK    4  A    between atoms: C_10  and  C_11
REMARK    5  A    between atoms: C_11  and  S_12
REMARK    6  A    between atoms: S_12  and  C_14
REMARK    7  A    between atoms: C_14  and  C_15
REMARK    8  A    between atoms: N_17  and  C_18
REMARK    9  A    between atoms: C_18  and  C_19
REMARK   10  A    between atoms: C_18  and  C_20
REMARK   11  A    between atoms: C_20  and  C_21
REMARK   12  A    between atoms: C_21  and  C_22
REMARK   13  A    between atoms: C_28  and  C_29
REMARK                            x       y       z     vdW  Elec       q    Type
REMARK                         _______ _______ _______ _____ _____    ______ ____
ROOT
ATOM      1  S   UNL     1       1.567   8.029  20.784  0.00  0.00    +0.000 S 
ATOM      2  O   UNL     1       1.521   8.511  19.289  0.00  0.00    +0.000 OA
ENDROOT
BRANCH   1   3
ATOM      3  C   UNL     1       1.235   6.242  20.856  0.00  0.00    +0.000 C 
BRANCH   3   6
ATOM      4  C   UNL     1       3.699   4.956  18.612  0.00  0.00    +0.000 A 
ATOM      5  N   UNL     1       3.294   5.896  19.442  0.00  0.00    +0.000 NA
ATOM      6  C   UNL     1       2.104   5.408  19.973  0.00  0.00    +0.000 A 
ATOM      7  C   UNL     1       1.916   4.118  19.523  0.00  0.00    +0.000 A 
ATOM      8  C   UNL     1       0.929   3.054  19.753  0.00  0.00    +0.000 C 
ATOM      9  O   UNL     1       2.922   3.828  18.656  0.00  0.00    +0.000 OA
BRANCH   4  14
ATOM     10  C   UNL     1       6.736   5.948  16.560  0.00  0.00    +0.000 A 
ATOM     11  C   UNL     1       6.793   4.907  15.639  0.00  0.00    +0.000 A 
ATOM     12  C   UNL     1       5.861   3.878  15.703  0.00  0.00    +0.000 A 
ATOM     13  C   UNL     1       4.878   3.899  16.683  0.00  0.00    +0.000 A 
ATOM     14  C   UNL     1       4.785   4.946  17.622  0.00  0.00    +0.000 A 
ATOM     15  C   UNL     1       5.742   5.972  17.547  0.00  0.00    +0.000 A 
BRANCH  10  17
ATOM     16  C   UNL     1       7.707   7.778  17.595  0.00  0.00    +0.000 C 
ATOM     17  O   UNL     1       7.751   6.867  16.501  0.00  0.00    +0.000 OA
ENDBRANCH  10  17
ENDBRANCH   4  14
ENDBRANCH   3   6
ENDBRANCH   1   3
BRANCH   1  18
ATOM     18  C   UNL     1       0.064   8.594  21.622  0.00  0.00    +0.000 C 
BRANCH  18  19
ATOM     19  C   UNL     1       0.181  10.066  21.936  0.00  0.00    +0.000 C 
ATOM     20  O   UNL     1       0.062  10.498  23.079  0.00  0.00    +0.000 OA
ATOM     21  N   UNL     1       0.357  10.888  20.840  0.00  0.00    +0.000 N 
ATOM     22  H   UNL     1       0.485  10.477  19.919  0.00  0.00    +0.000 HD
BRANCH  21  23
ATOM     23  C   UNL     1       0.462  12.338  20.981  0.00  0.00    +0.000 C 
ATOM     24  C   UNL     1       1.822  12.798  20.456  0.00  0.00    +0.000 C 
BRANCH  23  25
ATOM     25  C   UNL     1      -0.709  13.068  20.286  0.00  0.00    +0.000 C 
BRANCH  25  26
ATOM     26  C   UNL     1      -1.208  14.260  21.130  0.00  0.00    +0.000 C 
BRANCH  26  27
ATOM     27  C   UNL     1      -2.072  13.932  22.329  0.00  0.00    +0.000 A 
ATOM     28  C   UNL     1      -2.835  12.749  22.350  0.00  0.00    +0.000 A 
ATOM     29  C   UNL     1      -3.671  12.446  23.428  0.00  0.00    +0.000 A 
ATOM     30  C   UNL     1      -3.719  13.299  24.528  0.00  0.00    +0.000 A 
ATOM     31  C   UNL     1      -2.932  14.451  24.544  0.00  0.00    +0.000 A 
ATOM     32  C   UNL     1      -2.114  14.765  23.453  0.00  0.00    +0.000 A 
ENDBRANCH  26  27
ENDBRANCH  25  26
ENDBRANCH  23  25
ENDBRANCH  21  23
ENDBRANCH  18  19
ENDBRANCH   1  18
TORSDOF 10
ENDMDL
MODEL 4
REMARK VINA RESULT:      -7.5      3.898      6.820
REMARK  Name = 
REMARK  13 active torsions:
REMARK  status: ('A' for Active; 'I' for Inactive)
REMARK    1  A    between atoms: C_1  and  O_2
REMARK    2  A    between atoms: O_2  and  C_3
REMARK    3  A    between atoms: C_7  and  C_8
REMARK    4  A    between atoms: C_10  and  C_11
REMARK    5  A    between atoms: C_11  and  S_12
REMARK    6  A    between atoms: S_12  and  C_14
REMARK    7  A    between atoms: C_14  and  C_15
REMARK    8  A    between atoms: N_17  and  C_18
REMARK    9  A    between atoms: C_18  and  C_19
REMARK   10  A    between atoms: C_18  and  C_20
REMARK   11  A    between atoms: C_20  and  C_21
REMARK   12  A    between atoms: C_21  and  C_22
REMARK   13  A    between atoms: C_28  and  C_29
REMARK                            x       y       z     vdW  Elec       q    Type
REMARK                         _______ _______ _______ _____ _____    ______ ____
ROOT
ATOM      1  S   UNL     1      -0.807  10.526  18.167  0.00  0.00    +0.000 S 
ATOM      2  O   UNL     1      -1.568   9.650  19.226  0.00  0.00    +0.000 OA
ENDROOT
BRANCH   1   3
ATOM      3  C   UNL     1       0.966  10.564  18.572  0.00  0.00    +0.000 C 
BRANCH   3   6
ATOM      4  C   UNL     1       2.501   7.341  18.441  0.00  0.00    +0.000 A 
ATOM      5  N   UNL     1       2.247   8.505  17.879  0.00  0.00    +0.000 NA
ATOM      6  C   UNL     1       1.571   9.228  18.857  0.00  0.00    +0.000 A 
ATOM      7  C   UNL     1       1.565   8.494  20.025  0.00  0.00    +0.000 A 
ATOM      8  C   UNL     1       1.094   8.704  21.400  0.00  0.00    +0.000 C 
ATOM      9  O   UNL     1       2.149   7.295  19.765  0.00  0.00    +0.000 OA
BRANCH   4  14
ATOM     10  C   UNL     1       2.866   3.699  17.428  0.00  0.00    +0.000 A 
ATOM     11  C   UNL     1       4.130   3.706  16.844  0.00  0.00    +0.000 A 
ATOM     12  C   UNL     1       4.845   4.894  16.763  0.00  0.00    +0.000 A 
ATOM     13  C   UNL     1       4.296   6.065  17.267  0.00  0.00    +0.000 A 
ATOM     14  C   UNL     1       3.026   6.090  17.876  0.00  0.00    +0.000 A 
ATOM     15  C   UNL     1       2.313   4.880  17.940  0.00  0.00    +0.000 A 
BRANCH  10  17
ATOM     16  C   UNL     1       1.668   2.140  18.649  0.00  0.00    +0.000 C 
ATOM     17  O   UNL     1       2.178   2.515  17.374  0.00  0.00    +0.000 OA
ENDBRANCH  10  17
ENDBRANCH   4  14
ENDBRANCH   3   6
ENDBRANCH   1   3
BRANCH   1  18
ATOM     18  C   UNL     1      -1.170  12.271  18.487  0.00  0.00    +0.000 C 
BRANCH  18  19
ATOM     19  C   UNL     1      -1.855  12.410  19.826  0.00  0.00    +0.000 C 
ATOM     20  O   UNL     1      -3.018  12.788  19.925  0.00  0.00    +0.000 OA
ATOM     21  N   UNL     1      -1.056  12.152  20.922  0.00  0.00    +0.000 N 
ATOM     22  H   UNL     1      -0.109  11.809  20.785  0.00  0.00    +0.000 HD
BRANCH  21  23
ATOM     23  C   UNL     1      -1.568  12.268  22.285  0.00  0.00    +0.000 C 
ATOM     24  C   UNL     1      -1.190  11.014  23.074  0.00  0.00    +0.000 C 
BRANCH  23  25
ATOM     25  C   UNL     1      -1.077  13.561  22.974  0.00  0.00    +0.000 C 
BRANCH  25  26
ATOM     26  C   UNL     1      -2.070  14.032  24.058  0.00  0.00    +0.000 C 
BRANCH  26  27
ATOM     27  C   UNL     1      -3.533  13.720  23.822  0.00  0.00    +0.000 A 
ATOM     28  C   UNL     1      -4.183  12.741  24.597  0.00  0.00    +0.000 A 
ATOM     29  C   UNL     1      -5.521  12.408  24.370  0.00  0.00    +0.000 A 
ATOM     30  C   UNL     1      -6.247  13.088  23.395  0.00  0.00    +0.000 A 
ATOM     31  C   UNL     1      -5.632  14.095  22.651  0.00  0.00    +0.000 A 
ATOM     32  C   UNL     1      -4.285  14.410  22.864  0.00  0.00    +0.000 A 
ENDBRANCH  26  27
ENDBRANCH  25  26
ENDBRANCH  23  25
ENDBRANCH  21  23
ENDBRANCH  18  19
ENDBRANCH   1  18
TORSDOF 10
ENDMDL
MODEL 5
REMARK VINA RESULT:      -7.5      2.081      2.779
REMARK  Name = 
REMARK  13 active torsions:
REMARK  status: ('A' for Active; 'I' for Inactive)
REMARK    1  A    between atoms: C_1  and  O_2
REMARK    2  A    between atoms: O_2  and  C_3
REMARK    3  A    between atoms: C_7  and  C_8
REMARK    4  A    between atoms: C_10  and  C_11
REMARK    5  A    between atoms: C_11  and  S_12
REMARK    6  A    between atoms: S_12  and  C_14
REMARK    7  A    between atoms: C_14  and  C_15
REMARK    8  A    between atoms: N_17  and  C_18
REMARK    9  A    between atoms: C_18  and  C_19
REMARK   10  A    between atoms: C_18  and  C_20
REMARK   11  A    between atoms: C_20  and  C_21
REMARK   12  A    between atoms: C_21  and  C_22
REMARK   13  A    between atoms: C_28  and  C_29
REMARK                            x       y       z     vdW  Elec       q    Type
REMARK                         _______ _______ _______ _____ _____    ______ ____
ROOT
ATOM      1  S   UNL     1       2.855   4.859  18.601  0.00  0.00    +0.000 S 
ATOM      2  O   UNL     1       2.670   3.312  18.400  0.00  0.00    +0.000 OA
ENDROOT
BRANCH   1   3
ATOM      3  C   UNL     1       4.574   5.209  19.081  0.00  0.00    +0.000 C 
BRANCH   3   6
ATOM      4  C   UNL     1       6.256   5.046  15.934  0.00  0.00    +0.000 A 
ATOM      5  N   UNL     1       5.135   5.098  16.625  0.00  0.00    +0.000 NA
ATOM      6  C   UNL     1       5.544   5.255  17.946  0.00  0.00    +0.000 A 
ATOM      7  C   UNL     1       6.913   5.421  17.968  0.00  0.00    +0.000 A 
ATOM      8  C   UNL     1       7.926   5.692  18.998  0.00  0.00    +0.000 C 
ATOM      9  O   UNL     1       7.370   5.285  16.696  0.00  0.00    +0.000 OA
BRANCH   4  14
ATOM     10  C   UNL     1       6.090   3.390  12.521  0.00  0.00    +0.000 A 
ATOM     11  C   UNL     1       7.094   4.072  11.839  0.00  0.00    +0.000 A 
ATOM     12  C   UNL     1       7.802   5.079  12.483  0.00  0.00    +0.000 A 
ATOM     13  C   UNL     1       7.506   5.396  13.802  0.00  0.00    +0.000 A 
ATOM     14  C   UNL     1       6.505   4.715  14.524  0.00  0.00    +0.000 A 
ATOM     15  C   UNL     1       5.793   3.706  13.853  0.00  0.00    +0.000 A 
BRANCH  10  17
ATOM     16  C   UNL     1       6.193   1.485  11.210  0.00  0.00    +0.000 C 
ATOM     17  O   UNL     1       5.365   2.487  11.789  0.00  0.00    +0.000 OA
ENDBRANCH  10  17
ENDBRANCH   4  14
ENDBRANCH   3   6
ENDBRANCH   1   3
BRANCH   1  18
ATOM     18  C   UNL     1       2.061   5.343  20.156  0.00  0.00    +0.000 C 
BRANCH  18  19
ATOM     19  C   UNL     1       1.837   6.836  20.168  0.00  0.00    +0.000 C 
ATOM     20  O   UNL     1       2.524   7.602  19.498  0.00  0.00    +0.000 OA
ATOM     21  N   UNL     1       0.858   7.275  21.038  0.00  0.00    +0.000 N 
ATOM     22  H   UNL     1       0.295   6.598  21.544  0.00  0.00    +0.000 HD
BRANCH  21  23
ATOM     23  C   UNL     1       0.544   8.694  21.181  0.00  0.00    +0.000 C 
ATOM     24  C   UNL     1       1.435   9.302  22.264  0.00  0.00    +0.000 C 
BRANCH  23  25
ATOM     25  C   UNL     1       0.663   9.447  19.836  0.00  0.00    +0.000 C 
BRANCH  25  26
ATOM     26  C   UNL     1      -0.246  10.693  19.807  0.00  0.00    +0.000 C 
BRANCH  26  27
ATOM     27  C   UNL     1      -1.347  10.708  18.768  0.00  0.00    +0.000 A 
ATOM     28  C   UNL     1      -2.483  11.519  18.950  0.00  0.00    +0.000 A 
ATOM     29  C   UNL     1      -3.530  11.518  18.025  0.00  0.00    +0.000 A 
ATOM     30  C   UNL     1      -3.434  10.742  16.872  0.00  0.00    +0.000 A 
ATOM     31  C   UNL     1      -2.293   9.970  16.651  0.00  0.00    +0.000 A 
ATOM     32  C   UNL     1      -1.256   9.954  17.592  0.00  0.00    +0.000 A 
ENDBRANCH  26  27
ENDBRANCH  25  26
ENDBRANCH  23  25
ENDBRANCH  21  23
ENDBRANCH  18  19
ENDBRANCH   1  18
TORSDOF 10
ENDMDL
MODEL 6
REMARK VINA RESULT:      -7.5      2.123      9.729
REMARK  Name = 
REMARK  13 active torsions:
REMARK  status: ('A' for Active; 'I' for Inactive)
REMARK    1  A    between atoms: C_1  and  O_2
REMARK    2  A    between atoms: O_2  and  C_3
REMARK    3  A    between atoms: C_7  and  C_8
REMARK    4  A    between atoms: C_10  and  C_11
REMARK    5  A    between atoms: C_11  and  S_12
REMARK    6  A    between atoms: S_12  and  C_14
REMARK    7  A    between atoms: C_14  and  C_15
REMARK    8  A    between atoms: N_17  and  C_18
REMARK    9  A    between atoms: C_18  and  C_19
REMARK   10  A    between atoms: C_18  and  C_20
REMARK   11  A    between atoms: C_20  and  C_21
REMARK   12  A    between atoms: C_21  and  C_22
REMARK   13  A    between atoms: C_28  and  C_29
REMARK                            x       y       z     vdW  Elec       q    Type
REMARK                         _______ _______ _______ _____ _____    ______ ____
ROOT
ATOM      1  S   UNL     1       2.644   3.681  20.945  0.00  0.00    +0.000 S 
ATOM      2  O   UNL     1       1.518   2.672  21.373  0.00  0.00    +0.000 OA
ENDROOT
BRANCH   1   3
ATOM      3  C   UNL     1       2.087   4.632  19.496  0.00  0.00    +0.000 C 
BRANCH   3   6
ATOM      4  C   UNL     1       1.244   7.933  20.568  0.00  0.00    +0.000 A 
ATOM      5  N   UNL     1       1.239   6.632  20.776  0.00  0.00    +0.000 NA
ATOM      6  C   UNL     1       1.975   6.104  19.720  0.00  0.00    +0.000 A 
ATOM      7  C   UNL     1       2.504   7.145  18.986  0.00  0.00    +0.000 A 
ATOM      8  C   UNL     1       3.398   7.271  17.827  0.00  0.00    +0.000 C 
ATOM      9  O   UNL     1       2.039   8.307  19.516  0.00  0.00    +0.000 OA
BRANCH   4  14
ATOM     10  C   UNL     1      -0.610  11.188  21.191  0.00  0.00    +0.000 A 
ATOM     11  C   UNL     1      -0.852  11.105  22.559  0.00  0.00    +0.000 A 
ATOM     12  C   UNL     1      -0.434   9.984  23.265  0.00  0.00    +0.000 A 
ATOM     13  C   UNL     1       0.226   8.958  22.603  0.00  0.00    +0.000 A 
ATOM     14  C   UNL     1       0.499   9.018  21.222  0.00  0.00    +0.000 A 
ATOM     15  C   UNL     1       0.060  10.155  20.522  0.00  0.00    +0.000 A 
BRANCH  10  17
ATOM     16  C   UNL     1      -0.927  12.212  19.139  0.00  0.00    +0.000 C 
ATOM     17  O   UNL     1      -1.146  12.271  20.544  0.00  0.00    +0.000 OA
ENDBRANCH  10  17
ENDBRANCH   4  14
ENDBRANCH   3   6
ENDBRANCH   1   3
BRANCH   1  18
ATOM     18  C   UNL     1       3.976   2.758  20.137  0.00  0.00    +0.000 C 
BRANCH  18  19
ATOM     19  C   UNL     1       4.412   3.485  18.887  0.00  0.00    +0.000 C 
ATOM     20  O   UNL     1       3.855   3.311  17.807  0.00  0.00    +0.000 OA
ATOM     21  N   UNL     1       5.519   4.297  19.037  0.00  0.00    +0.000 N 
ATOM     22  H   UNL     1       5.922   4.433  19.960  0.00  0.00    +0.000 HD
BRANCH  21  23
ATOM     23  C   UNL     1       6.075   5.046  17.913  0.00  0.00    +0.000 C 
ATOM     24  C   UNL     1       7.070   6.081  18.439  0.00  0.00    +0.000 C 
BRANCH  23  25
ATOM     25  C   UNL     1       6.708   4.111  16.857  0.00  0.00    +0.000 C 
BRANCH  25  26
ATOM     26  C   UNL     1       5.779   3.928  15.639  0.00  0.00    +0.000 C 
BRANCH  26  27
ATOM     27  C   UNL     1       6.387   4.178  14.275  0.00  0.00    +0.000 A 
ATOM     28  C   UNL     1       7.400   5.143  14.117  0.00  0.00    +0.000 A 
ATOM     29  C   UNL     1       7.946   5.420  12.861  0.00  0.00    +0.000 A 
ATOM     30  C   UNL     1       7.523   4.698  11.748  0.00  0.00    +0.000 A 
ATOM     31  C   UNL     1       6.555   3.704  11.895  0.00  0.00    +0.000 A 
ATOM     32  C   UNL     1       5.991   3.445  13.150  0.00  0.00    +0.000 A 
ENDBRANCH  26  27
ENDBRANCH  25  26
ENDBRANCH  23  25
ENDBRANCH  21  23
ENDBRANCH  18  19
ENDBRANCH   1  18
TORSDOF 10
ENDMDL
MODEL 7
REMARK VINA RESULT:      -7.5      2.537      3.382
REMARK  Name = 
REMARK  13 active torsions:
REMARK  status: ('A' for Active; 'I' for Inactive)
REMARK    1  A    between atoms: C_1  and  O_2
REMARK    2  A    between atoms: O_2  and  C_3
REMARK    3  A    between atoms: C_7  and  C_8
REMARK    4  A    between atoms: C_10  and  C_11
REMARK    5  A    between atoms: C_11  and  S_12
REMARK    6  A    between atoms: S_12  and  C_14
REMARK    7  A    between atoms: C_14  and  C_15
REMARK    8  A    between atoms: N_17  and  C_18
REMARK    9  A    between atoms: C_18  and  C_19
REMARK   10  A    between atoms: C_18  and  C_20
REMARK   11  A    between atoms: C_20  and  C_21
REMARK   12  A    between atoms: C_21  and  C_22
REMARK   13  A    between atoms: C_28  and  C_29
REMARK                            x       y       z     vdW  Elec       q    Type
REMARK                         _______ _______ _______ _____ _____    ______ ____
ROOT
ATOM      1  S   UNL     1       2.706   5.397  18.613  0.00  0.00    +0.000 S 
ATOM      2  O   UNL     1       1.857   5.398  19.935  0.00  0.00    +0.000 OA
ENDROOT
BRANCH   1   3
ATOM      3  C   UNL     1       4.416   4.902  18.990  0.00  0.00    +0.000 C 
BRANCH   3   6
ATOM      4  C   UNL     1       6.138   4.954  15.860  0.00  0.00    +0.000 A 
ATOM      5  N   UNL     1       5.014   4.850  16.540  0.00  0.00    +0.000 NA
ATOM      6  C   UNL     1       5.381   5.078  17.863  0.00  0.00    +0.000 A 
ATOM      7  C   UNL     1       6.711   5.442  17.896  0.00  0.00    +0.000 A 
ATOM      8  C   UNL     1       7.662   5.868  18.932  0.00  0.00    +0.000 C 
ATOM      9  O   UNL     1       7.196   5.361  16.630  0.00  0.00    +0.000 OA
BRANCH   4  14
ATOM     10  C   UNL     1       6.100   3.381  12.405  0.00  0.00    +0.000 A 
ATOM     11  C   UNL     1       7.153   4.052  11.790  0.00  0.00    +0.000 A 
ATOM     12  C   UNL     1       7.853   5.025  12.491  0.00  0.00    +0.000 A 
ATOM     13  C   UNL     1       7.500   5.320  13.801  0.00  0.00    +0.000 A 
ATOM     14  C   UNL     1       6.448   4.649  14.457  0.00  0.00    +0.000 A 
ATOM     15  C   UNL     1       5.745   3.674  13.728  0.00  0.00    +0.000 A 
BRANCH  10  17
ATOM     16  C   UNL     1       6.135   1.339  11.314  0.00  0.00    +0.000 C 
ATOM     17  O   UNL     1       5.390   2.513  11.617  0.00  0.00    +0.000 OA
ENDBRANCH  10  17
ENDBRANCH   4  14
ENDBRANCH   3   6
ENDBRANCH   1   3
BRANCH   1  18
ATOM     18  C   UNL     1       3.045   7.112  18.138  0.00  0.00    +0.000 C 
BRANCH  18  19
ATOM     19  C   UNL     1       2.167   8.043  18.940  0.00  0.00    +0.000 C 
ATOM     20  O   UNL     1       2.046   7.935  20.157  0.00  0.00    +0.000 OA
ATOM     21  N   UNL     1       1.461   8.969  18.197  0.00  0.00    +0.000 N 
ATOM     22  H   UNL     1       1.623   9.040  17.196  0.00  0.00    +0.000 HD
BRANCH  21  23
ATOM     23  C   UNL     1       0.551   9.922  18.828  0.00  0.00    +0.000 C 
ATOM     24  C   UNL     1       1.263  11.264  18.995  0.00  0.00    +0.000 C 
BRANCH  23  25
ATOM     25  C   UNL     1      -0.773  10.057  18.042  0.00  0.00    +0.000 C 
BRANCH  25  26
ATOM     26  C   UNL     1      -1.370  11.473  18.186  0.00  0.00    +0.000 C 
BRANCH  26  27
ATOM     27  C   UNL     1      -2.876  11.590  18.087  0.00  0.00    +0.000 A 
ATOM     28  C   UNL     1      -3.629  12.016  19.197  0.00  0.00    +0.000 A 
ATOM     29  C   UNL     1      -5.023  12.092  19.142  0.00  0.00    +0.000 A 
ATOM     30  C   UNL     1      -5.685  11.791  17.954  0.00  0.00    +0.000 A 
ATOM     31  C   UNL     1      -4.951  11.414  16.829  0.00  0.00    +0.000 A 
ATOM     32  C   UNL     1      -3.556  11.315  16.895  0.00  0.00    +0.000 A 
ENDBRANCH  26  27
ENDBRANCH  25  26
ENDBRANCH  23  25
ENDBRANCH  21  23
ENDBRANCH  18  19
ENDBRANCH   1  18
TORSDOF 10
ENDMDL
MODEL 8
REMARK VINA RESULT:      -7.4      3.854     10.367
REMARK  Name = 
REMARK  13 active torsions:
REMARK  status: ('A' for Active; 'I' for Inactive)
REMARK    1  A    between atoms: C_1  and  O_2
REMARK    2  A    between atoms: O_2  and  C_3
REMARK    3  A    between atoms: C_7  and  C_8
REMARK    4  A    between atoms: C_10  and  C_11
REMARK    5  A    between atoms: C_11  and  S_12
REMARK    6  A    between atoms: S_12  and  C_14
REMARK    7  A    between atoms: C_14  and  C_15
REMARK    8  A    between atoms: N_17  and  C_18
REMARK    9  A    between atoms: C_18  and  C_19
REMARK   10  A    between atoms: C_18  and  C_20
REMARK   11  A    between atoms: C_20  and  C_21
REMARK   12  A    between atoms: C_21  and  C_22
REMARK   13  A    between atoms: C_28  and  C_29
REMARK                            x       y       z     vdW  Elec       q    Type
REMARK                         _______ _______ _______ _____ _____    ______ ____
ROOT
ATOM      1  S   UNL     1       2.460   7.687  17.725  0.00  0.00    +0.000 S 
ATOM      2  O   UNL     1       3.881   7.532  17.071  0.00  0.00    +0.000 OA
ENDROOT
BRANCH   1   3
ATOM      3  C   UNL     1       2.245   9.396  18.311  0.00  0.00    +0.000 C 
BRANCH   3   6
ATOM      4  C   UNL     1      -1.207  10.315  18.310  0.00  0.00    +0.000 A 
ATOM      5  N   UNL     1      -0.162   9.813  17.684  0.00  0.00    +0.000 NA
ATOM      6  C   UNL     1       0.838   9.768  18.650  0.00  0.00    +0.000 A 
ATOM      7  C   UNL     1       0.297  10.133  19.865  0.00  0.00    +0.000 A 
ATOM      8  C   UNL     1       0.779  10.224  21.249  0.00  0.00    +0.000 C 
ATOM      9  O   UNL     1      -0.998  10.485  19.654  0.00  0.00    +0.000 OA
BRANCH   4  14
ATOM     10  C   UNL     1      -4.653  11.894  18.089  0.00  0.00    +0.000 A 
ATOM     11  C   UNL     1      -5.025  11.553  16.792  0.00  0.00    +0.000 A 
ATOM     12  C   UNL     1      -4.147  10.834  15.990  0.00  0.00    +0.000 A 
ATOM     13  C   UNL     1      -2.908  10.457  16.489  0.00  0.00    +0.000 A 
ATOM     14  C   UNL     1      -2.507  10.775  17.803  0.00  0.00    +0.000 A 
ATOM     15  C   UNL     1      -3.404  11.512  18.595  0.00  0.00    +0.000 A 
BRANCH  10  17
ATOM     16  C   UNL     1      -6.541  13.226  17.936  0.00  0.00    +0.000 C 
ATOM     17  O   UNL     1      -5.524  12.696  18.779  0.00  0.00    +0.000 OA
ENDBRANCH  10  17
ENDBRANCH   4  14
ENDBRANCH   3   6
ENDBRANCH   1   3
BRANCH   1  18
ATOM     18  C   UNL     1       2.473   6.871  19.342  0.00  0.00    +0.000 C 
BRANCH  18  19
ATOM     19  C   UNL     1       3.094   5.501  19.214  0.00  0.00    +0.000 C 
ATOM     20  O   UNL     1       3.604   4.927  20.172  0.00  0.00    +0.000 OA
ATOM     21  N   UNL     1       3.109   4.981  17.935  0.00  0.00    +0.000 N 
ATOM     22  H   UNL     1       2.643   5.481  17.183  0.00  0.00    +0.000 HD
BRANCH  21  23
ATOM     23  C   UNL     1       3.700   3.676  17.648  0.00  0.00    +0.000 C 
ATOM     24  C   UNL     1       2.690   2.825  16.878  0.00  0.00    +0.000 C 
BRANCH  23  25
ATOM     25  C   UNL     1       5.045   3.807  16.899  0.00  0.00    +0.000 C 
BRANCH  25  26
ATOM     26  C   UNL     1       4.960   4.854  15.769  0.00  0.00    +0.000 C 
BRANCH  26  27
ATOM     27  C   UNL     1       5.713   4.542  14.493  0.00  0.00    +0.000 A 
ATOM     28  C   UNL     1       6.974   5.119  14.255  0.00  0.00    +0.000 A 
ATOM     29  C   UNL     1       7.669   4.878  13.067  0.00  0.00    +0.000 A 
ATOM     30  C   UNL     1       7.135   4.011  12.117  0.00  0.00    +0.000 A 
ATOM     31  C   UNL     1       5.908   3.392  12.358  0.00  0.00    +0.000 A 
ATOM     32  C   UNL     1       5.203   3.654  13.538  0.00  0.00    +0.000 A 
ENDBRANCH  26  27
ENDBRANCH  25  26
ENDBRANCH  23  25
ENDBRANCH  21  23
ENDBRANCH  18  19
ENDBRANCH   1  18
TORSDOF 10
ENDMDL
MODEL 9
REMARK VINA RESULT:      -7.4      3.725     10.924
REMARK  Name = 
REMARK  13 active torsions:
REMARK  status: ('A' for Active; 'I' for Inactive)
REMARK    1  A    between atoms: C_1  and  O_2
REMARK    2  A    between atoms: O_2  and  C_3
REMARK    3  A    between atoms: C_7  and  C_8
REMARK    4  A    between atoms: C_10  and  C_11
REMARK    5  A    between atoms: C_11  and  S_12
REMARK    6  A    between atoms: S_12  and  C_14
REMARK    7  A    between atoms: C_14  and  C_15
REMARK    8  A    between atoms: N_17  and  C_18
REMARK    9  A    between atoms: C_18  and  C_19
REMARK   10  A    between atoms: C_18  and  C_20
REMARK   11  A    between atoms: C_20  and  C_21
REMARK   12  A    between atoms: C_21  and  C_22
REMARK   13  A    between atoms: C_28  and  C_29
REMARK                            x       y       z     vdW  Elec       q    Type
REMARK                         _______ _______ _______ _____ _____    ______ ____
ROOT
ATOM      1  S   UNL     1       1.658   8.723  18.102  0.00  0.00    +0.000 S 
ATOM      2  O   UNL     1       2.888   8.331  17.207  0.00  0.00    +0.000 OA
ENDROOT
BRANCH   1   3
ATOM      3  C   UNL     1       1.640  10.524  18.355  0.00  0.00    +0.000 C 
BRANCH   3   6
ATOM      4  C   UNL     1      -0.850  12.035  20.423  0.00  0.00    +0.000 A 
ATOM      5  N   UNL     1       0.414  11.897  20.079  0.00  0.00    +0.000 NA
ATOM      6  C   UNL     1       0.388  11.057  18.970  0.00  0.00    +0.000 A 
ATOM      7  C   UNL     1      -0.927  10.830  18.619  0.00  0.00    +0.000 A 
ATOM      8  C   UNL     1      -1.621  10.113  17.541  0.00  0.00    +0.000 C 
ATOM      9  O   UNL     1      -1.715  11.443  19.539  0.00  0.00    +0.000 OA
BRANCH   4  14
ATOM     10  C   UNL     1      -1.365  14.030  23.612  0.00  0.00    +0.000 A 
ATOM     11  C   UNL     1      -2.688  13.721  23.915  0.00  0.00    +0.000 A 
ATOM     12  C   UNL     1      -3.411  12.887  23.071  0.00  0.00    +0.000 A 
ATOM     13  C   UNL     1      -2.808  12.365  21.935  0.00  0.00    +0.000 A 
ATOM     14  C   UNL     1      -1.467  12.647  21.608  0.00  0.00    +0.000 A 
ATOM     15  C   UNL     1      -0.754  13.500  22.468  0.00  0.00    +0.000 A 
BRANCH  10  17
ATOM     16  C   UNL     1      -0.325  16.096  23.713  0.00  0.00    +0.000 C 
ATOM     17  O   UNL     1      -0.752  14.942  24.430  0.00  0.00    +0.000 OA
ENDBRANCH  10  17
ENDBRANCH   4  14
ENDBRANCH   3   6
ENDBRANCH   1   3
BRANCH   1  18
ATOM     18  C   UNL     1       2.006   8.237  19.812  0.00  0.00    +0.000 C 
BRANCH  18  19
ATOM     19  C   UNL     1       1.941   6.733  19.936  0.00  0.00    +0.000 C 
ATOM     20  O   UNL     1       1.430   6.182  20.907  0.00  0.00    +0.000 OA
ATOM     21  N   UNL     1       2.558   6.034  18.917  0.00  0.00    +0.000 N 
ATOM     22  H   UNL     1       2.935   6.536  18.118  0.00  0.00    +0.000 HD
BRANCH  21  23
ATOM     23  C   UNL     1       2.600   4.574  18.909  0.00  0.00    +0.000 C 
ATOM     24  C   UNL     1       1.922   4.057  17.640  0.00  0.00    +0.000 C 
BRANCH  23  25
ATOM     25  C   UNL     1       4.043   4.041  19.059  0.00  0.00    +0.000 C 
BRANCH  25  26
ATOM     26  C   UNL     1       4.878   4.314  17.791  0.00  0.00    +0.000 C 
BRANCH  26  27
ATOM     27  C   UNL     1       5.949   5.378  17.897  0.00  0.00    +0.000 A 
ATOM     28  C   UNL     1       7.014   5.224  18.804  0.00  0.00    +0.000 A 
ATOM     29  C   UNL     1       7.992   6.212  18.948  0.00  0.00    +0.000 A 
ATOM     30  C   UNL     1       7.947   7.351  18.148  0.00  0.00    +0.000 A 
ATOM     31  C   UNL     1       6.926   7.497  17.209  0.00  0.00    +0.000 A 
ATOM     32  C   UNL     1       5.934   6.517  17.083  0.00  0.00    +0.000 A 
ENDBRANCH  26  27
ENDBRANCH  25  26
ENDBRANCH  23  25
ENDBRANCH  21  23
ENDBRANCH  18  19
ENDBRANCH   1  18
TORSDOF 10
ENDMDL
