MODEL 1
REMARK VINA RESULT:      -7.0      0.000      0.000
REMARK  Name = 
REMARK  4 active torsions:
REMARK  status: ('A' for Active; 'I' for Inactive)
REMARK    1  A    between atoms: C_2  and  O_3
REMARK    2  A    between atoms: C_2  and  C_4
REMARK    3  A    between atoms: C_7  and  C_8
REMARK    4  A    between atoms: N_9  and  C_10
REMARK                            x       y       z     vdW  Elec       q    Type
REMARK                         _______ _______ _______ _____ _____    ______ ____
ROOT
ATOM      1  C   UNL     1       2.673   3.332  19.894  0.00  0.00    +0.000 A 
ATOM      2  C   UNL     1       1.987   3.805  18.768  0.00  0.00    +0.000 A 
ATOM      3  C   UNL     1       2.686   4.089  17.591  0.00  0.00    +0.000 A 
ATOM      4  C   UNL     1       4.070   3.892  17.539  0.00  0.00    +0.000 A 
ATOM      5  C   UNL     1       4.754   3.390  18.650  0.00  0.00    +0.000 A 
ATOM      6  C   UNL     1       4.054   3.099  19.825  0.00  0.00    +0.000 A 
ENDROOT
BRANCH   1   8
ATOM      7  O   UNL     1       2.414   2.883  22.217  0.00  0.00    +0.000 OA
ATOM      8  C   UNL     1       1.894   3.054  21.127  0.00  0.00    +0.000 C 
BRANCH   8   9
ATOM      9  O   UNL     1       0.564   2.962  20.916  0.00  0.00    +0.000 OA
ATOM     10  H   UNL     1       0.212   2.054  20.894  0.00  0.00    +0.000 HD
ENDBRANCH   8   9
ENDBRANCH   1   8
BRANCH   4  11
ATOM     11  C   UNL     1       4.836   4.194  16.310  0.00  0.00    +0.000 C 
ATOM     12  N   UNL     1       6.124   4.131  16.297  0.00  0.00    +0.000 NA
BRANCH  12  13
ATOM     13  C   UNL     1       6.673   4.467  15.063  0.00  0.00    +0.000 A 
ATOM     14  N   UNL     1       6.358   3.932  13.842  0.00  0.00    +0.000 NA
ATOM     15  C   UNL     1       7.121   4.609  13.017  0.00  0.00    +0.000 A 
ATOM     16  N   UNL     1       7.860   5.506  13.719  0.00  0.00    +0.000 N 
ATOM     17  N   UNL     1       7.596   5.431  15.029  0.00  0.00    +0.000 NA
ATOM     18  H   UNL     1       8.539   6.181  13.387  0.00  0.00    +0.000 HD
ENDBRANCH  12  13
ENDBRANCH   4  11
TORSDOF 4
ENDMDL
MODEL 2
REMARK VINA RESULT:      -6.7      0.556      1.314
REMARK  Name = 
REMARK  4 active torsions:
REMARK  status: ('A' for Active; 'I' for Inactive)
REMARK    1  A    between atoms: C_2  and  O_3
REMARK    2  A    between atoms: C_2  and  C_4
REMARK    3  A    between atoms: C_7  and  C_8
REMARK    4  A    between atoms: N_9  and  C_10
REMARK                            x       y       z     vdW  Elec       q    Type
REMARK                         _______ _______ _______ _____ _____    ______ ____
ROOT
ATOM      1  C   UNL     1       2.548   3.569  19.825  0.00  0.00    +0.000 A 
ATOM      2  C   UNL     1       3.874   3.134  19.939  0.00  0.00    +0.000 A 
ATOM      3  C   UNL     1       4.805   3.458  18.946  0.00  0.00    +0.000 A 
ATOM      4  C   UNL     1       4.409   4.224  17.846  0.00  0.00    +0.000 A 
ATOM      5  C   UNL     1       3.094   4.688  17.744  0.00  0.00    +0.000 A 
ATOM      6  C   UNL     1       2.165   4.371  18.740  0.00  0.00    +0.000 A 
ENDROOT
BRANCH   1   8
ATOM      7  O   UNL     1       1.927   3.002  22.052  0.00  0.00    +0.000 OA
ATOM      8  C   UNL     1       1.590   3.193  20.895  0.00  0.00    +0.000 C 
BRANCH   8   9
ATOM      9  O   UNL     1       0.324   3.038  20.456  0.00  0.00    +0.000 OA
ATOM     10  H   UNL     1      -0.362   3.425  21.029  0.00  0.00    +0.000 HD
ENDBRANCH   8   9
ENDBRANCH   1   8
BRANCH   4  11
ATOM     11  C   UNL     1       5.370   4.573  16.777  0.00  0.00    +0.000 C 
ATOM     12  N   UNL     1       5.311   4.007  15.619  0.00  0.00    +0.000 NA
BRANCH  12  13
ATOM     13  C   UNL     1       6.305   4.445  14.748  0.00  0.00    +0.000 A 
ATOM     14  N   UNL     1       6.468   4.097  13.433  0.00  0.00    +0.000 NA
ATOM     15  C   UNL     1       7.513   4.801  13.068  0.00  0.00    +0.000 A 
ATOM     16  N   UNL     1       7.955   5.532  14.124  0.00  0.00    +0.000 N 
ATOM     17  N   UNL     1       7.204   5.318  15.210  0.00  0.00    +0.000 NA
ATOM     18  H   UNL     1       8.733   6.180  14.178  0.00  0.00    +0.000 HD
ENDBRANCH  12  13
ENDBRANCH   4  11
TORSDOF 4
ENDMDL
MODEL 3
REMARK VINA RESULT:      -6.7      0.192      1.460
REMARK  Name = 
REMARK  4 active torsions:
REMARK  status: ('A' for Active; 'I' for Inactive)
REMARK    1  A    between atoms: C_2  and  O_3
REMARK    2  A    between atoms: C_2  and  C_4
REMARK    3  A    between atoms: C_7  and  C_8
REMARK    4  A    between atoms: N_9  and  C_10
REMARK                            x       y       z     vdW  Elec       q    Type
REMARK                         _______ _______ _______ _____ _____    ______ ____
ROOT
ATOM      1  C   UNL     1       2.684   3.205  19.755  0.00  0.00    +0.000 A 
ATOM      2  C   UNL     1       4.081   3.108  19.778  0.00  0.00    +0.000 A 
ATOM      3  C   UNL     1       4.823   3.410  18.632  0.00  0.00    +0.000 A 
ATOM      4  C   UNL     1       4.166   3.817  17.466  0.00  0.00    +0.000 A 
ATOM      5  C   UNL     1       2.774   3.946  17.448  0.00  0.00    +0.000 A 
ATOM      6  C   UNL     1       2.032   3.650  18.596  0.00  0.00    +0.000 A 
ENDROOT
BRANCH   1   8
ATOM      7  O   UNL     1       0.718   2.888  21.058  0.00  0.00    +0.000 OA
ATOM      8  C   UNL     1       1.935   2.863  20.991  0.00  0.00    +0.000 C 
BRANCH   8   9
ATOM      9  O   UNL     1       2.730   2.570  22.041  0.00  0.00    +0.000 OA
ATOM     10  H   UNL     1       3.046   3.340  22.547  0.00  0.00    +0.000 HD
ENDBRANCH   8   9
ENDBRANCH   1   8
BRANCH   4  11
ATOM     11  C   UNL     1       4.924   4.133  16.236  0.00  0.00    +0.000 C 
ATOM     12  N   UNL     1       6.213   4.188  16.244  0.00  0.00    +0.000 NA
BRANCH  12  13
ATOM     13  C   UNL     1       6.752   4.518  15.004  0.00  0.00    +0.000 A 
ATOM     14  N   UNL     1       6.435   3.968  13.789  0.00  0.00    +0.000 NA
ATOM     15  C   UNL     1       7.187   4.645  12.954  0.00  0.00    +0.000 A 
ATOM     16  N   UNL     1       7.922   5.555  13.644  0.00  0.00    +0.000 N 
ATOM     17  N   UNL     1       7.666   5.490  14.956  0.00  0.00    +0.000 NA
ATOM     18  H   UNL     1       8.592   6.234  13.302  0.00  0.00    +0.000 HD
ENDBRANCH  12  13
ENDBRANCH   4  11
TORSDOF 4
ENDMDL
MODEL 4
REMARK VINA RESULT:      -6.5      0.565      1.571
REMARK  Name = 
REMARK  4 active torsions:
REMARK  status: ('A' for Active; 'I' for Inactive)
REMARK    1  A    between atoms: C_2  and  O_3
REMARK    2  A    between atoms: C_2  and  C_4
REMARK    3  A    between atoms: C_7  and  C_8
REMARK    4  A    between atoms: N_9  and  C_10
REMARK                            x       y       z     vdW  Elec       q    Type
REMARK                         _______ _______ _______ _____ _____    ______ ____
ROOT
ATOM      1  C   UNL     1       2.636   3.631  19.911  0.00  0.00    +0.000 A 
ATOM      2  C   UNL     1       3.927   3.108  19.767  0.00  0.00    +0.000 A 
ATOM      3  C   UNL     1       4.679   3.404  18.626  0.00  0.00    +0.000 A 
ATOM      4  C   UNL     1       4.142   4.231  17.635  0.00  0.00    +0.000 A 
ATOM      5  C   UNL     1       2.865   4.782  17.789  0.00  0.00    +0.000 A 
ATOM      6  C   UNL     1       2.116   4.491  18.933  0.00  0.00    +0.000 A 
ENDROOT
BRANCH   1   8
ATOM      7  O   UNL     1       2.371   3.227  22.241  0.00  0.00    +0.000 OA
ATOM      8  C   UNL     1       1.867   3.281  21.132  0.00  0.00    +0.000 C 
BRANCH   8   9
ATOM      9  O   UNL     1       0.573   2.985  20.890  0.00  0.00    +0.000 OA
ATOM     10  H   UNL     1       0.409   2.505  20.058  0.00  0.00    +0.000 HD
ENDBRANCH   8   9
ENDBRANCH   1   8
BRANCH   4  11
ATOM     11  C   UNL     1       4.911   4.554  16.413  0.00  0.00    +0.000 C 
ATOM     12  N   UNL     1       5.772   3.723  15.930  0.00  0.00    +0.000 NA
BRANCH  12  13
ATOM     13  C   UNL     1       6.413   4.204  14.792  0.00  0.00    +0.000 A 
ATOM     14  N   UNL     1       7.365   5.187  14.730  0.00  0.00    +0.000 NA
ATOM     15  C   UNL     1       7.660   5.232  13.452  0.00  0.00    +0.000 A 
ATOM     16  N   UNL     1       6.911   4.317  12.784  0.00  0.00    +0.000 N 
ATOM     17  N   UNL     1       6.103   3.651  13.617  0.00  0.00    +0.000 NA
ATOM     18  H   UNL     1       6.900   4.093  11.796  0.00  0.00    +0.000 HD
ENDBRANCH  12  13
ENDBRANCH   4  11
TORSDOF 4
ENDMDL
MODEL 5
REMARK VINA RESULT:      -6.4      0.590      1.031
REMARK  Name = 
REMARK  4 active torsions:
REMARK  status: ('A' for Active; 'I' for Inactive)
REMARK    1  A    between atoms: C_2  and  O_3
REMARK    2  A    between atoms: C_2  and  C_4
REMARK    3  A    between atoms: C_7  and  C_8
REMARK    4  A    between atoms: N_9  and  C_10
REMARK                            x       y       z     vdW  Elec       q    Type
REMARK                         _______ _______ _______ _____ _____    ______ ____
ROOT
ATOM      1  C   UNL     1       2.813   3.529  19.836  0.00  0.00    +0.000 A 
ATOM      2  C   UNL     1       2.155   4.090  18.733  0.00  0.00    +0.000 A 
ATOM      3  C   UNL     1       2.878   4.426  17.585  0.00  0.00    +0.000 A 
ATOM      4  C   UNL     1       4.256   4.195  17.537  0.00  0.00    +0.000 A 
ATOM      5  C   UNL     1       4.911   3.606  18.624  0.00  0.00    +0.000 A 
ATOM      6  C   UNL     1       4.188   3.263  19.770  0.00  0.00    +0.000 A 
ENDROOT
BRANCH   1   8
ATOM      7  O   UNL     1       2.510   2.940  22.122  0.00  0.00    +0.000 OA
ATOM      8  C   UNL     1       2.009   3.197  21.040  0.00  0.00    +0.000 C 
BRANCH   8   9
ATOM      9  O   UNL     1       0.681   3.162  20.810  0.00  0.00    +0.000 OA
ATOM     10  H   UNL     1       0.174   3.897  21.201  0.00  0.00    +0.000 HD
ENDBRANCH   8   9
ENDBRANCH   1   8
BRANCH   4  11
ATOM     11  C   UNL     1       5.047   4.551  16.339  0.00  0.00    +0.000 C 
ATOM     12  N   UNL     1       5.718   3.657  15.695  0.00  0.00    +0.000 NA
BRANCH  12  13
ATOM     13  C   UNL     1       6.416   4.178  14.609  0.00  0.00    +0.000 A 
ATOM     14  N   UNL     1       7.313   5.213  14.620  0.00  0.00    +0.000 NA
ATOM     15  C   UNL     1       7.702   5.279  13.368  0.00  0.00    +0.000 A 
ATOM     16  N   UNL     1       7.060   4.327  12.645  0.00  0.00    +0.000 N 
ATOM     17  N   UNL     1       6.229   3.613  13.414  0.00  0.00    +0.000 NA
ATOM     18  H   UNL     1       7.136   4.107  11.659  0.00  0.00    +0.000 HD
ENDBRANCH  12  13
ENDBRANCH   4  11
TORSDOF 4
ENDMDL
MODEL 6
REMARK VINA RESULT:      -6.4      1.007      1.511
REMARK  Name = 
REMARK  4 active torsions:
REMARK  status: ('A' for Active; 'I' for Inactive)
REMARK    1  A    between atoms: C_2  and  O_3
REMARK    2  A    between atoms: C_2  and  C_4
REMARK    3  A    between atoms: C_7  and  C_8
REMARK    4  A    between atoms: N_9  and  C_10
REMARK                            x       y       z     vdW  Elec       q    Type
REMARK                         _______ _______ _______ _____ _____    ______ ____
ROOT
ATOM      1  C   UNL     1       2.570   3.975  19.242  0.00  0.00    +0.000 A 
ATOM      2  C   UNL     1       3.238   2.927  18.597  0.00  0.00    +0.000 A 
ATOM      3  C   UNL     1       4.074   3.195  17.509  0.00  0.00    +0.000 A 
ATOM      4  C   UNL     1       4.247   4.511  17.072  0.00  0.00    +0.000 A 
ATOM      5  C   UNL     1       3.607   5.565  17.733  0.00  0.00    +0.000 A 
ATOM      6  C   UNL     1       2.777   5.298  18.826  0.00  0.00    +0.000 A 
ENDROOT
BRANCH   1   8
ATOM      7  O   UNL     1       0.594   3.111  20.250  0.00  0.00    +0.000 OA
ATOM      8  C   UNL     1       1.682   3.646  20.386  0.00  0.00    +0.000 C 
BRANCH   8   9
ATOM      9  O   UNL     1       2.173   4.036  21.580  0.00  0.00    +0.000 OA
ATOM     10  H   UNL     1       3.001   3.599  21.849  0.00  0.00    +0.000 HD
ENDBRANCH   8   9
ENDBRANCH   1   8
BRANCH   4  11
ATOM     11  C   UNL     1       5.118   4.822  15.918  0.00  0.00    +0.000 C 
ATOM     12  N   UNL     1       5.969   3.960  15.475  0.00  0.00    +0.000 NA
BRANCH  12  13
ATOM     13  C   UNL     1       6.714   4.434  14.398  0.00  0.00    +0.000 A 
ATOM     14  N   UNL     1       6.631   4.031  13.091  0.00  0.00    +0.000 NA
ATOM     15  C   UNL     1       7.505   4.802  12.489  0.00  0.00    +0.000 A 
ATOM     16  N   UNL     1       8.086   5.624  13.400  0.00  0.00    +0.000 N 
ATOM     17  N   UNL     1       7.601   5.405  14.628  0.00  0.00    +0.000 NA
ATOM     18  H   UNL     1       8.792   6.338  13.265  0.00  0.00    +0.000 HD
ENDBRANCH  12  13
ENDBRANCH   4  11
TORSDOF 4
ENDMDL
MODEL 7
REMARK VINA RESULT:      -6.3      4.800      7.228
REMARK  Name = 
REMARK  4 active torsions:
REMARK  status: ('A' for Active; 'I' for Inactive)
REMARK    1  A    between atoms: C_2  and  O_3
REMARK    2  A    between atoms: C_2  and  C_4
REMARK    3  A    between atoms: C_7  and  C_8
REMARK    4  A    between atoms: N_9  and  C_10
REMARK                            x       y       z     vdW  Elec       q    Type
REMARK                         _______ _______ _______ _____ _____    ______ ____
ROOT
ATOM      1  C   UNL     1       6.587   4.659  15.024  0.00  0.00    +0.000 A 
ATOM      2  C   UNL     1       7.179   4.727  16.292  0.00  0.00    +0.000 A 
ATOM      3  C   UNL     1       6.419   4.458  17.434  0.00  0.00    +0.000 A 
ATOM      4  C   UNL     1       5.070   4.112  17.307  0.00  0.00    +0.000 A 
ATOM      5  C   UNL     1       4.483   4.012  16.042  0.00  0.00    +0.000 A 
ATOM      6  C   UNL     1       5.244   4.274  14.899  0.00  0.00    +0.000 A 
ENDROOT
BRANCH   1   8
ATOM      7  O   UNL     1       8.358   5.751  13.868  0.00  0.00    +0.000 OA
ATOM      8  C   UNL     1       7.427   4.963  13.839  0.00  0.00    +0.000 C 
BRANCH   8   9
ATOM      9  O   UNL     1       7.033   4.322  12.719  0.00  0.00    +0.000 OA
ATOM     10  H   UNL     1       6.303   4.748  12.235  0.00  0.00    +0.000 HD
ENDBRANCH   8   9
ENDBRANCH   1   8
BRANCH   4  11
ATOM     11  C   UNL     1       4.240   3.833  18.499  0.00  0.00    +0.000 C 
ATOM     12  N   UNL     1       3.110   3.219  18.394  0.00  0.00    +0.000 NA
BRANCH  12  13
ATOM     13  C   UNL     1       2.461   3.062  19.615  0.00  0.00    +0.000 A 
ATOM     14  N   UNL     1       3.026   2.735  20.819  0.00  0.00    +0.000 NA
ATOM     15  C   UNL     1       2.003   2.751  21.640  0.00  0.00    +0.000 A 
ATOM     16  N   UNL     1       0.877   3.069  20.951  0.00  0.00    +0.000 N 
ATOM     17  N   UNL     1       1.142   3.268  19.655  0.00  0.00    +0.000 NA
ATOM     18  H   UNL     1      -0.075   3.171  21.285  0.00  0.00    +0.000 HD
ENDBRANCH  12  13
ENDBRANCH   4  11
TORSDOF 4
ENDMDL
MODEL 8
REMARK VINA RESULT:      -6.3      4.805      7.144
REMARK  Name = 
REMARK  4 active torsions:
REMARK  status: ('A' for Active; 'I' for Inactive)
REMARK    1  A    between atoms: C_2  and  O_3
REMARK    2  A    between atoms: C_2  and  C_4
REMARK    3  A    between atoms: C_7  and  C_8
REMARK    4  A    between atoms: N_9  and  C_10
REMARK                            x       y       z     vdW  Elec       q    Type
REMARK                         _______ _______ _______ _____ _____    ______ ____
ROOT
ATOM      1  C   UNL     1       6.659   4.694  15.094  0.00  0.00    +0.000 A 
ATOM      2  C   UNL     1       5.349   4.230  14.923  0.00  0.00    +0.000 A 
ATOM      3  C   UNL     1       4.563   3.924  16.038  0.00  0.00    +0.000 A 
ATOM      4  C   UNL     1       5.086   4.089  17.324  0.00  0.00    +0.000 A 
ATOM      5  C   UNL     1       6.383   4.582  17.501  0.00  0.00    +0.000 A 
ATOM      6  C   UNL     1       7.167   4.895  16.386  0.00  0.00    +0.000 A 
ENDROOT
BRANCH   1   8
ATOM      7  O   UNL     1       8.409   5.766  13.889  0.00  0.00    +0.000 OA
ATOM      8  C   UNL     1       7.463   4.996  13.883  0.00  0.00    +0.000 C 
BRANCH   8   9
ATOM      9  O   UNL     1       7.017   4.377  12.771  0.00  0.00    +0.000 OA
ATOM     10  H   UNL     1       6.610   4.962  12.107  0.00  0.00    +0.000 HD
ENDBRANCH   8   9
ENDBRANCH   1   8
BRANCH   4  11
ATOM     11  C   UNL     1       4.282   3.763  18.521  0.00  0.00    +0.000 C 
ATOM     12  N   UNL     1       3.035   3.446  18.419  0.00  0.00    +0.000 NA
BRANCH  12  13
ATOM     13  C   UNL     1       2.435   3.192  19.649  0.00  0.00    +0.000 A 
ATOM     14  N   UNL     1       3.050   2.776  20.801  0.00  0.00    +0.000 NA
ATOM     15  C   UNL     1       2.060   2.723  21.661  0.00  0.00    +0.000 A 
ATOM     16  N   UNL     1       0.907   3.088  21.044  0.00  0.00    +0.000 N 
ATOM     17  N   UNL     1       1.119   3.387  19.758  0.00  0.00    +0.000 NA
ATOM     18  H   UNL     1      -0.030   3.159  21.423  0.00  0.00    +0.000 HD
ENDBRANCH  12  13
ENDBRANCH   4  11
TORSDOF 4
ENDMDL
MODEL 9
REMARK VINA RESULT:      -6.3      1.558      1.598
REMARK  Name = 
REMARK  4 active torsions:
REMARK  status: ('A' for Active; 'I' for Inactive)
REMARK    1  A    between atoms: C_2  and  O_3
REMARK    2  A    between atoms: C_2  and  C_4
REMARK    3  A    between atoms: C_7  and  C_8
REMARK    4  A    between atoms: N_9  and  C_10
REMARK                            x       y       z     vdW  Elec       q    Type
REMARK                         _______ _______ _______ _____ _____    ______ ____
ROOT
ATOM      1  C   UNL     1       3.049   4.913  19.554  0.00  0.00    +0.000 A 
ATOM      2  C   UNL     1       3.045   6.119  18.842  0.00  0.00    +0.000 A 
ATOM      3  C   UNL     1       3.826   6.254  17.690  0.00  0.00    +0.000 A 
ATOM      4  C   UNL     1       4.602   5.179  17.246  0.00  0.00    +0.000 A 
ATOM      5  C   UNL     1       4.584   3.963  17.936  0.00  0.00    +0.000 A 
ATOM      6  C   UNL     1       3.799   3.825  19.084  0.00  0.00    +0.000 A 
ENDROOT
BRANCH   1   8
ATOM      7  O   UNL     1       1.825   3.755  21.235  0.00  0.00    +0.000 OA
ATOM      8  C   UNL     1       2.215   4.816  20.779  0.00  0.00    +0.000 C 
BRANCH   8   9
ATOM      9  O   UNL     1       1.893   6.014  21.309  0.00  0.00    +0.000 OA
ATOM     10  H   UNL     1       2.652   6.570  21.564  0.00  0.00    +0.000 HD
ENDBRANCH   8   9
ENDBRANCH   1   8
BRANCH   4  11
ATOM     11  C   UNL     1       5.445   5.297  16.036  0.00  0.00    +0.000 C 
ATOM     12  N   UNL     1       5.863   4.249  15.412  0.00  0.00    +0.000 NA
BRANCH  12  13
ATOM     13  C   UNL     1       6.659   4.553  14.310  0.00  0.00    +0.000 A 
ATOM     14  N   UNL     1       6.582   4.005  13.057  0.00  0.00    +0.000 NA
ATOM     15  C   UNL     1       7.514   4.651  12.396  0.00  0.00    +0.000 A 
ATOM     16  N   UNL     1       8.119   5.541  13.223  0.00  0.00    +0.000 N 
ATOM     17  N   UNL     1       7.595   5.494  14.453  0.00  0.00    +0.000 NA
ATOM     18  H   UNL     1       8.868   6.195  13.027  0.00  0.00    +0.000 HD
ENDBRANCH  12  13
ENDBRANCH   4  11
TORSDOF 4
ENDMDL
