MODEL 1
REMARK VINA RESULT:      -6.6      0.000      0.000
REMARK  Name = 
REMARK  17 active torsions:
REMARK  status: ('A' for Active; 'I' for Inactive)
REMARK    1  A    between atoms: C_1  and  O_2
REMARK    2  A    between atoms: O_2  and  C_3
REMARK    3  A    between atoms: C_5  and  C_6
REMARK    4  A    between atoms: C_6  and  S_7
REMARK    5  A    between atoms: S_7  and  C_8
REMARK    6  A    between atoms: C_8  and  C_9
REMARK    7  A    between atoms: C_13  and  O_14
REMARK    8  A    between atoms: C_15  and  N_16
REMARK    9  A    between atoms: C_17  and  C_18
REMARK   10  A    between atoms: C_20  and  C_21
REMARK   11  A    between atoms: C_21  and  O_22
REMARK   12  A    between atoms: C_21  and  C_23
REMARK   13  A    between atoms: C_23  and  O_24
REMARK   14  A    between atoms: C_23  and  C_25
REMARK   15  A    between atoms: C_25  and  O_26
REMARK   16  A    between atoms: C_28  and  O_29
REMARK   17  A    between atoms: C_30  and  O_31
REMARK                            x       y       z     vdW  Elec       q    Type
REMARK                         _______ _______ _______ _____ _____    ______ ____
ROOT
ATOM      1  C   UNL     1       2.387   4.659  19.340  0.00  0.00    +0.000 C 
ATOM      2  C   UNL     1       3.288   3.820  20.270  0.00  0.00    +0.000 C 
ATOM      3  C   UNL     1       4.621   3.406  19.656  0.00  0.00    +0.000 C 
ATOM      4  C   UNL     1       5.283   4.578  18.908  0.00  0.00    +0.000 C 
ATOM      5  C   UNL     1       4.287   5.210  17.917  0.00  0.00    +0.000 C 
ATOM      6  O   UNL     1       3.119   5.679  18.611  0.00  0.00    +0.000 OA
ENDROOT
BRANCH   4   7
ATOM      7  N   UNL     1       6.512   4.119  18.245  0.00  0.00    +0.000 N 
ATOM      8  C   UNL     1       7.754   4.649  18.316  0.00  0.00    +0.000 C 
ATOM      9  C   UNL     1       7.967   6.031  18.894  0.00  0.00    +0.000 C 
ATOM     10  O   UNL     1       8.702   3.999  17.887  0.00  0.00    +0.000 OA
ATOM     11  H   UNL     1       6.557   3.120  18.081  0.00  0.00    +0.000 HD
ENDBRANCH   4   7
BRANCH   1  12
ATOM     12  C   UNL     1       1.618   3.687  18.309  0.00  0.00    +0.000 C 
ATOM     13  O   UNL     1       1.504   2.460  18.563  0.00  0.00    +0.000 OA
ATOM     14  O   UNL     1       1.125   4.307  17.304  0.00  0.00    +0.000 OA
ENDBRANCH   1  12
BRANCH   3  15
ATOM     15  O   UNL     1       4.507   2.251  18.819  0.00  0.00    +0.000 OA
ATOM     16  H   UNL     1       4.920   1.483  19.296  0.00  0.00    +0.000 HD
ENDBRANCH   3  15
BRANCH   1  17
ATOM     17  S   UNL     1       1.087   5.515  20.360  0.00  0.00    +0.000 S 
BRANCH  17  18
ATOM     18  C   UNL     1       1.862   7.148  20.661  0.00  0.00    +0.000 C 
BRANCH  18  21
ATOM     19  C   UNL     1       0.819  10.595  20.463  0.00  0.00    +0.000 C 
ATOM     20  O   UNL     1       0.799   9.307  21.093  0.00  0.00    +0.000 OA
ATOM     21  C   UNL     1       1.041   8.311  20.096  0.00  0.00    +0.000 C 
ATOM     22  C   UNL     1       1.665   9.013  18.894  0.00  0.00    +0.000 C 
ATOM     23  C   UNL     1       0.982  10.370  18.948  0.00  0.00    +0.000 C 
BRANCH  19  25
ATOM     24  C   UNL     1      -1.235  11.301  19.550  0.00  0.00    +0.000 C 
ATOM     25  O   UNL     1      -0.406  11.288  20.704  0.00  0.00    +0.000 OA
ENDBRANCH  19  25
BRANCH  22  26
ATOM     26  O   UNL     1       1.435   8.308  17.676  0.00  0.00    +0.000 OA
ATOM     27  H   UNL     1       2.265   8.286  17.169  0.00  0.00    +0.000 HD
ENDBRANCH  22  26
BRANCH  23  28
ATOM     28  O   UNL     1       1.737  11.390  18.290  0.00  0.00    +0.000 OA
ATOM     29  H   UNL     1       1.517  11.373  17.341  0.00  0.00    +0.000 HD
ENDBRANCH  23  28
ENDBRANCH  18  21
ENDBRANCH  17  18
ENDBRANCH   1  17
BRANCH   5  30
ATOM     30  C   UNL     1       4.900   6.414  17.165  0.00  0.00    +0.000 C 
BRANCH  30  31
ATOM     31  O   UNL     1       3.910   7.442  17.009  0.00  0.00    +0.000 OA
ATOM     32  H   UNL     1       4.013   8.015  17.795  0.00  0.00    +0.000 HD
ENDBRANCH  30  31
BRANCH  30  33
ATOM     33  C   UNL     1       5.471   6.079  15.766  0.00  0.00    +0.000 C 
BRANCH  33  34
ATOM     34  O   UNL     1       5.085   7.045  14.774  0.00  0.00    +0.000 OA
ATOM     35  H   UNL     1       5.903   7.379  14.347  0.00  0.00    +0.000 HD
ENDBRANCH  33  34
BRANCH  33  36
ATOM     36  C   UNL     1       5.081   4.685  15.265  0.00  0.00    +0.000 C 
BRANCH  36  37
ATOM     37  O   UNL     1       6.232   3.834  15.223  0.00  0.00    +0.000 OA
ATOM     38  H   UNL     1       6.209   3.441  14.324  0.00  0.00    +0.000 HD
ENDBRANCH  36  37
ENDBRANCH  33  36
ENDBRANCH  30  33
ENDBRANCH   5  30
TORSDOF 15
ENDMDL
MODEL 2
REMARK VINA RESULT:      -6.4      0.981      1.262
REMARK  Name = 
REMARK  17 active torsions:
REMARK  status: ('A' for Active; 'I' for Inactive)
REMARK    1  A    between atoms: C_1  and  O_2
REMARK    2  A    between atoms: O_2  and  C_3
REMARK    3  A    between atoms: C_5  and  C_6
REMARK    4  A    between atoms: C_6  and  S_7
REMARK    5  A    between atoms: S_7  and  C_8
REMARK    6  A    between atoms: C_8  and  C_9
REMARK    7  A    between atoms: C_13  and  O_14
REMARK    8  A    between atoms: C_15  and  N_16
REMARK    9  A    between atoms: C_17  and  C_18
REMARK   10  A    between atoms: C_20  and  C_21
REMARK   11  A    between atoms: C_21  and  O_22
REMARK   12  A    between atoms: C_21  and  C_23
REMARK   13  A    between atoms: C_23  and  O_24
REMARK   14  A    between atoms: C_23  and  C_25
REMARK   15  A    between atoms: C_25  and  O_26
REMARK   16  A    between atoms: C_28  and  O_29
REMARK   17  A    between atoms: C_30  and  O_31
REMARK                            x       y       z     vdW  Elec       q    Type
REMARK                         _______ _______ _______ _____ _____    ______ ____
ROOT
ATOM      1  C   UNL     1       2.303   4.496  19.380  0.00  0.00    +0.000 C 
ATOM      2  C   UNL     1       3.244   3.616  20.230  0.00  0.00    +0.000 C 
ATOM      3  C   UNL     1       4.571   3.277  19.560  0.00  0.00    +0.000 C 
ATOM      4  C   UNL     1       5.190   4.514  18.881  0.00  0.00    +0.000 C 
ATOM      5  C   UNL     1       4.157   5.189  17.959  0.00  0.00    +0.000 C 
ATOM      6  O   UNL     1       2.995   5.581  18.709  0.00  0.00    +0.000 OA
ENDROOT
BRANCH   4   7
ATOM      7  N   UNL     1       6.413   4.131  18.162  0.00  0.00    +0.000 N 
ATOM      8  C   UNL     1       7.672   4.595  18.337  0.00  0.00    +0.000 C 
ATOM      9  C   UNL     1       7.922   5.848  19.147  0.00  0.00    +0.000 C 
ATOM     10  O   UNL     1       8.603   3.994  17.811  0.00  0.00    +0.000 OA
ATOM     11  H   UNL     1       6.427   3.174  17.828  0.00  0.00    +0.000 HD
ENDBRANCH   4   7
BRANCH   1  12
ATOM     12  C   UNL     1       1.533   3.579  18.301  0.00  0.00    +0.000 C 
ATOM     13  O   UNL     1       1.091   4.089  17.239  0.00  0.00    +0.000 OA
ATOM     14  O   UNL     1       1.494   2.343  18.626  0.00  0.00    +0.000 OA
ENDBRANCH   1  12
BRANCH   3  15
ATOM     15  O   UNL     1       4.464   2.181  18.647  0.00  0.00    +0.000 OA
ATOM     16  H   UNL     1       4.831   2.473  17.771  0.00  0.00    +0.000 HD
ENDBRANCH   3  15
BRANCH   1  17
ATOM     17  S   UNL     1       1.009   5.247  20.486  0.00  0.00    +0.000 S 
BRANCH  17  18
ATOM     18  C   UNL     1       1.787   6.843  20.943  0.00  0.00    +0.000 C 
BRANCH  18  21
ATOM     19  C   UNL     1       0.402  10.074  21.747  0.00  0.00    +0.000 C 
ATOM     20  O   UNL     1       0.499   8.659  21.955  0.00  0.00    +0.000 OA
ATOM     21  C   UNL     1       0.863   8.043  20.716  0.00  0.00    +0.000 C 
ATOM     22  C   UNL     1       1.439   9.134  19.818  0.00  0.00    +0.000 C 
ATOM     23  C   UNL     1       0.620  10.341  20.246  0.00  0.00    +0.000 C 
BRANCH  19  25
ATOM     24  C   UNL     1      -0.852  11.898  22.557  0.00  0.00    +0.000 C 
ATOM     25  O   UNL     1      -0.893  10.545  22.123  0.00  0.00    +0.000 OA
ENDBRANCH  19  25
BRANCH  22  26
ATOM     26  O   UNL     1       1.309   8.820  18.434  0.00  0.00    +0.000 OA
ATOM     27  H   UNL     1       0.521   8.261  18.314  0.00  0.00    +0.000 HD
ENDBRANCH  22  26
BRANCH  23  28
ATOM     28  O   UNL     1       1.281  11.578  19.968  0.00  0.00    +0.000 OA
ATOM     29  H   UNL     1       0.844  11.997  19.205  0.00  0.00    +0.000 HD
ENDBRANCH  23  28
ENDBRANCH  18  21
ENDBRANCH  17  18
ENDBRANCH   1  17
BRANCH   5  30
ATOM     30  C   UNL     1       4.726   6.457  17.280  0.00  0.00    +0.000 C 
BRANCH  30  31
ATOM     31  O   UNL     1       3.717   7.477  17.239  0.00  0.00    +0.000 OA
ATOM     32  H   UNL     1       2.967   7.073  16.758  0.00  0.00    +0.000 HD
ENDBRANCH  30  31
BRANCH  30  33
ATOM     33  C   UNL     1       5.249   6.238  15.839  0.00  0.00    +0.000 C 
BRANCH  33  34
ATOM     34  O   UNL     1       5.018   4.898  15.374  0.00  0.00    +0.000 OA
ATOM     35  H   UNL     1       5.883   4.523  15.100  0.00  0.00    +0.000 HD
ENDBRANCH  33  34
BRANCH  33  36
ATOM     36  C   UNL     1       6.737   6.561  15.674  0.00  0.00    +0.000 C 
BRANCH  36  37
ATOM     37  O   UNL     1       7.452   5.395  15.250  0.00  0.00    +0.000 OA
ATOM     38  H   UNL     1       7.066   4.667  15.784  0.00  0.00    +0.000 HD
ENDBRANCH  36  37
ENDBRANCH  33  36
ENDBRANCH  30  33
ENDBRANCH   5  30
TORSDOF 15
ENDMDL
MODEL 3
REMARK VINA RESULT:      -5.9      3.834      9.443
REMARK  Name = 
REMARK  17 active torsions:
REMARK  status: ('A' for Active; 'I' for Inactive)
REMARK    1  A    between atoms: C_1  and  O_2
REMARK    2  A    between atoms: O_2  and  C_3
REMARK    3  A    between atoms: C_5  and  C_6
REMARK    4  A    between atoms: C_6  and  S_7
REMARK    5  A    between atoms: S_7  and  C_8
REMARK    6  A    between atoms: C_8  and  C_9
REMARK    7  A    between atoms: C_13  and  O_14
REMARK    8  A    between atoms: C_15  and  N_16
REMARK    9  A    between atoms: C_17  and  C_18
REMARK   10  A    between atoms: C_20  and  C_21
REMARK   11  A    between atoms: C_21  and  O_22
REMARK   12  A    between atoms: C_21  and  C_23
REMARK   13  A    between atoms: C_23  and  O_24
REMARK   14  A    between atoms: C_23  and  C_25
REMARK   15  A    between atoms: C_25  and  O_26
REMARK   16  A    between atoms: C_28  and  O_29
REMARK   17  A    between atoms: C_30  and  O_31
REMARK                            x       y       z     vdW  Elec       q    Type
REMARK                         _______ _______ _______ _____ _____    ______ ____
ROOT
ATOM      1  C   UNL     1      -0.075  11.058  20.926  0.00  0.00    +0.000 C 
ATOM      2  C   UNL     1      -0.768  11.696  22.149  0.00  0.00    +0.000 C 
ATOM      3  C   UNL     1      -1.706  12.850  21.815  0.00  0.00    +0.000 C 
ATOM      4  C   UNL     1      -2.592  12.521  20.598  0.00  0.00    +0.000 C 
ATOM      5  C   UNL     1      -1.724  12.036  19.422  0.00  0.00    +0.000 C 
ATOM      6  O   UNL     1      -0.972  10.870  19.801  0.00  0.00    +0.000 OA
ENDROOT
BRANCH   4   7
ATOM      7  N   UNL     1      -3.409  13.689  20.242  0.00  0.00    +0.000 N 
ATOM      8  C   UNL     1      -4.635  14.030  20.702  0.00  0.00    +0.000 C 
ATOM      9  C   UNL     1      -5.475  13.028  21.463  0.00  0.00    +0.000 C 
ATOM     10  O   UNL     1      -5.062  15.157  20.472  0.00  0.00    +0.000 OA
ATOM     11  H   UNL     1      -2.880  14.515  19.988  0.00  0.00    +0.000 HD
ENDBRANCH   4   7
BRANCH   1  12
ATOM     12  C   UNL     1       1.184  11.963  20.486  0.00  0.00    +0.000 C 
ATOM     13  O   UNL     1       1.795  12.655  21.340  0.00  0.00    +0.000 OA
ATOM     14  O   UNL     1       1.488  11.836  19.249  0.00  0.00    +0.000 OA
ENDBRANCH   1  12
BRANCH   3  15
ATOM     15  O   UNL     1      -1.013  14.089  21.634  0.00  0.00    +0.000 OA
ATOM     16  H   UNL     1      -1.142  14.379  20.692  0.00  0.00    +0.000 HD
ENDBRANCH   3  15
BRANCH   1  17
ATOM     17  S   UNL     1       0.591   9.388  21.406  0.00  0.00    +0.000 S 
BRANCH  17  18
ATOM     18  C   UNL     1       1.237   8.769  19.806  0.00  0.00    +0.000 C 
BRANCH  18  21
ATOM     19  C   UNL     1       1.787   5.246  20.345  0.00  0.00    +0.000 C 
ATOM     20  O   UNL     1       1.488   6.562  20.828  0.00  0.00    +0.000 OA
ATOM     21  C   UNL     1       2.103   7.516  19.958  0.00  0.00    +0.000 C 
ATOM     22  C   UNL     1       2.426   6.797  18.652  0.00  0.00    +0.000 C 
ATOM     23  C   UNL     1       2.745   5.396  19.148  0.00  0.00    +0.000 C 
BRANCH  19  25
ATOM     24  C   UNL     1       1.798   3.211  21.535  0.00  0.00    +0.000 C 
ATOM     25  O   UNL     1       2.427   4.474  21.362  0.00  0.00    +0.000 OA
ENDBRANCH  19  25
BRANCH  22  26
ATOM     26  O   UNL     1       3.504   7.411  17.948  0.00  0.00    +0.000 OA
ATOM     27  H   UNL     1       3.383   7.253  16.997  0.00  0.00    +0.000 HD
ENDBRANCH  22  26
BRANCH  23  28
ATOM     28  O   UNL     1       2.567   4.402  18.136  0.00  0.00    +0.000 OA
ATOM     29  H   UNL     1       3.142   3.644  18.344  0.00  0.00    +0.000 HD
ENDBRANCH  23  28
ENDBRANCH  18  21
ENDBRANCH  17  18
ENDBRANCH   1  17
BRANCH   5  30
ATOM     30  C   UNL     1      -2.576  11.661  18.186  0.00  0.00    +0.000 C 
BRANCH  30  31
ATOM     31  O   UNL     1      -3.916  11.350  18.600  0.00  0.00    +0.000 OA
ATOM     32  H   UNL     1      -4.184  12.095  19.174  0.00  0.00    +0.000 HD
ENDBRANCH  30  31
BRANCH  30  33
ATOM     33  C   UNL     1      -2.035  10.466  17.367  0.00  0.00    +0.000 C 
BRANCH  33  34
ATOM     34  O   UNL     1      -0.598  10.419  17.356  0.00  0.00    +0.000 OA
ATOM     35  H   UNL     1      -0.275  10.960  18.109  0.00  0.00    +0.000 HD
ENDBRANCH  33  34
BRANCH  33  36
ATOM     36  C   UNL     1      -2.533  10.442  15.918  0.00  0.00    +0.000 C 
BRANCH  36  37
ATOM     37  O   UNL     1      -3.561  11.422  15.732  0.00  0.00    +0.000 OA
ATOM     38  H   UNL     1      -3.247  12.200  16.243  0.00  0.00    +0.000 HD
ENDBRANCH  36  37
ENDBRANCH  33  36
ENDBRANCH  30  33
ENDBRANCH   5  30
TORSDOF 15
ENDMDL
MODEL 4
REMARK VINA RESULT:      -5.8      1.093      1.897
REMARK  Name = 
REMARK  17 active torsions:
REMARK  status: ('A' for Active; 'I' for Inactive)
REMARK    1  A    between atoms: C_1  and  O_2
REMARK    2  A    between atoms: O_2  and  C_3
REMARK    3  A    between atoms: C_5  and  C_6
REMARK    4  A    between atoms: C_6  and  S_7
REMARK    5  A    between atoms: S_7  and  C_8
REMARK    6  A    between atoms: C_8  and  C_9
REMARK    7  A    between atoms: C_13  and  O_14
REMARK    8  A    between atoms: C_15  and  N_16
REMARK    9  A    between atoms: C_17  and  C_18
REMARK   10  A    between atoms: C_20  and  C_21
REMARK   11  A    between atoms: C_21  and  O_22
REMARK   12  A    between atoms: C_21  and  C_23
REMARK   13  A    between atoms: C_23  and  O_24
REMARK   14  A    between atoms: C_23  and  C_25
REMARK   15  A    between atoms: C_25  and  O_26
REMARK   16  A    between atoms: C_28  and  O_29
REMARK   17  A    between atoms: C_30  and  O_31
REMARK                            x       y       z     vdW  Elec       q    Type
REMARK                         _______ _______ _______ _____ _____    ______ ____
ROOT
ATOM      1  C   UNL     1       2.500   5.325  19.487  0.00  0.00    +0.000 C 
ATOM      2  C   UNL     1       3.367   4.587  20.530  0.00  0.00    +0.000 C 
ATOM      3  C   UNL     1       4.642   3.969  19.970  0.00  0.00    +0.000 C 
ATOM      4  C   UNL     1       5.365   4.938  19.016  0.00  0.00    +0.000 C 
ATOM      5  C   UNL     1       4.386   5.469  17.951  0.00  0.00    +0.000 C 
ATOM      6  O   UNL     1       3.282   6.143  18.578  0.00  0.00    +0.000 OA
ENDROOT
BRANCH   4   7
ATOM      7  N   UNL     1       6.533   4.275  18.418  0.00  0.00    +0.000 N 
ATOM      8  C   UNL     1       7.805   4.726  18.335  0.00  0.00    +0.000 C 
ATOM      9  C   UNL     1       8.124   6.180  18.610  0.00  0.00    +0.000 C 
ATOM     10  O   UNL     1       8.693   3.942  18.014  0.00  0.00    +0.000 OA
ATOM     11  H   UNL     1       6.513   3.263  18.461  0.00  0.00    +0.000 HD
ENDBRANCH   4   7
BRANCH   1  12
ATOM     12  C   UNL     1       1.626   4.255  18.657  0.00  0.00    +0.000 C 
ATOM     13  O   UNL     1       1.284   4.502  17.472  0.00  0.00    +0.000 OA
ATOM     14  O   UNL     1       1.401   3.176  19.306  0.00  0.00    +0.000 OA
ENDBRANCH   1  12
BRANCH   3  15
ATOM     15  O   UNL     1       4.414   2.701  19.349  0.00  0.00    +0.000 OA
ATOM     16  H   UNL     1       3.432   2.573  19.261  0.00  0.00    +0.000 HD
ENDBRANCH   3  15
BRANCH   1  17
ATOM     17  S   UNL     1       1.304   6.444  20.371  0.00  0.00    +0.000 S 
BRANCH  17  18
ATOM     18  C   UNL     1       1.724   8.079  19.656  0.00  0.00    +0.000 C 
BRANCH  18  21
ATOM     19  C   UNL     1      -0.888  10.144  21.042  0.00  0.00    +0.000 C 
ATOM     20  O   UNL     1      -0.053   9.733  19.951  0.00  0.00    +0.000 OA
ATOM     21  C   UNL     1       1.183   9.248  20.485  0.00  0.00    +0.000 C 
ATOM     22  C   UNL     1       0.949   8.935  21.959  0.00  0.00    +0.000 C 
ATOM     23  C   UNL     1      -0.068   9.999  22.337  0.00  0.00    +0.000 C 
BRANCH  19  25
ATOM     24  C   UNL     1      -1.801  11.756  19.585  0.00  0.00    +0.000 C 
ATOM     25  O   UNL     1      -1.278  11.508  20.884  0.00  0.00    +0.000 OA
ENDBRANCH  19  25
BRANCH  22  26
ATOM     26  O   UNL     1       2.151   9.000  22.723  0.00  0.00    +0.000 OA
ATOM     27  H   UNL     1       2.692   9.736  22.389  0.00  0.00    +0.000 HD
ENDBRANCH  22  26
BRANCH  23  28
ATOM     28  O   UNL     1      -0.848   9.632  23.477  0.00  0.00    +0.000 OA
ATOM     29  H   UNL     1      -0.896  10.397  24.078  0.00  0.00    +0.000 HD
ENDBRANCH  23  28
ENDBRANCH  18  21
ENDBRANCH  17  18
ENDBRANCH   1  17
BRANCH   5  30
ATOM     30  C   UNL     1       5.063   6.474  16.989  0.00  0.00    +0.000 C 
BRANCH  30  31
ATOM     31  O   UNL     1       4.150   7.537  16.681  0.00  0.00    +0.000 OA
ATOM     32  H   UNL     1       3.469   7.499  17.383  0.00  0.00    +0.000 HD
ENDBRANCH  30  31
BRANCH  30  33
ATOM     33  C   UNL     1       5.555   5.860  15.657  0.00  0.00    +0.000 C 
BRANCH  33  34
ATOM     34  O   UNL     1       5.251   6.695  14.527  0.00  0.00    +0.000 OA
ATOM     35  H   UNL     1       6.058   6.749  13.969  0.00  0.00    +0.000 HD
ENDBRANCH  33  34
BRANCH  33  36
ATOM     36  C   UNL     1       5.000   4.457  15.388  0.00  0.00    +0.000 C 
BRANCH  36  37
ATOM     37  O   UNL     1       6.011   3.471  15.624  0.00  0.00    +0.000 OA
ATOM     38  H   UNL     1       5.618   2.636  15.287  0.00  0.00    +0.000 HD
ENDBRANCH  36  37
ENDBRANCH  33  36
ENDBRANCH  30  33
ENDBRANCH   5  30
TORSDOF 15
ENDMDL
MODEL 5
REMARK VINA RESULT:      -5.8      3.786      9.538
REMARK  Name = 
REMARK  17 active torsions:
REMARK  status: ('A' for Active; 'I' for Inactive)
REMARK    1  A    between atoms: C_1  and  O_2
REMARK    2  A    between atoms: O_2  and  C_3
REMARK    3  A    between atoms: C_5  and  C_6
REMARK    4  A    between atoms: C_6  and  S_7
REMARK    5  A    between atoms: S_7  and  C_8
REMARK    6  A    between atoms: C_8  and  C_9
REMARK    7  A    between atoms: C_13  and  O_14
REMARK    8  A    between atoms: C_15  and  N_16
REMARK    9  A    between atoms: C_17  and  C_18
REMARK   10  A    between atoms: C_20  and  C_21
REMARK   11  A    between atoms: C_21  and  O_22
REMARK   12  A    between atoms: C_21  and  C_23
REMARK   13  A    between atoms: C_23  and  O_24
REMARK   14  A    between atoms: C_23  and  C_25
REMARK   15  A    between atoms: C_25  and  O_26
REMARK   16  A    between atoms: C_28  and  O_29
REMARK   17  A    between atoms: C_30  and  O_31
REMARK                            x       y       z     vdW  Elec       q    Type
REMARK                         _______ _______ _______ _____ _____    ______ ____
ROOT
ATOM      1  C   UNL     1       0.095  10.962  20.818  0.00  0.00    +0.000 C 
ATOM      2  C   UNL     1      -0.877  11.443  21.917  0.00  0.00    +0.000 C 
ATOM      3  C   UNL     1      -1.946  12.416  21.436  0.00  0.00    +0.000 C 
ATOM      4  C   UNL     1      -2.566  11.958  20.103  0.00  0.00    +0.000 C 
ATOM      5  C   UNL     1      -1.459  11.658  19.075  0.00  0.00    +0.000 C 
ATOM      6  O   UNL     1      -0.575  10.639  19.572  0.00  0.00    +0.000 OA
ENDROOT
BRANCH   4   7
ATOM      7  N   UNL     1      -3.517  12.968  19.619  0.00  0.00    +0.000 N 
ATOM      8  C   UNL     1      -4.762  13.238  20.074  0.00  0.00    +0.000 C 
ATOM      9  C   UNL     1      -5.465  12.273  21.004  0.00  0.00    +0.000 C 
ATOM     10  O   UNL     1      -5.318  14.268  19.705  0.00  0.00    +0.000 OA
ATOM     11  H   UNL     1      -3.090  13.800  19.228  0.00  0.00    +0.000 HD
ENDBRANCH   4   7
BRANCH   1  12
ATOM     12  C   UNL     1       1.223  12.086  20.565  0.00  0.00    +0.000 C 
ATOM     13  O   UNL     1       1.823  12.140  19.461  0.00  0.00    +0.000 OA
ATOM     14  O   UNL     1       1.363  12.890  21.549  0.00  0.00    +0.000 OA
ENDBRANCH   1  12
BRANCH   3  15
ATOM     15  O   UNL     1      -1.467  13.763  21.352  0.00  0.00    +0.000 OA
ATOM     16  H   UNL     1      -2.128  14.353  21.803  0.00  0.00    +0.000 HD
ENDBRANCH   3  15
BRANCH   1  17
ATOM     17  S   UNL     1       0.970   9.429  21.406  0.00  0.00    +0.000 S 
BRANCH  17  18
ATOM     18  C   UNL     1       1.389   8.606  19.823  0.00  0.00    +0.000 C 
BRANCH  18  21
ATOM     19  C   UNL     1       1.703   5.067  20.441  0.00  0.00    +0.000 C 
ATOM     20  O   UNL     1       1.479   6.409  20.893  0.00  0.00    +0.000 OA
ATOM     21  C   UNL     1       2.171   7.304  20.016  0.00  0.00    +0.000 C 
ATOM     22  C   UNL     1       2.470   6.539  18.731  0.00  0.00    +0.000 C 
ATOM     23  C   UNL     1       2.690   5.132  19.261  0.00  0.00    +0.000 C 
BRANCH  19  25
ATOM     24  C   UNL     1       1.691   2.983  21.541  0.00  0.00    +0.000 C 
ATOM     25  O   UNL     1       2.273   4.278  21.486  0.00  0.00    +0.000 OA
ENDBRANCH  19  25
BRANCH  22  26
ATOM     26  O   UNL     1       3.597   7.068  18.036  0.00  0.00    +0.000 OA
ATOM     27  H   UNL     1       3.407   7.990  17.793  0.00  0.00    +0.000 HD
ENDBRANCH  22  26
BRANCH  23  28
ATOM     28  O   UNL     1       2.467   4.130  18.265  0.00  0.00    +0.000 OA
ATOM     29  H   UNL     1       1.686   3.608  18.522  0.00  0.00    +0.000 HD
ENDBRANCH  23  28
ENDBRANCH  18  21
ENDBRANCH  17  18
ENDBRANCH   1  17
BRANCH   5  30
ATOM     30  C   UNL     1      -2.036  11.161  17.728  0.00  0.00    +0.000 C 
BRANCH  30  31
ATOM     31  O   UNL     1      -1.978  12.217  16.758  0.00  0.00    +0.000 OA
ATOM     32  H   UNL     1      -2.653  12.864  17.046  0.00  0.00    +0.000 HD
ENDBRANCH  30  31
BRANCH  30  33
ATOM     33  C   UNL     1      -3.496  10.653  17.800  0.00  0.00    +0.000 C 
BRANCH  33  34
ATOM     34  O   UNL     1      -3.572   9.218  17.844  0.00  0.00    +0.000 OA
ATOM     35  H   UNL     1      -4.463   8.976  18.178  0.00  0.00    +0.000 HD
ENDBRANCH  33  34
BRANCH  33  36
ATOM     36  C   UNL     1      -4.374  11.152  16.648  0.00  0.00    +0.000 C 
BRANCH  36  37
ATOM     37  O   UNL     1      -4.871  12.463  16.937  0.00  0.00    +0.000 OA
ATOM     38  H   UNL     1      -4.447  13.037  16.262  0.00  0.00    +0.000 HD
ENDBRANCH  36  37
ENDBRANCH  33  36
ENDBRANCH  30  33
ENDBRANCH   5  30
TORSDOF 15
ENDMDL
MODEL 6
REMARK VINA RESULT:      -5.6      1.530      2.069
REMARK  Name = 
REMARK  17 active torsions:
REMARK  status: ('A' for Active; 'I' for Inactive)
REMARK    1  A    between atoms: C_1  and  O_2
REMARK    2  A    between atoms: O_2  and  C_3
REMARK    3  A    between atoms: C_5  and  C_6
REMARK    4  A    between atoms: C_6  and  S_7
REMARK    5  A    between atoms: S_7  and  C_8
REMARK    6  A    between atoms: C_8  and  C_9
REMARK    7  A    between atoms: C_13  and  O_14
REMARK    8  A    between atoms: C_15  and  N_16
REMARK    9  A    between atoms: C_17  and  C_18
REMARK   10  A    between atoms: C_20  and  C_21
REMARK   11  A    between atoms: C_21  and  O_22
REMARK   12  A    between atoms: C_21  and  C_23
REMARK   13  A    between atoms: C_23  and  O_24
REMARK   14  A    between atoms: C_23  and  C_25
REMARK   15  A    between atoms: C_25  and  O_26
REMARK   16  A    between atoms: C_28  and  O_29
REMARK   17  A    between atoms: C_30  and  O_31
REMARK                            x       y       z     vdW  Elec       q    Type
REMARK                         _______ _______ _______ _____ _____    ______ ____
ROOT
ATOM      1  C   UNL     1       2.679   5.800  17.941  0.00  0.00    +0.000 C 
ATOM      2  C   UNL     1       3.022   5.767  19.446  0.00  0.00    +0.000 C 
ATOM      3  C   UNL     1       4.384   5.166  19.772  0.00  0.00    +0.000 C 
ATOM      4  C   UNL     1       5.472   5.687  18.816  0.00  0.00    +0.000 C 
ATOM      5  C   UNL     1       5.026   5.511  17.352  0.00  0.00    +0.000 C 
ATOM      6  O   UNL     1       3.796   6.218  17.115  0.00  0.00    +0.000 OA
ENDROOT
BRANCH   4   7
ATOM      7  N   UNL     1       6.748   5.012  19.093  0.00  0.00    +0.000 N 
ATOM      8  C   UNL     1       7.975   5.562  19.246  0.00  0.00    +0.000 C 
ATOM      9  C   UNL     1       8.230   6.996  18.835  0.00  0.00    +0.000 C 
ATOM     10  O   UNL     1       8.880   4.873  19.705  0.00  0.00    +0.000 OA
ATOM     11  H   UNL     1       6.668   4.159  19.634  0.00  0.00    +0.000 HD
ENDBRANCH   4   7
BRANCH   1  12
ATOM     12  C   UNL     1       2.157   4.348  17.474  0.00  0.00    +0.000 C 
ATOM     13  O   UNL     1       0.925   4.095  17.455  0.00  0.00    +0.000 OA
ATOM     14  O   UNL     1       3.101   3.572  17.094  0.00  0.00    +0.000 OA
ENDBRANCH   1  12
BRANCH   3  15
ATOM     15  O   UNL     1       4.361   3.735  19.806  0.00  0.00    +0.000 OA
ATOM     16  H   UNL     1       5.232   3.406  19.459  0.00  0.00    +0.000 HD
ENDBRANCH   3  15
BRANCH   1  17
ATOM     17  S   UNL     1       1.285   7.000  17.660  0.00  0.00    +0.000 S 
BRANCH  17  18
ATOM     18  C   UNL     1       2.061   8.592  18.134  0.00  0.00    +0.000 C 
BRANCH  18  21
ATOM     19  C   UNL     1       0.836  10.052  21.196  0.00  0.00    +0.000 C 
ATOM     20  O   UNL     1       0.941   8.956  20.278  0.00  0.00    +0.000 OA
ATOM     21  C   UNL     1       1.131   9.484  18.962  0.00  0.00    +0.000 C 
ATOM     22  C   UNL     1       1.598  10.928  19.115  0.00  0.00    +0.000 C 
ATOM     23  C   UNL     1       0.858  11.353  20.373  0.00  0.00    +0.000 C 
BRANCH  19  25
ATOM     24  C   UNL     1      -0.183   9.547  23.261  0.00  0.00    +0.000 C 
ATOM     25  O   UNL     1      -0.392   9.978  21.922  0.00  0.00    +0.000 OA
ENDBRANCH  19  25
BRANCH  22  26
ATOM     26  O   UNL     1       1.283  11.723  17.974  0.00  0.00    +0.000 OA
ATOM     27  H   UNL     1       1.991  11.617  17.316  0.00  0.00    +0.000 HD
ENDBRANCH  22  26
BRANCH  23  28
ATOM     28  O   UNL     1       1.493  12.448  21.039  0.00  0.00    +0.000 OA
ATOM     29  H   UNL     1       1.035  12.603  21.884  0.00  0.00    +0.000 HD
ENDBRANCH  23  28
ENDBRANCH  18  21
ENDBRANCH  17  18
ENDBRANCH   1  17
BRANCH   5  30
ATOM     30  C   UNL     1       6.077   6.052  16.354  0.00  0.00    +0.000 C 
BRANCH  30  31
ATOM     31  O   UNL     1       5.428   6.853  15.355  0.00  0.00    +0.000 OA
ATOM     32  H   UNL     1       6.142   7.124  14.744  0.00  0.00    +0.000 HD
ENDBRANCH  30  31
BRANCH  30  33
ATOM     33  C   UNL     1       6.905   4.961  15.634  0.00  0.00    +0.000 C 
BRANCH  33  34
ATOM     34  O   UNL     1       7.809   5.515  14.664  0.00  0.00    +0.000 OA
ATOM     35  H   UNL     1       8.050   6.420  14.962  0.00  0.00    +0.000 HD
ENDBRANCH  33  34
BRANCH  33  36
ATOM     36  C   UNL     1       6.045   3.897  14.945  0.00  0.00    +0.000 C 
BRANCH  36  37
ATOM     37  O   UNL     1       5.836   2.785  15.823  0.00  0.00    +0.000 OA
ATOM     38  H   UNL     1       5.856   3.180  16.722  0.00  0.00    +0.000 HD
ENDBRANCH  36  37
ENDBRANCH  33  36
ENDBRANCH  30  33
ENDBRANCH   5  30
TORSDOF 15
ENDMDL
MODEL 7
REMARK VINA RESULT:      -5.6      4.001      9.686
REMARK  Name = 
REMARK  17 active torsions:
REMARK  status: ('A' for Active; 'I' for Inactive)
REMARK    1  A    between atoms: C_1  and  O_2
REMARK    2  A    between atoms: O_2  and  C_3
REMARK    3  A    between atoms: C_5  and  C_6
REMARK    4  A    between atoms: C_6  and  S_7
REMARK    5  A    between atoms: S_7  and  C_8
REMARK    6  A    between atoms: C_8  and  C_9
REMARK    7  A    between atoms: C_13  and  O_14
REMARK    8  A    between atoms: C_15  and  N_16
REMARK    9  A    between atoms: C_17  and  C_18
REMARK   10  A    between atoms: C_20  and  C_21
REMARK   11  A    between atoms: C_21  and  O_22
REMARK   12  A    between atoms: C_21  and  C_23
REMARK   13  A    between atoms: C_23  and  O_24
REMARK   14  A    between atoms: C_23  and  C_25
REMARK   15  A    between atoms: C_25  and  O_26
REMARK   16  A    between atoms: C_28  and  O_29
REMARK   17  A    between atoms: C_30  and  O_31
REMARK                            x       y       z     vdW  Elec       q    Type
REMARK                         _______ _______ _______ _____ _____    ______ ____
ROOT
ATOM      1  C   UNL     1      -0.899  11.489  21.872  0.00  0.00    +0.000 C 
ATOM      2  C   UNL     1      -2.200  11.870  22.612  0.00  0.00    +0.000 C 
ATOM      3  C   UNL     1      -3.151  12.749  21.809  0.00  0.00    +0.000 C 
ATOM      4  C   UNL     1      -3.290  12.250  20.359  0.00  0.00    +0.000 C 
ATOM      5  C   UNL     1      -1.899  12.060  19.724  0.00  0.00    +0.000 C 
ATOM      6  O   UNL     1      -1.125  11.119  20.487  0.00  0.00    +0.000 OA
ENDROOT
BRANCH   4   7
ATOM      7  N   UNL     1      -4.131  13.176  19.589  0.00  0.00    +0.000 N 
ATOM      8  C   UNL     1      -5.482  13.257  19.556  0.00  0.00    +0.000 C 
ATOM      9  C   UNL     1      -6.331  12.142  20.125  0.00  0.00    +0.000 C 
ATOM     10  O   UNL     1      -6.004  14.240  19.040  0.00  0.00    +0.000 OA
ATOM     11  H   UNL     1      -3.714  14.082  19.413  0.00  0.00    +0.000 HD
ENDBRANCH   4   7
BRANCH   1  12
ATOM     12  C   UNL     1       0.148  12.711  21.956  0.00  0.00    +0.000 C 
ATOM     13  O   UNL     1      -0.077  13.685  22.719  0.00  0.00    +0.000 OA
ATOM     14  O   UNL     1       1.191  12.530  21.237  0.00  0.00    +0.000 OA
ENDBRANCH   1  12
BRANCH   3  15
ATOM     15  O   UNL     1      -2.790  14.133  21.851  0.00  0.00    +0.000 OA
ATOM     16  H   UNL     1      -3.179  14.577  21.051  0.00  0.00    +0.000 HD
ENDBRANCH   3  15
BRANCH   1  17
ATOM     17  S   UNL     1      -0.116  10.034  22.728  0.00  0.00    +0.000 S 
BRANCH  17  18
ATOM     18  C   UNL     1      -0.163   8.757  21.413  0.00  0.00    +0.000 C 
BRANCH  18  21
ATOM     19  C   UNL     1       2.217   7.034  19.322  0.00  0.00    +0.000 C 
ATOM     20  O   UNL     1       1.551   7.226  20.577  0.00  0.00    +0.000 OA
ATOM     21  C   UNL     1       1.175   8.602  20.685  0.00  0.00    +0.000 C 
ATOM     22  C   UNL     1       1.213   9.195  19.280  0.00  0.00    +0.000 C 
ATOM     23  C   UNL     1       2.356   8.414  18.652  0.00  0.00    +0.000 C 
BRANCH  19  25
ATOM     24  C   UNL     1       3.875   5.582  18.486  0.00  0.00    +0.000 C 
ATOM     25  O   UNL     1       3.517   6.481  19.528  0.00  0.00    +0.000 OA
ENDBRANCH  19  25
BRANCH  22  26
ATOM     26  O   UNL     1       1.426  10.604  19.292  0.00  0.00    +0.000 OA
ATOM     27  H   UNL     1       1.920  10.851  18.492  0.00  0.00    +0.000 HD
ENDBRANCH  22  26
BRANCH  23  28
ATOM     28  O   UNL     1       2.275   8.375  17.225  0.00  0.00    +0.000 OA
ATOM     29  H   UNL     1       2.780   7.605  16.909  0.00  0.00    +0.000 HD
ENDBRANCH  23  28
ENDBRANCH  18  21
ENDBRANCH  17  18
ENDBRANCH   1  17
BRANCH   5  30
ATOM     30  C   UNL     1      -1.990  11.526  18.275  0.00  0.00    +0.000 C 
BRANCH  30  31
ATOM     31  O   UNL     1      -1.768  12.602  17.349  0.00  0.00    +0.000 OA
ATOM     32  H   UNL     1      -2.631  13.057  17.279  0.00  0.00    +0.000 HD
ENDBRANCH  30  31
BRANCH  30  33
ATOM     33  C   UNL     1      -3.337  10.853  17.918  0.00  0.00    +0.000 C 
BRANCH  33  34
ATOM     34  O   UNL     1      -3.210   9.430  17.765  0.00  0.00    +0.000 OA
ATOM     35  H   UNL     1      -3.997   9.013  18.180  0.00  0.00    +0.000 HD
ENDBRANCH  33  34
BRANCH  33  36
ATOM     36  C   UNL     1      -3.988  11.423  16.654  0.00  0.00    +0.000 C 
BRANCH  36  37
ATOM     37  O   UNL     1      -3.154  11.180  15.516  0.00  0.00    +0.000 OA
ATOM     38  H   UNL     1      -2.392  10.677  15.877  0.00  0.00    +0.000 HD
ENDBRANCH  36  37
ENDBRANCH  33  36
ENDBRANCH  30  33
ENDBRANCH   5  30
TORSDOF 15
ENDMDL
MODEL 8
REMARK VINA RESULT:      -5.5      6.906     10.158
REMARK  Name = 
REMARK  17 active torsions:
REMARK  status: ('A' for Active; 'I' for Inactive)
REMARK    1  A    between atoms: C_1  and  O_2
REMARK    2  A    between atoms: O_2  and  C_3
REMARK    3  A    between atoms: C_5  and  C_6
REMARK    4  A    between atoms: C_6  and  S_7
REMARK    5  A    between atoms: S_7  and  C_8
REMARK    6  A    between atoms: C_8  and  C_9
REMARK    7  A    between atoms: C_13  and  O_14
REMARK    8  A    between atoms: C_15  and  N_16
REMARK    9  A    between atoms: C_17  and  C_18
REMARK   10  A    between atoms: C_20  and  C_21
REMARK   11  A    between atoms: C_21  and  O_22
REMARK   12  A    between atoms: C_21  and  C_23
REMARK   13  A    between atoms: C_23  and  O_24
REMARK   14  A    between atoms: C_23  and  C_25
REMARK   15  A    between atoms: C_25  and  O_26
REMARK   16  A    between atoms: C_28  and  O_29
REMARK   17  A    between atoms: C_30  and  O_31
REMARK                            x       y       z     vdW  Elec       q    Type
REMARK                         _______ _______ _______ _____ _____    ______ ____
ROOT
ATOM      1  C   UNL     1       9.354  11.484  18.631  0.00  0.00    +0.000 C 
ATOM      2  C   UNL     1       9.544  10.927  20.058  0.00  0.00    +0.000 C 
ATOM      3  C   UNL     1       9.872  11.980  21.111  0.00  0.00    +0.000 C 
ATOM      4  C   UNL     1       8.981  13.226  20.957  0.00  0.00    +0.000 C 
ATOM      5  C   UNL     1       9.021  13.735  19.503  0.00  0.00    +0.000 C 
ATOM      6  O   UNL     1       8.575  12.709  18.601  0.00  0.00    +0.000 OA
ENDROOT
BRANCH   4   7
ATOM      7  N   UNL     1       9.391  14.258  21.919  0.00  0.00    +0.000 N 
ATOM      8  C   UNL     1       8.733  14.692  23.019  0.00  0.00    +0.000 C 
ATOM      9  C   UNL     1       7.276  14.344  23.229  0.00  0.00    +0.000 C 
ATOM     10  O   UNL     1       9.333  15.390  23.832  0.00  0.00    +0.000 OA
ATOM     11  H   UNL     1      10.393  14.349  22.042  0.00  0.00    +0.000 HD
ENDBRANCH   4   7
BRANCH   1  12
ATOM     12  C   UNL     1      10.794  11.727  17.949  0.00  0.00    +0.000 C 
ATOM     13  O   UNL     1      11.812  11.138  18.396  0.00  0.00    +0.000 OA
ATOM     14  O   UNL     1      10.745  12.495  16.928  0.00  0.00    +0.000 OA
ENDBRANCH   1  12
BRANCH   3  15
ATOM     15  O   UNL     1      11.259  12.331  21.125  0.00  0.00    +0.000 OA
ATOM     16  H   UNL     1      11.704  11.796  21.835  0.00  0.00    +0.000 HD
ENDBRANCH   3  15
BRANCH   1  17
ATOM     17  S   UNL     1       8.463  10.220  17.597  0.00  0.00    +0.000 S 
BRANCH  17  18
ATOM     18  C   UNL     1       8.663   8.702  18.606  0.00  0.00    +0.000 C 
BRANCH  18  21
ATOM     19  C   UNL     1       7.262   6.149  16.479  0.00  0.00    +0.000 C 
ATOM     20  O   UNL     1       7.465   7.525  16.830  0.00  0.00    +0.000 OA
ATOM     21  C   UNL     1       7.654   7.609  18.245  0.00  0.00    +0.000 C 
ATOM     22  C   UNL     1       8.018   6.212  18.739  0.00  0.00    +0.000 C 
ATOM     23  C   UNL     1       7.219   5.337  17.787  0.00  0.00    +0.000 C 
BRANCH  19  25
ATOM     24  C   UNL     1       4.955   5.714  16.684  0.00  0.00    +0.000 C 
ATOM     25  O   UNL     1       6.023   5.989  15.787  0.00  0.00    +0.000 OA
ENDBRANCH  19  25
BRANCH  22  26
ATOM     26  O   UNL     1       7.681   6.018  20.110  0.00  0.00    +0.000 OA
ATOM     27  H   UNL     1       8.288   5.358  20.488  0.00  0.00    +0.000 HD
ENDBRANCH  22  26
BRANCH  23  28
ATOM     28  O   UNL     1       7.760   4.019  17.668  0.00  0.00    +0.000 OA
ATOM     29  H   UNL     1       7.597   3.542  18.501  0.00  0.00    +0.000 HD
ENDBRANCH  23  28
ENDBRANCH  18  21
ENDBRANCH  17  18
ENDBRANCH   1  17
BRANCH   5  30
ATOM     30  C   UNL     1       8.112  14.969  19.295  0.00  0.00    +0.000 C 
BRANCH  30  31
ATOM     31  O   UNL     1       6.735  14.561  19.293  0.00  0.00    +0.000 OA
ATOM     32  H   UNL     1       6.563  14.245  20.203  0.00  0.00    +0.000 HD
ENDBRANCH  30  31
BRANCH  30  33
ATOM     33  C   UNL     1       8.382  15.757  17.990  0.00  0.00    +0.000 C 
BRANCH  33  34
ATOM     34  O   UNL     1       9.475  15.205  17.237  0.00  0.00    +0.000 OA
ATOM     35  H   UNL     1       9.097  14.615  16.549  0.00  0.00    +0.000 HD
ENDBRANCH  33  34
BRANCH  33  36
ATOM     36  C   UNL     1       8.654  17.247  18.221  0.00  0.00    +0.000 C 
BRANCH  36  37
ATOM     37  O   UNL     1       7.445  17.919  18.591  0.00  0.00    +0.000 OA
ATOM     38  H   UNL     1       7.488  18.775  18.110  0.00  0.00    +0.000 HD
ENDBRANCH  36  37
ENDBRANCH  33  36
ENDBRANCH  30  33
ENDBRANCH   5  30
TORSDOF 15
ENDMDL
MODEL 9
REMARK VINA RESULT:      -5.5      6.434      9.803
REMARK  Name = 
REMARK  17 active torsions:
REMARK  status: ('A' for Active; 'I' for Inactive)
REMARK    1  A    between atoms: C_1  and  O_2
REMARK    2  A    between atoms: O_2  and  C_3
REMARK    3  A    between atoms: C_5  and  C_6
REMARK    4  A    between atoms: C_6  and  S_7
REMARK    5  A    between atoms: S_7  and  C_8
REMARK    6  A    between atoms: C_8  and  C_9
REMARK    7  A    between atoms: C_13  and  O_14
REMARK    8  A    between atoms: C_15  and  N_16
REMARK    9  A    between atoms: C_17  and  C_18
REMARK   10  A    between atoms: C_20  and  C_21
REMARK   11  A    between atoms: C_21  and  O_22
REMARK   12  A    between atoms: C_21  and  C_23
REMARK   13  A    between atoms: C_23  and  O_24
REMARK   14  A    between atoms: C_23  and  C_25
REMARK   15  A    between atoms: C_25  and  O_26
REMARK   16  A    between atoms: C_28  and  O_29
REMARK   17  A    between atoms: C_30  and  O_31
REMARK                            x       y       z     vdW  Elec       q    Type
REMARK                         _______ _______ _______ _____ _____    ______ ____
ROOT
ATOM      1  C   UNL     1       9.255  11.392  18.763  0.00  0.00    +0.000 C 
ATOM      2  C   UNL     1       9.438  10.786  20.171  0.00  0.00    +0.000 C 
ATOM      3  C   UNL     1       9.654  11.812  21.278  0.00  0.00    +0.000 C 
ATOM      4  C   UNL     1       8.680  12.997  21.145  0.00  0.00    +0.000 C 
ATOM      5  C   UNL     1       8.730  13.572  19.717  0.00  0.00    +0.000 C 
ATOM      6  O   UNL     1       8.390  12.557  18.756  0.00  0.00    +0.000 OA
ENDROOT
BRANCH   4   7
ATOM      7  N   UNL     1       8.982  14.011  22.165  0.00  0.00    +0.000 N 
ATOM      8  C   UNL     1       8.524  14.090  23.435  0.00  0.00    +0.000 C 
ATOM      9  C   UNL     1       7.349  13.247  23.881  0.00  0.00    +0.000 C 
ATOM     10  O   UNL     1       9.064  14.870  24.213  0.00  0.00    +0.000 OA
ATOM     11  H   UNL     1       9.904  14.426  22.090  0.00  0.00    +0.000 HD
ENDBRANCH   4   7
BRANCH   1  12
ATOM     12  C   UNL     1      10.695  11.767  18.144  0.00  0.00    +0.000 C 
ATOM     13  O   UNL     1      11.742  11.273  18.636  0.00  0.00    +0.000 OA
ATOM     14  O   UNL     1      10.620  12.530  17.120  0.00  0.00    +0.000 OA
ENDBRANCH   1  12
BRANCH   3  15
ATOM     15  O   UNL     1      11.011  12.260  21.357  0.00  0.00    +0.000 OA
ATOM     16  H   UNL     1      11.006  13.253  21.384  0.00  0.00    +0.000 HD
ENDBRANCH   3  15
BRANCH   1  17
ATOM     17  S   UNL     1       8.493  10.114  17.645  0.00  0.00    +0.000 S 
BRANCH  17  18
ATOM     18  C   UNL     1       8.676   8.587  18.643  0.00  0.00    +0.000 C 
BRANCH  18  21
ATOM     19  C   UNL     1       7.244   6.067  16.496  0.00  0.00    +0.000 C 
ATOM     20  O   UNL     1       7.463   7.438  16.858  0.00  0.00    +0.000 OA
ATOM     21  C   UNL     1       7.654   7.508  18.274  0.00  0.00    +0.000 C 
ATOM     22  C   UNL     1       8.003   6.103  18.756  0.00  0.00    +0.000 C 
ATOM     23  C   UNL     1       7.192   5.245  17.798  0.00  0.00    +0.000 C 
BRANCH  19  25
ATOM     24  C   UNL     1       4.921   5.724  16.704  0.00  0.00    +0.000 C 
ATOM     25  O   UNL     1       6.003   5.927  15.804  0.00  0.00    +0.000 OA
ENDBRANCH  19  25
BRANCH  22  26
ATOM     26  O   UNL     1       7.664   5.901  20.126  0.00  0.00    +0.000 OA
ATOM     27  H   UNL     1       6.803   5.452  20.170  0.00  0.00    +0.000 HD
ENDBRANCH  22  26
BRANCH  23  28
ATOM     28  O   UNL     1       7.719   3.922  17.667  0.00  0.00    +0.000 OA
ATOM     29  H   UNL     1       8.028   3.625  18.542  0.00  0.00    +0.000 HD
ENDBRANCH  23  28
ENDBRANCH  18  21
ENDBRANCH  17  18
ENDBRANCH   1  17
BRANCH   5  30
ATOM     30  C   UNL     1       7.740  14.745  19.528  0.00  0.00    +0.000 C 
BRANCH  30  31
ATOM     31  O   UNL     1       6.767  14.732  20.585  0.00  0.00    +0.000 OA
ATOM     32  H   UNL     1       7.102  14.078  21.230  0.00  0.00    +0.000 HD
ENDBRANCH  30  31
BRANCH  30  33
ATOM     33  C   UNL     1       6.984  14.742  18.178  0.00  0.00    +0.000 C 
BRANCH  33  34
ATOM     34  O   UNL     1       7.831  15.120  17.079  0.00  0.00    +0.000 OA
ATOM     35  H   UNL     1       8.419  14.360  16.879  0.00  0.00    +0.000 HD
ENDBRANCH  33  34
BRANCH  33  36
ATOM     36  C   UNL     1       5.744  15.641  18.169  0.00  0.00    +0.000 C 
BRANCH  36  37
ATOM     37  O   UNL     1       4.576  14.877  18.487  0.00  0.00    +0.000 OA
ATOM     38  H   UNL     1       3.911  15.550  18.752  0.00  0.00    +0.000 HD
ENDBRANCH  36  37
ENDBRANCH  33  36
ENDBRANCH  30  33
ENDBRANCH   5  30
TORSDOF 15
ENDMDL
