MODEL 1
REMARK VINA RESULT:      -8.9      0.000      0.000
REMARK  Name = 
REMARK  6 active torsions:
REMARK  status: ('A' for Active; 'I' for Inactive)
REMARK    1  A    between atoms: C_1  and  C_2
REMARK    2  A    between atoms: C_7  and  N_8
REMARK    3  A    between atoms: C_9  and  C_11
REMARK    4  A    between atoms: C_11  and  C_12
REMARK    5  A    between atoms: C_11  and  N_19
REMARK    6  A    between atoms: C_12  and  C_13
REMARK                            x       y       z     vdW  Elec       q    Type
REMARK                         _______ _______ _______ _____ _____    ______ ____
ROOT
ATOM      1  C   UNL     1       4.952   4.191  17.732  0.00  0.00    +0.000 C 
ENDROOT
BRANCH   1   2
ATOM      2  N   UNL     1       5.589   4.221  16.387  0.00  0.00    +0.000 N 
ATOM      3  C   UNL     1       5.091   3.490  15.226  0.00  0.00    +0.000 C 
ATOM      4  C   UNL     1       6.016   3.919  14.136  0.00  0.00    +0.000 A 
ATOM      5  C   UNL     1       5.983   3.592  12.791  0.00  0.00    +0.000 A 
ATOM      6  C   UNL     1       6.931   4.177  11.948  0.00  0.00    +0.000 A 
ATOM      7  C   UNL     1       7.885   5.079  12.457  0.00  0.00    +0.000 A 
ATOM      8  C   UNL     1       7.897   5.417  13.815  0.00  0.00    +0.000 A 
ATOM      9  C   UNL     1       6.950   4.825  14.631  0.00  0.00    +0.000 A 
ATOM     10  C   UNL     1       6.678   5.021  16.066  0.00  0.00    +0.000 C 
ATOM     11  O   UNL     1       7.303   5.758  16.803  0.00  0.00    +0.000 OA
ENDBRANCH   1   2
BRANCH   1  13
ATOM     12  N   UNL     1       3.210   6.028  17.833  0.00  0.00    +0.000 N 
ATOM     13  C   UNL     1       4.462   5.583  18.249  0.00  0.00    +0.000 C 
ATOM     14  O   UNL     1       5.121   6.179  19.102  0.00  0.00    +0.000 OA
ATOM     15  H   UNL     1       2.663   5.414  17.249  0.00  0.00    +0.000 HD
BRANCH  12  22
ATOM     16  C   UNL     1       2.021   6.050  20.557  0.00  0.00    +0.000 C 
ATOM     17  C   UNL     1       2.036   7.238  19.635  0.00  0.00    +0.000 A 
ATOM     18  C   UNL     1       1.474   8.439  20.124  0.00  0.00    +0.000 A 
ATOM     19  C   UNL     1       1.419   9.590  19.343  0.00  0.00    +0.000 A 
ATOM     20  C   UNL     1       1.883   9.545  18.040  0.00  0.00    +0.000 A 
ATOM     21  C   UNL     1       2.421   8.360  17.537  0.00  0.00    +0.000 A 
ATOM     22  C   UNL     1       2.551   7.201  18.321  0.00  0.00    +0.000 A 
ENDBRANCH  12  22
ENDBRANCH   1  13
BRANCH   1  23
ATOM     23  C   UNL     1       3.976   3.006  17.886  0.00  0.00    +0.000 C 
BRANCH  23  24
ATOM     24  C   UNL     1       3.065   2.962  19.092  0.00  0.00    +0.000 A 
ATOM     25  C   UNL     1       1.672   2.980  18.938  0.00  0.00    +0.000 A 
ATOM     26  C   UNL     1       0.832   2.792  20.038  0.00  0.00    +0.000 A 
ATOM     27  C   UNL     1       1.372   2.590  21.307  0.00  0.00    +0.000 A 
ATOM     28  C   UNL     1       2.753   2.588  21.477  0.00  0.00    +0.000 A 
ATOM     29  C   UNL     1       3.595   2.775  20.378  0.00  0.00    +0.000 A 
ENDBRANCH  23  24
ENDBRANCH   1  23
TORSDOF 5
ENDMDL
MODEL 2
REMARK VINA RESULT:      -8.3      2.320      6.092
REMARK  Name = 
REMARK  6 active torsions:
REMARK  status: ('A' for Active; 'I' for Inactive)
REMARK    1  A    between atoms: C_1  and  C_2
REMARK    2  A    between atoms: C_7  and  N_8
REMARK    3  A    between atoms: C_9  and  C_11
REMARK    4  A    between atoms: C_11  and  C_12
REMARK    5  A    between atoms: C_11  and  N_19
REMARK    6  A    between atoms: C_12  and  C_13
REMARK                            x       y       z     vdW  Elec       q    Type
REMARK                         _______ _______ _______ _____ _____    ______ ____
ROOT
ATOM      1  C   UNL     1       2.917   7.220  17.705  0.00  0.00    +0.000 C 
ENDROOT
BRANCH   1   2
ATOM      2  N   UNL     1       2.636   6.038  18.564  0.00  0.00    +0.000 N 
ATOM      3  C   UNL     1       3.088   5.899  19.945  0.00  0.00    +0.000 C 
ATOM      4  C   UNL     1       2.484   4.603  20.369  0.00  0.00    +0.000 A 
ATOM      5  C   UNL     1       2.523   3.992  21.611  0.00  0.00    +0.000 A 
ATOM      6  C   UNL     1       1.816   2.799  21.780  0.00  0.00    +0.000 A 
ATOM      7  C   UNL     1       1.082   2.242  20.716  0.00  0.00    +0.000 A 
ATOM      8  C   UNL     1       1.033   2.878  19.470  0.00  0.00    +0.000 A 
ATOM      9  C   UNL     1       1.740   4.058  19.325  0.00  0.00    +0.000 A 
ATOM     10  C   UNL     1       1.834   4.973  18.174  0.00  0.00    +0.000 C 
ATOM     11  O   UNL     1       1.294   4.803  17.098  0.00  0.00    +0.000 OA
ENDBRANCH   1   2
BRANCH   1  13
ATOM     12  N   UNL     1       1.265   8.447  19.183  0.00  0.00    +0.000 N 
ATOM     13  C   UNL     1       2.062   8.485  18.043  0.00  0.00    +0.000 C 
ATOM     14  O   UNL     1       2.214   9.515  17.382  0.00  0.00    +0.000 OA
ATOM     15  H   UNL     1       1.306   7.620  19.758  0.00  0.00    +0.000 HD
BRANCH  12  22
ATOM     16  C   UNL     1       1.371   9.051  22.092  0.00  0.00    +0.000 C 
ATOM     17  C   UNL     1       0.630   9.886  21.085  0.00  0.00    +0.000 A 
ATOM     18  C   UNL     1      -0.024  11.044  21.566  0.00  0.00    +0.000 A 
ATOM     19  C   UNL     1      -0.755  11.874  20.719  0.00  0.00    +0.000 A 
ATOM     20  C   UNL     1      -0.884  11.532  19.385  0.00  0.00    +0.000 A 
ATOM     21  C   UNL     1      -0.262  10.381  18.900  0.00  0.00    +0.000 A 
ATOM     22  C   UNL     1       0.537   9.559  19.715  0.00  0.00    +0.000 A 
ENDBRANCH  12  22
ENDBRANCH   1  13
BRANCH   1  23
ATOM     23  C   UNL     1       4.430   7.438  17.492  0.00  0.00    +0.000 C 
BRANCH  23  24
ATOM     24  C   UNL     1       5.269   6.292  16.976  0.00  0.00    +0.000 A 
ATOM     25  C   UNL     1       5.190   5.894  15.635  0.00  0.00    +0.000 A 
ATOM     26  C   UNL     1       6.069   4.934  15.124  0.00  0.00    +0.000 A 
ATOM     27  C   UNL     1       7.031   4.356  15.948  0.00  0.00    +0.000 A 
ATOM     28  C   UNL     1       7.108   4.727  17.287  0.00  0.00    +0.000 A 
ATOM     29  C   UNL     1       6.232   5.687  17.799  0.00  0.00    +0.000 A 
ENDBRANCH  23  24
ENDBRANCH   1  23
TORSDOF 5
ENDMDL
MODEL 3
REMARK VINA RESULT:      -8.3      0.545      1.632
REMARK  Name = 
REMARK  6 active torsions:
REMARK  status: ('A' for Active; 'I' for Inactive)
REMARK    1  A    between atoms: C_1  and  C_2
REMARK    2  A    between atoms: C_7  and  N_8
REMARK    3  A    between atoms: C_9  and  C_11
REMARK    4  A    between atoms: C_11  and  C_12
REMARK    5  A    between atoms: C_11  and  N_19
REMARK    6  A    between atoms: C_12  and  C_13
REMARK                            x       y       z     vdW  Elec       q    Type
REMARK                         _______ _______ _______ _____ _____    ______ ____
ROOT
ATOM      1  C   UNL     1       5.091   3.841  18.036  0.00  0.00    +0.000 C 
ENDROOT
BRANCH   1   2
ATOM      2  N   UNL     1       5.665   3.985  16.671  0.00  0.00    +0.000 N 
ATOM      3  C   UNL     1       5.073   3.412  15.466  0.00  0.00    +0.000 C 
ATOM      4  C   UNL     1       5.969   3.909  14.381  0.00  0.00    +0.000 A 
ATOM      5  C   UNL     1       5.855   3.733  13.012  0.00  0.00    +0.000 A 
ATOM      6  C   UNL     1       6.794   4.357  12.188  0.00  0.00    +0.000 A 
ATOM      7  C   UNL     1       7.821   5.147  12.739  0.00  0.00    +0.000 A 
ATOM      8  C   UNL     1       7.915   5.334  14.123  0.00  0.00    +0.000 A 
ATOM      9  C   UNL     1       6.975   4.707  14.920  0.00  0.00    +0.000 A 
ATOM     10  C   UNL     1       6.781   4.759  16.380  0.00  0.00    +0.000 C 
ATOM     11  O   UNL     1       7.482   5.377  17.158  0.00  0.00    +0.000 OA
ENDBRANCH   1   2
BRANCH   1  13
ATOM     12  N   UNL     1       3.266   5.546  18.460  0.00  0.00    +0.000 N 
ATOM     13  C   UNL     1       4.591   5.179  18.674  0.00  0.00    +0.000 C 
ATOM     14  O   UNL     1       5.327   5.795  19.448  0.00  0.00    +0.000 OA
ATOM     15  H   UNL     1       2.680   4.914  17.937  0.00  0.00    +0.000 HD
BRANCH  12  22
ATOM     16  C   UNL     1       3.126   8.176  17.080  0.00  0.00    +0.000 C 
ATOM     17  C   UNL     1       2.488   7.888  18.410  0.00  0.00    +0.000 A 
ATOM     18  C   UNL     1       1.754   8.937  19.011  0.00  0.00    +0.000 A 
ATOM     19  C   UNL     1       1.142   8.780  20.252  0.00  0.00    +0.000 A 
ATOM     20  C   UNL     1       1.295   7.588  20.935  0.00  0.00    +0.000 A 
ATOM     21  C   UNL     1       2.035   6.551  20.364  0.00  0.00    +0.000 A 
ATOM     22  C   UNL     1       2.609   6.655  19.085  0.00  0.00    +0.000 A 
ENDBRANCH  12  22
ENDBRANCH   1  13
BRANCH   1  23
ATOM     23  C   UNL     1       4.152   2.622  18.147  0.00  0.00    +0.000 C 
BRANCH  23  24
ATOM     24  C   UNL     1       3.090   2.612  19.223  0.00  0.00    +0.000 A 
ATOM     25  C   UNL     1       3.444   2.589  20.578  0.00  0.00    +0.000 A 
ATOM     26  C   UNL     1       2.470   2.727  21.571  0.00  0.00    +0.000 A 
ATOM     27  C   UNL     1       1.130   2.882  21.222  0.00  0.00    +0.000 A 
ATOM     28  C   UNL     1       0.762   2.888  19.879  0.00  0.00    +0.000 A 
ATOM     29  C   UNL     1       1.734   2.751  18.886  0.00  0.00    +0.000 A 
ENDBRANCH  23  24
ENDBRANCH   1  23
TORSDOF 5
ENDMDL
MODEL 4
REMARK VINA RESULT:      -8.3      2.278      6.063
REMARK  Name = 
REMARK  6 active torsions:
REMARK  status: ('A' for Active; 'I' for Inactive)
REMARK    1  A    between atoms: C_1  and  C_2
REMARK    2  A    between atoms: C_7  and  N_8
REMARK    3  A    between atoms: C_9  and  C_11
REMARK    4  A    between atoms: C_11  and  C_12
REMARK    5  A    between atoms: C_11  and  N_19
REMARK    6  A    between atoms: C_12  and  C_13
REMARK                            x       y       z     vdW  Elec       q    Type
REMARK                         _______ _______ _______ _____ _____    ______ ____
ROOT
ATOM      1  C   UNL     1       2.796   7.571  17.571  0.00  0.00    +0.000 C 
ENDROOT
BRANCH   1   2
ATOM      2  N   UNL     1       2.337   6.349  18.287  0.00  0.00    +0.000 N 
ATOM      3  C   UNL     1       1.899   5.124  17.624  0.00  0.00    +0.000 C 
ATOM      4  C   UNL     1       1.633   4.201  18.766  0.00  0.00    +0.000 A 
ATOM      5  C   UNL     1       1.253   2.869  18.735  0.00  0.00    +0.000 A 
ATOM      6  C   UNL     1       1.127   2.193  19.950  0.00  0.00    +0.000 A 
ATOM      7  C   UNL     1       1.389   2.848  21.168  0.00  0.00    +0.000 A 
ATOM      8  C   UNL     1       1.792   4.188  21.187  0.00  0.00    +0.000 A 
ATOM      9  C   UNL     1       1.909   4.839  19.972  0.00  0.00    +0.000 A 
ATOM     10  C   UNL     1       2.361   6.209  19.668  0.00  0.00    +0.000 C 
ATOM     11  O   UNL     1       2.691   7.037  20.495  0.00  0.00    +0.000 OA
ENDBRANCH   1   2
BRANCH   1  13
ATOM     12  N   UNL     1       1.031   8.783  18.925  0.00  0.00    +0.000 N 
ATOM     13  C   UNL     1       2.017   8.874  17.948  0.00  0.00    +0.000 C 
ATOM     14  O   UNL     1       2.380   9.954  17.478  0.00  0.00    +0.000 OA
ATOM     15  H   UNL     1       0.892   7.890  19.372  0.00  0.00    +0.000 HD
BRANCH  12  22
ATOM     16  C   UNL     1      -1.335   9.923  17.530  0.00  0.00    +0.000 C 
ATOM     17  C   UNL     1      -0.830  10.404  18.862  0.00  0.00    +0.000 A 
ATOM     18  C   UNL     1      -1.558  11.441  19.489  0.00  0.00    +0.000 A 
ATOM     19  C   UNL     1      -1.162  11.973  20.714  0.00  0.00    +0.000 A 
ATOM     20  C   UNL     1      -0.004  11.508  21.310  0.00  0.00    +0.000 A 
ATOM     21  C   UNL     1       0.737  10.499  20.692  0.00  0.00    +0.000 A 
ATOM     22  C   UNL     1       0.328   9.896  19.490  0.00  0.00    +0.000 A 
ENDBRANCH  12  22
ENDBRANCH   1  13
BRANCH   1  23
ATOM     23  C   UNL     1       4.334   7.669  17.516  0.00  0.00    +0.000 C 
BRANCH  23  24
ATOM     24  C   UNL     1       5.130   6.462  17.076  0.00  0.00    +0.000 A 
ATOM     25  C   UNL     1       5.215   6.116  15.720  0.00  0.00    +0.000 A 
ATOM     26  C   UNL     1       6.066   5.090  15.299  0.00  0.00    +0.000 A 
ATOM     27  C   UNL     1       6.836   4.393  16.228  0.00  0.00    +0.000 A 
ATOM     28  C   UNL     1       6.747   4.713  17.579  0.00  0.00    +0.000 A 
ATOM     29  C   UNL     1       5.898   5.739  18.001  0.00  0.00    +0.000 A 
ENDBRANCH  23  24
ENDBRANCH   1  23
TORSDOF 5
ENDMDL
MODEL 5
REMARK VINA RESULT:      -8.2      2.304      6.200
REMARK  Name = 
REMARK  6 active torsions:
REMARK  status: ('A' for Active; 'I' for Inactive)
REMARK    1  A    between atoms: C_1  and  C_2
REMARK    2  A    between atoms: C_7  and  N_8
REMARK    3  A    between atoms: C_9  and  C_11
REMARK    4  A    between atoms: C_11  and  C_12
REMARK    5  A    between atoms: C_11  and  N_19
REMARK    6  A    between atoms: C_12  and  C_13
REMARK                            x       y       z     vdW  Elec       q    Type
REMARK                         _______ _______ _______ _____ _____    ______ ____
ROOT
ATOM      1  C   UNL     1       2.944   7.333  17.628  0.00  0.00    +0.000 C 
ENDROOT
BRANCH   1   2
ATOM      2  N   UNL     1       2.652   6.158  18.494  0.00  0.00    +0.000 N 
ATOM      3  C   UNL     1       3.097   6.027  19.878  0.00  0.00    +0.000 C 
ATOM      4  C   UNL     1       2.483   4.737  20.309  0.00  0.00    +0.000 A 
ATOM      5  C   UNL     1       2.513   4.135  21.556  0.00  0.00    +0.000 A 
ATOM      6  C   UNL     1       1.799   2.947  21.730  0.00  0.00    +0.000 A 
ATOM      7  C   UNL     1       1.065   2.387  20.667  0.00  0.00    +0.000 A 
ATOM      8  C   UNL     1       1.026   3.015  19.416  0.00  0.00    +0.000 A 
ATOM      9  C   UNL     1       1.740   4.189  19.266  0.00  0.00    +0.000 A 
ATOM     10  C   UNL     1       1.845   5.096  18.108  0.00  0.00    +0.000 C 
ATOM     11  O   UNL     1       1.308   4.921  17.032  0.00  0.00    +0.000 OA
ENDBRANCH   1   2
BRANCH   1  13
ATOM     12  N   UNL     1       1.237   8.551  19.050  0.00  0.00    +0.000 N 
ATOM     13  C   UNL     1       2.145   8.626  17.999  0.00  0.00    +0.000 C 
ATOM     14  O   UNL     1       2.432   9.693  17.452  0.00  0.00    +0.000 OA
ATOM     15  H   UNL     1       1.165   7.678  19.548  0.00  0.00    +0.000 HD
BRANCH  12  22
ATOM     16  C   UNL     1      -1.068   9.751  17.604  0.00  0.00    +0.000 C 
ATOM     17  C   UNL     1      -0.595  10.203  18.958  0.00  0.00    +0.000 A 
ATOM     18  C   UNL     1      -1.325  11.242  19.579  0.00  0.00    +0.000 A 
ATOM     19  C   UNL     1      -0.957  11.748  20.823  0.00  0.00    +0.000 A 
ATOM     20  C   UNL     1       0.175  11.256  21.446  0.00  0.00    +0.000 A 
ATOM     21  C   UNL     1       0.918  10.244  20.834  0.00  0.00    +0.000 A 
ATOM     22  C   UNL     1       0.536   9.667  19.611  0.00  0.00    +0.000 A 
ENDBRANCH  12  22
ENDBRANCH   1  13
BRANCH   1  23
ATOM     23  C   UNL     1       4.454   7.498  17.362  0.00  0.00    +0.000 C 
BRANCH  23  24
ATOM     24  C   UNL     1       5.236   6.321  16.826  0.00  0.00    +0.000 A 
ATOM     25  C   UNL     1       5.137   5.949  15.479  0.00  0.00    +0.000 A 
ATOM     26  C   UNL     1       5.967   4.956  14.951  0.00  0.00    +0.000 A 
ATOM     27  C   UNL     1       6.901   4.318  15.764  0.00  0.00    +0.000 A 
ATOM     28  C   UNL     1       6.998   4.664  17.109  0.00  0.00    +0.000 A 
ATOM     29  C   UNL     1       6.169   5.657  17.638  0.00  0.00    +0.000 A 
ENDBRANCH  23  24
ENDBRANCH   1  23
TORSDOF 5
ENDMDL
MODEL 6
REMARK VINA RESULT:      -8.2      1.062      1.215
REMARK  Name = 
REMARK  6 active torsions:
REMARK  status: ('A' for Active; 'I' for Inactive)
REMARK    1  A    between atoms: C_1  and  C_2
REMARK    2  A    between atoms: C_7  and  N_8
REMARK    3  A    between atoms: C_9  and  C_11
REMARK    4  A    between atoms: C_11  and  C_12
REMARK    5  A    between atoms: C_11  and  N_19
REMARK    6  A    between atoms: C_12  and  C_13
REMARK                            x       y       z     vdW  Elec       q    Type
REMARK                         _______ _______ _______ _____ _____    ______ ____
ROOT
ATOM      1  C   UNL     1       5.028   5.470  17.729  0.00  0.00    +0.000 C 
ENDROOT
BRANCH   1   2
ATOM      2  N   UNL     1       5.555   5.049  16.403  0.00  0.00    +0.000 N 
ATOM      3  C   UNL     1       4.891   4.097  15.518  0.00  0.00    +0.000 C 
ATOM      4  C   UNL     1       5.768   4.089  14.312  0.00  0.00    +0.000 A 
ATOM      5  C   UNL     1       5.593   3.412  13.116  0.00  0.00    +0.000 A 
ATOM      6  C   UNL     1       6.530   3.618  12.100  0.00  0.00    +0.000 A 
ATOM      7  C   UNL     1       7.614   4.496  12.290  0.00  0.00    +0.000 A 
ATOM      8  C   UNL     1       7.770   5.189  13.496  0.00  0.00    +0.000 A 
ATOM      9  C   UNL     1       6.831   4.970  14.487  0.00  0.00    +0.000 A 
ATOM     10  C   UNL     1       6.697   5.585  15.820  0.00  0.00    +0.000 C 
ATOM     11  O   UNL     1       7.455   6.410  16.290  0.00  0.00    +0.000 OA
ENDBRANCH   1   2
BRANCH   1  13
ATOM     12  N   UNL     1       3.253   6.893  18.844  0.00  0.00    +0.000 N 
ATOM     13  C   UNL     1       3.917   6.570  17.665  0.00  0.00    +0.000 C 
ATOM     14  O   UNL     1       3.755   7.208  16.623  0.00  0.00    +0.000 OA
ATOM     15  H   UNL     1       3.545   6.431  19.691  0.00  0.00    +0.000 HD
BRANCH  12  22
ATOM     16  C   UNL     1       1.480   7.016  21.228  0.00  0.00    +0.000 C 
ATOM     17  C   UNL     1       1.517   8.065  20.151  0.00  0.00    +0.000 A 
ATOM     18  C   UNL     1       0.673   9.186  20.317  0.00  0.00    +0.000 A 
ATOM     19  C   UNL     1       0.616  10.203  19.367  0.00  0.00    +0.000 A 
ATOM     20  C   UNL     1       1.368  10.091  18.212  0.00  0.00    +0.000 A 
ATOM     21  C   UNL     1       2.191   8.979  18.025  0.00  0.00    +0.000 A 
ATOM     22  C   UNL     1       2.320   7.969  18.994  0.00  0.00    +0.000 A 
ENDBRANCH  12  22
ENDBRANCH   1  13
BRANCH   1  23
ATOM     23  C   UNL     1       4.765   4.268  18.659  0.00  0.00    +0.000 C 
BRANCH  23  24
ATOM     24  C   UNL     1       3.338   3.904  18.999  0.00  0.00    +0.000 A 
ATOM     25  C   UNL     1       2.440   3.516  17.996  0.00  0.00    +0.000 A 
ATOM     26  C   UNL     1       1.167   3.040  18.325  0.00  0.00    +0.000 A 
ATOM     27  C   UNL     1       0.775   2.953  19.659  0.00  0.00    +0.000 A 
ATOM     28  C   UNL     1       1.651   3.352  20.665  0.00  0.00    +0.000 A 
ATOM     29  C   UNL     1       2.923   3.827  20.338  0.00  0.00    +0.000 A 
ENDBRANCH  23  24
ENDBRANCH   1  23
TORSDOF 5
ENDMDL
MODEL 7
REMARK VINA RESULT:      -8.1      2.265      5.961
REMARK  Name = 
REMARK  6 active torsions:
REMARK  status: ('A' for Active; 'I' for Inactive)
REMARK    1  A    between atoms: C_1  and  C_2
REMARK    2  A    between atoms: C_7  and  N_8
REMARK    3  A    between atoms: C_9  and  C_11
REMARK    4  A    between atoms: C_11  and  C_12
REMARK    5  A    between atoms: C_11  and  N_19
REMARK    6  A    between atoms: C_12  and  C_13
REMARK                            x       y       z     vdW  Elec       q    Type
REMARK                         _______ _______ _______ _____ _____    ______ ____
ROOT
ATOM      1  C   UNL     1       2.846   7.475  17.557  0.00  0.00    +0.000 C 
ENDROOT
BRANCH   1   2
ATOM      2  N   UNL     1       2.365   6.259  18.266  0.00  0.00    +0.000 N 
ATOM      3  C   UNL     1       1.899   5.048  17.596  0.00  0.00    +0.000 C 
ATOM      4  C   UNL     1       1.619   4.122  18.732  0.00  0.00    +0.000 A 
ATOM      5  C   UNL     1       1.210   2.799  18.693  0.00  0.00    +0.000 A 
ATOM      6  C   UNL     1       1.075   2.116  19.904  0.00  0.00    +0.000 A 
ATOM      7  C   UNL     1       1.355   2.757  21.125  0.00  0.00    +0.000 A 
ATOM      8  C   UNL     1       1.785   4.089  21.152  0.00  0.00    +0.000 A 
ATOM      9  C   UNL     1       1.912   4.746  19.941  0.00  0.00    +0.000 A 
ATOM     10  C   UNL     1       2.390   6.108  19.646  0.00  0.00    +0.000 C 
ATOM     11  O   UNL     1       2.741   6.923  20.477  0.00  0.00    +0.000 OA
ENDBRANCH   1   2
BRANCH   1  13
ATOM     12  N   UNL     1       0.907   8.654  18.684  0.00  0.00    +0.000 N 
ATOM     13  C   UNL     1       2.017   8.769  17.853  0.00  0.00    +0.000 C 
ATOM     14  O   UNL     1       2.437   9.860  17.463  0.00  0.00    +0.000 OA
ATOM     15  H   UNL     1       0.712   7.751  19.087  0.00  0.00    +0.000 HD
BRANCH  12  22
ATOM     16  C   UNL     1       1.045   9.429  21.551  0.00  0.00    +0.000 C 
ATOM     17  C   UNL     1       0.235  10.162  20.519  0.00  0.00    +0.000 A 
ATOM     18  C   UNL     1      -0.473  11.307  20.951  0.00  0.00    +0.000 A 
ATOM     19  C   UNL     1      -1.269  12.045  20.079  0.00  0.00    +0.000 A 
ATOM     20  C   UNL     1      -1.409  11.622  18.770  0.00  0.00    +0.000 A 
ATOM     21  C   UNL     1      -0.734  10.481  18.334  0.00  0.00    +0.000 A 
ATOM     22  C   UNL     1       0.129   9.753  19.172  0.00  0.00    +0.000 A 
ENDBRANCH  12  22
ENDBRANCH   1  13
BRANCH   1  23
ATOM     23  C   UNL     1       4.382   7.606  17.603  0.00  0.00    +0.000 C 
BRANCH  23  24
ATOM     24  C   UNL     1       5.230   6.465  17.088  0.00  0.00    +0.000 A 
ATOM     25  C   UNL     1       5.202   6.109  15.733  0.00  0.00    +0.000 A 
ATOM     26  C   UNL     1       6.090   5.154  15.230  0.00  0.00    +0.000 A 
ATOM     27  C   UNL     1       7.012   4.540  16.075  0.00  0.00    +0.000 A 
ATOM     28  C   UNL     1       7.038   4.871  17.427  0.00  0.00    +0.000 A 
ATOM     29  C   UNL     1       6.152   5.826  17.931  0.00  0.00    +0.000 A 
ENDBRANCH  23  24
ENDBRANCH   1  23
TORSDOF 5
ENDMDL
MODEL 8
REMARK VINA RESULT:      -7.8      4.306      7.979
REMARK  Name = 
REMARK  6 active torsions:
REMARK  status: ('A' for Active; 'I' for Inactive)
REMARK    1  A    between atoms: C_1  and  C_2
REMARK    2  A    between atoms: C_7  and  N_8
REMARK    3  A    between atoms: C_9  and  C_11
REMARK    4  A    between atoms: C_11  and  C_12
REMARK    5  A    between atoms: C_11  and  N_19
REMARK    6  A    between atoms: C_12  and  C_13
REMARK                            x       y       z     vdW  Elec       q    Type
REMARK                         _______ _______ _______ _____ _____    ______ ____
ROOT
ATOM      1  C   UNL     1       0.855  10.126  20.017  0.00  0.00    +0.000 C 
ENDROOT
BRANCH   1   2
ATOM      2  N   UNL     1       1.513   8.821  19.739  0.00  0.00    +0.000 N 
ATOM      3  C   UNL     1       1.529   7.695  20.668  0.00  0.00    +0.000 C 
ATOM      4  C   UNL     1       2.226   6.628  19.892  0.00  0.00    +0.000 A 
ATOM      5  C   UNL     1       2.470   5.313  20.251  0.00  0.00    +0.000 A 
ATOM      6  C   UNL     1       3.091   4.481  19.316  0.00  0.00    +0.000 A 
ATOM      7  C   UNL     1       3.447   4.969  18.045  0.00  0.00    +0.000 A 
ATOM      8  C   UNL     1       3.178   6.294  17.686  0.00  0.00    +0.000 A 
ATOM      9  C   UNL     1       2.564   7.100  18.627  0.00  0.00    +0.000 A 
ATOM     10  C   UNL     1       2.108   8.498  18.527  0.00  0.00    +0.000 C 
ATOM     11  O   UNL     1       2.237   9.209  17.549  0.00  0.00    +0.000 OA
ENDBRANCH   1   2
BRANCH   1  13
ATOM     12  N   UNL     1      -1.305   9.940  18.706  0.00  0.00    +0.000 N 
ATOM     13  C   UNL     1      -0.106  10.622  18.886  0.00  0.00    +0.000 C 
ATOM     14  O   UNL     1       0.154  11.666  18.285  0.00  0.00    +0.000 OA
ATOM     15  H   UNL     1      -1.516   9.183  19.337  0.00  0.00    +0.000 HD
BRANCH  12  22
ATOM     16  C   UNL     1      -3.312  11.949  19.589  0.00  0.00    +0.000 C 
ATOM     17  C   UNL     1      -3.277  11.342  18.214  0.00  0.00    +0.000 A 
ATOM     18  C   UNL     1      -4.246  11.791  17.289  0.00  0.00    +0.000 A 
ATOM     19  C   UNL     1      -4.314  11.277  15.996  0.00  0.00    +0.000 A 
ATOM     20  C   UNL     1      -3.442  10.271  15.623  0.00  0.00    +0.000 A 
ATOM     21  C   UNL     1      -2.493   9.802  16.533  0.00  0.00    +0.000 A 
ATOM     22  C   UNL     1      -2.356  10.346  17.822  0.00  0.00    +0.000 A 
ENDBRANCH  12  22
ENDBRANCH   1  13
BRANCH   1  23
ATOM     23  C   UNL     1       0.332  10.217  21.466  0.00  0.00    +0.000 C 
BRANCH  23  24
ATOM     24  C   UNL     1      -0.350  11.488  21.919  0.00  0.00    +0.000 A 
ATOM     25  C   UNL     1      -1.461  11.440  22.772  0.00  0.00    +0.000 A 
ATOM     26  C   UNL     1      -1.999  12.614  23.306  0.00  0.00    +0.000 A 
ATOM     27  C   UNL     1      -1.439  13.850  22.990  0.00  0.00    +0.000 A 
ATOM     28  C   UNL     1      -0.347  13.914  22.129  0.00  0.00    +0.000 A 
ATOM     29  C   UNL     1       0.193  12.742  21.595  0.00  0.00    +0.000 A 
ENDBRANCH  23  24
ENDBRANCH   1  23
TORSDOF 5
ENDMDL
MODEL 9
REMARK VINA RESULT:      -7.7      2.404      6.215
REMARK  Name = 
REMARK  6 active torsions:
REMARK  status: ('A' for Active; 'I' for Inactive)
REMARK    1  A    between atoms: C_1  and  C_2
REMARK    2  A    between atoms: C_7  and  N_8
REMARK    3  A    between atoms: C_9  and  C_11
REMARK    4  A    between atoms: C_11  and  C_12
REMARK    5  A    between atoms: C_11  and  N_19
REMARK    6  A    between atoms: C_12  and  C_13
REMARK                            x       y       z     vdW  Elec       q    Type
REMARK                         _______ _______ _______ _____ _____    ______ ____
ROOT
ATOM      1  C   UNL     1       2.562   7.418  18.020  0.00  0.00    +0.000 C 
ENDROOT
BRANCH   1   2
ATOM      2  N   UNL     1       2.378   6.138  18.756  0.00  0.00    +0.000 N 
ATOM      3  C   UNL     1       2.755   5.930  20.151  0.00  0.00    +0.000 C 
ATOM      4  C   UNL     1       2.291   4.538  20.421  0.00  0.00    +0.000 A 
ATOM      5  C   UNL     1       2.327   3.825  21.609  0.00  0.00    +0.000 A 
ATOM      6  C   UNL     1       1.767   2.546  21.626  0.00  0.00    +0.000 A 
ATOM      7  C   UNL     1       1.177   2.005  20.469  0.00  0.00    +0.000 A 
ATOM      8  C   UNL     1       1.129   2.740  19.279  0.00  0.00    +0.000 A 
ATOM      9  C   UNL     1       1.690   4.004  19.284  0.00  0.00    +0.000 A 
ATOM     10  C   UNL     1       1.742   5.025  18.222  0.00  0.00    +0.000 C 
ATOM     11  O   UNL     1       1.297   4.889  17.099  0.00  0.00    +0.000 OA
ENDBRANCH   1   2
BRANCH   1  13
ATOM     12  N   UNL     1       1.484   9.703  17.835  0.00  0.00    +0.000 N 
ATOM     13  C   UNL     1       1.843   8.647  18.667  0.00  0.00    +0.000 C 
ATOM     14  O   UNL     1       1.497   8.594  19.849  0.00  0.00    +0.000 OA
ATOM     15  H   UNL     1       1.670   9.609  16.848  0.00  0.00    +0.000 HD
BRANCH  12  22
ATOM     16  C   UNL     1      -1.452   9.720  17.363  0.00  0.00    +0.000 C 
ATOM     17  C   UNL     1      -0.705  10.820  18.064  0.00  0.00    +0.000 A 
ATOM     18  C   UNL     1      -1.468  11.907  18.549  0.00  0.00    +0.000 A 
ATOM     19  C   UNL     1      -0.871  12.987  19.194  0.00  0.00    +0.000 A 
ATOM     20  C   UNL     1       0.505  13.021  19.322  0.00  0.00    +0.000 A 
ATOM     21  C   UNL     1       1.274  11.966  18.828  0.00  0.00    +0.000 A 
ATOM     22  C   UNL     1       0.697  10.831  18.232  0.00  0.00    +0.000 A 
ENDBRANCH  12  22
ENDBRANCH   1  13
BRANCH   1  23
ATOM     23  C   UNL     1       4.023   7.623  17.568  0.00  0.00    +0.000 C 
BRANCH  23  24
ATOM     24  C   UNL     1       4.843   6.416  17.172  0.00  0.00    +0.000 A 
ATOM     25  C   UNL     1       4.879   5.982  15.840  0.00  0.00    +0.000 A 
ATOM     26  C   UNL     1       5.748   4.959  15.449  0.00  0.00    +0.000 A 
ATOM     27  C   UNL     1       6.586   4.355  16.384  0.00  0.00    +0.000 A 
ATOM     28  C   UNL     1       6.547   4.765  17.713  0.00  0.00    +0.000 A 
ATOM     29  C   UNL     1       5.680   5.786  18.106  0.00  0.00    +0.000 A 
ENDBRANCH  23  24
ENDBRANCH   1  23
TORSDOF 5
ENDMDL
