MODEL 1
REMARK VINA RESULT:      -8.8      0.000      0.000
REMARK  Name = 
REMARK  4 active torsions:
REMARK  status: ('A' for Active; 'I' for Inactive)
REMARK    1  A    between atoms: C_1  and  C_2
REMARK    2  A    between atoms: C_2  and  C_3
REMARK    3  A    between atoms: C_3  and  C_4
REMARK    4  A    between atoms: C_12  and  C_13
REMARK                            x       y       z     vdW  Elec       q    Type
REMARK                         _______ _______ _______ _____ _____    ______ ____
ROOT
ATOM      1  C   UNL     1       6.371   4.503  14.400  0.00  0.00    +0.000 A 
ATOM      2  N   UNL     1       7.433   5.286  14.357  0.00  0.00    +0.000 NA
ATOM      3  N   UNL     1       7.595   5.854  15.589  0.00  0.00    +0.000 NA
ATOM      4  C   UNL     1       6.630   5.409  16.356  0.00  0.00    +0.000 A 
ATOM      5  S   UNL     1       6.425   5.848  18.008  0.00  0.00    +0.000 S 
ATOM      6  C   UNL     1       5.041   4.939  18.338  0.00  0.00    +0.000 A 
ATOM      7  C   UNL     1       4.390   4.868  19.500  0.00  0.00    +0.000 A 
ATOM      8  C   UNL     1       3.257   3.978  19.357  0.00  0.00    +0.000 A 
ATOM      9  C   UNL     1       2.296   3.602  20.295  0.00  0.00    +0.000 A 
ATOM     10  C   UNL     1       2.284   4.107  21.708  0.00  0.00    +0.000 C 
ATOM     11  C   UNL     1       1.300   2.708  19.869  0.00  0.00    +0.000 A 
ATOM     12  C   UNL     1       1.276   2.216  18.550  0.00  0.00    +0.000 A 
ATOM     13  C   UNL     1       2.250   2.604  17.620  0.00  0.00    +0.000 A 
ATOM     14  C   UNL     1       3.227   3.485  18.049  0.00  0.00    +0.000 A 
ATOM     15  C   UNL     1       4.369   4.076  17.330  0.00  0.00    +0.000 A 
ATOM     16  N   UNL     1       4.676   3.858  16.092  0.00  0.00    +0.000 NA
ATOM     17  N   UNL     1       5.803   4.544  15.665  0.00  0.00    +0.000 N 
ENDROOT
BRANCH   1  18
ATOM     18  C   UNL     1       5.872   3.703  13.252  0.00  0.00    +0.000 C 
BRANCH  18  20
ATOM     19  C   UNL     1       6.898   2.306  11.424  0.00  0.00    +0.000 C 
ATOM     20  C   UNL     1       6.896   3.658  12.118  0.00  0.00    +0.000 C 
ENDBRANCH  18  20
ENDBRANCH   1  18
TORSDOF 2
ENDMDL
MODEL 2
REMARK VINA RESULT:      -8.3      2.165      4.026
REMARK  Name = 
REMARK  4 active torsions:
REMARK  status: ('A' for Active; 'I' for Inactive)
REMARK    1  A    between atoms: C_1  and  C_2
REMARK    2  A    between atoms: C_2  and  C_3
REMARK    3  A    between atoms: C_3  and  C_4
REMARK    4  A    between atoms: C_12  and  C_13
REMARK                            x       y       z     vdW  Elec       q    Type
REMARK                         _______ _______ _______ _____ _____    ______ ____
ROOT
ATOM      1  C   UNL     1       7.379   6.599  17.218  0.00  0.00    +0.000 A 
ATOM      2  N   UNL     1       7.983   6.393  16.062  0.00  0.00    +0.000 NA
ATOM      3  N   UNL     1       7.272   5.456  15.369  0.00  0.00    +0.000 NA
ATOM      4  C   UNL     1       6.250   5.109  16.114  0.00  0.00    +0.000 A 
ATOM      5  S   UNL     1       5.062   3.951  15.652  0.00  0.00    +0.000 S 
ATOM      6  C   UNL     1       4.103   4.010  17.040  0.00  0.00    +0.000 A 
ATOM      7  C   UNL     1       2.993   3.308  17.275  0.00  0.00    +0.000 A 
ATOM      8  C   UNL     1       2.478   3.655  18.582  0.00  0.00    +0.000 A 
ATOM      9  C   UNL     1       1.350   3.179  19.250  0.00  0.00    +0.000 A 
ATOM     10  C   UNL     1       0.426   2.147  18.673  0.00  0.00    +0.000 C 
ATOM     11  C   UNL     1       1.091   3.707  20.526  0.00  0.00    +0.000 A 
ATOM     12  C   UNL     1       1.937   4.674  21.102  0.00  0.00    +0.000 A 
ATOM     13  C   UNL     1       3.066   5.141  20.417  0.00  0.00    +0.000 A 
ATOM     14  C   UNL     1       3.314   4.616  19.161  0.00  0.00    +0.000 A 
ATOM     15  C   UNL     1       4.397   4.892  18.201  0.00  0.00    +0.000 A 
ATOM     16  N   UNL     1       5.368   5.728  18.379  0.00  0.00    +0.000 NA
ATOM     17  N   UNL     1       6.254   5.794  17.314  0.00  0.00    +0.000 N 
ENDROOT
BRANCH   1  18
ATOM     18  C   UNL     1       7.849   7.558  18.250  0.00  0.00    +0.000 C 
BRANCH  18  20
ATOM     19  C   UNL     1       8.870   9.848  18.492  0.00  0.00    +0.000 C 
ATOM     20  C   UNL     1       7.900   8.984  17.704  0.00  0.00    +0.000 C 
ENDBRANCH  18  20
ENDBRANCH   1  18
TORSDOF 2
ENDMDL
MODEL 3
REMARK VINA RESULT:      -7.5      5.750      7.865
REMARK  Name = 
REMARK  4 active torsions:
REMARK  status: ('A' for Active; 'I' for Inactive)
REMARK    1  A    between atoms: C_1  and  C_2
REMARK    2  A    between atoms: C_2  and  C_3
REMARK    3  A    between atoms: C_3  and  C_4
REMARK    4  A    between atoms: C_12  and  C_13
REMARK                            x       y       z     vdW  Elec       q    Type
REMARK                         _______ _______ _______ _____ _____    ______ ____
ROOT
ATOM      1  C   UNL     1       2.660   5.664  19.765  0.00  0.00    +0.000 A 
ATOM      2  N   UNL     1       3.274   5.430  18.620  0.00  0.00    +0.000 NA
ATOM      3  N   UNL     1       3.152   6.541  17.834  0.00  0.00    +0.000 NA
ATOM      4  C   UNL     1       2.467   7.428  18.514  0.00  0.00    +0.000 A 
ATOM      5  S   UNL     1       2.066   8.998  17.930  0.00  0.00    +0.000 S 
ATOM      6  C   UNL     1       1.214   9.555  19.277  0.00  0.00    +0.000 A 
ATOM      7  C   UNL     1       0.642  10.752  19.421  0.00  0.00    +0.000 A 
ATOM      8  C   UNL     1       0.014  10.825  20.724  0.00  0.00    +0.000 A 
ATOM      9  C   UNL     1      -0.699  11.869  21.311  0.00  0.00    +0.000 A 
ATOM     10  C   UNL     1      -0.952  13.180  20.626  0.00  0.00    +0.000 C 
ATOM     11  C   UNL     1      -1.197  11.655  22.607  0.00  0.00    +0.000 A 
ATOM     12  C   UNL     1      -0.983  10.438  23.280  0.00  0.00    +0.000 A 
ATOM     13  C   UNL     1      -0.264   9.399  22.675  0.00  0.00    +0.000 A 
ATOM     14  C   UNL     1       0.223   9.618  21.399  0.00  0.00    +0.000 A 
ATOM     15  C   UNL     1       1.003   8.744  20.505  0.00  0.00    +0.000 A 
ATOM     16  N   UNL     1       1.393   7.540  20.778  0.00  0.00    +0.000 NA
ATOM     17  N   UNL     1       2.112   6.939  19.757  0.00  0.00    +0.000 N 
ENDROOT
BRANCH   1  18
ATOM     18  C   UNL     1       2.578   4.694  20.887  0.00  0.00    +0.000 C 
BRANCH  18  20
ATOM     19  C   UNL     1       1.451   2.576  21.654  0.00  0.00    +0.000 C 
ATOM     20  C   UNL     1       1.343   3.803  20.764  0.00  0.00    +0.000 C 
ENDBRANCH  18  20
ENDBRANCH   1  18
TORSDOF 2
ENDMDL
MODEL 4
REMARK VINA RESULT:      -7.5      2.138      3.768
REMARK  Name = 
REMARK  4 active torsions:
REMARK  status: ('A' for Active; 'I' for Inactive)
REMARK    1  A    between atoms: C_1  and  C_2
REMARK    2  A    between atoms: C_2  and  C_3
REMARK    3  A    between atoms: C_3  and  C_4
REMARK    4  A    between atoms: C_12  and  C_13
REMARK                            x       y       z     vdW  Elec       q    Type
REMARK                         _______ _______ _______ _____ _____    ______ ____
ROOT
ATOM      1  C   UNL     1       7.070   6.709  16.742  0.00  0.00    +0.000 A 
ATOM      2  N   UNL     1       7.760   6.310  15.690  0.00  0.00    +0.000 NA
ATOM      3  N   UNL     1       7.173   5.180  15.196  0.00  0.00    +0.000 NA
ATOM      4  C   UNL     1       6.139   4.912  15.956  0.00  0.00    +0.000 A 
ATOM      5  S   UNL     1       5.081   3.575  15.717  0.00  0.00    +0.000 S 
ATOM      6  C   UNL     1       4.035   3.849  17.013  0.00  0.00    +0.000 A 
ATOM      7  C   UNL     1       2.973   3.115  17.352  0.00  0.00    +0.000 A 
ATOM      8  C   UNL     1       2.350   3.693  18.525  0.00  0.00    +0.000 A 
ATOM      9  C   UNL     1       1.226   3.273  19.233  0.00  0.00    +0.000 A 
ATOM     10  C   UNL     1       0.428   2.057  18.865  0.00  0.00    +0.000 C 
ATOM     11  C   UNL     1       0.845   4.043  20.345  0.00  0.00    +0.000 A 
ATOM     12  C   UNL     1       1.571   5.188  20.724  0.00  0.00    +0.000 A 
ATOM     13  C   UNL     1       2.699   5.596  20.000  0.00  0.00    +0.000 A 
ATOM     14  C   UNL     1       3.067   4.832  18.907  0.00  0.00    +0.000 A 
ATOM     15  C   UNL     1       4.182   4.989  17.956  0.00  0.00    +0.000 A 
ATOM     16  N   UNL     1       5.068   5.931  17.982  0.00  0.00    +0.000 NA
ATOM     17  N   UNL     1       6.011   5.843  16.970  0.00  0.00    +0.000 N 
ENDROOT
BRANCH   1  18
ATOM     18  C   UNL     1       7.395   7.911  17.551  0.00  0.00    +0.000 C 
BRANCH  18  20
ATOM     19  C   UNL     1       8.140   6.217  19.260  0.00  0.00    +0.000 C 
ATOM     20  C   UNL     1       8.402   7.586  18.653  0.00  0.00    +0.000 C 
ENDBRANCH  18  20
ENDBRANCH   1  18
TORSDOF 2
ENDMDL
MODEL 5
REMARK VINA RESULT:      -7.4      3.827      4.762
REMARK  Name = 
REMARK  4 active torsions:
REMARK  status: ('A' for Active; 'I' for Inactive)
REMARK    1  A    between atoms: C_1  and  C_2
REMARK    2  A    between atoms: C_2  and  C_3
REMARK    3  A    between atoms: C_3  and  C_4
REMARK    4  A    between atoms: C_12  and  C_13
REMARK                            x       y       z     vdW  Elec       q    Type
REMARK                         _______ _______ _______ _____ _____    ______ ____
ROOT
ATOM      1  C   UNL     1       4.842   4.868  16.695  0.00  0.00    +0.000 A 
ATOM      2  N   UNL     1       5.162   3.651  17.093  0.00  0.00    +0.000 NA
ATOM      3  N   UNL     1       4.567   3.425  18.301  0.00  0.00    +0.000 NA
ATOM      4  C   UNL     1       3.897   4.507  18.616  0.00  0.00    +0.000 A 
ATOM      5  S   UNL     1       2.974   4.692  20.058  0.00  0.00    +0.000 S 
ATOM      6  C   UNL     1       2.421   6.265  19.801  0.00  0.00    +0.000 A 
ATOM      7  C   UNL     1       1.630   6.976  20.608  0.00  0.00    +0.000 A 
ATOM      8  C   UNL     1       1.394   8.277  20.018  0.00  0.00    +0.000 A 
ATOM      9  C   UNL     1       0.639   9.347  20.496  0.00  0.00    +0.000 A 
ATOM     10  C   UNL     1      -0.100   9.315  21.801  0.00  0.00    +0.000 C 
ATOM     11  C   UNL     1       0.587  10.501  19.696  0.00  0.00    +0.000 A 
ATOM     12  C   UNL     1       1.270  10.570  18.467  0.00  0.00    +0.000 A 
ATOM     13  C   UNL     1       2.024   9.485  18.002  0.00  0.00    +0.000 A 
ATOM     14  C   UNL     1       2.070   8.352  18.795  0.00  0.00    +0.000 A 
ATOM     15  C   UNL     1       2.761   7.066  18.596  0.00  0.00    +0.000 A 
ATOM     16  N   UNL     1       3.493   6.754  17.575  0.00  0.00    +0.000 NA
ATOM     17  N   UNL     1       4.029   5.477  17.639  0.00  0.00    +0.000 N 
ENDROOT
BRANCH   1  18
ATOM     18  C   UNL     1       5.294   5.479  15.418  0.00  0.00    +0.000 C 
BRANCH  18  20
ATOM     19  C   UNL     1       6.086   3.912  13.612  0.00  0.00    +0.000 C 
ATOM     20  C   UNL     1       6.487   4.725  14.832  0.00  0.00    +0.000 C 
ENDBRANCH  18  20
ENDBRANCH   1  18
TORSDOF 2
ENDMDL
MODEL 6
REMARK VINA RESULT:      -7.3      3.923      5.211
REMARK  Name = 
REMARK  4 active torsions:
REMARK  status: ('A' for Active; 'I' for Inactive)
REMARK    1  A    between atoms: C_1  and  C_2
REMARK    2  A    between atoms: C_2  and  C_3
REMARK    3  A    between atoms: C_3  and  C_4
REMARK    4  A    between atoms: C_12  and  C_13
REMARK                            x       y       z     vdW  Elec       q    Type
REMARK                         _______ _______ _______ _____ _____    ______ ____
ROOT
ATOM      1  C   UNL     1       4.166   3.711  17.633  0.00  0.00    +0.000 A 
ATOM      2  N   UNL     1       4.243   2.566  18.285  0.00  0.00    +0.000 NA
ATOM      3  N   UNL     1       3.604   2.713  19.484  0.00  0.00    +0.000 NA
ATOM      4  C   UNL     1       3.151   3.942  19.538  0.00  0.00    +0.000 A 
ATOM      5  S   UNL     1       2.268   4.592  20.866  0.00  0.00    +0.000 S 
ATOM      6  C   UNL     1       2.029   6.152  20.267  0.00  0.00    +0.000 A 
ATOM      7  C   UNL     1       1.382   7.150  20.873  0.00  0.00    +0.000 A 
ATOM      8  C   UNL     1       1.406   8.319  20.020  0.00  0.00    +0.000 A 
ATOM      9  C   UNL     1       0.866   9.587  20.232  0.00  0.00    +0.000 A 
ATOM     10  C   UNL     1       0.123   9.967  21.479  0.00  0.00    +0.000 C 
ATOM     11  C   UNL     1       1.044  10.537  19.213  0.00  0.00    +0.000 A 
ATOM     12  C   UNL     1       1.738  10.220  18.030  0.00  0.00    +0.000 A 
ATOM     13  C   UNL     1       2.275   8.940  17.833  0.00  0.00    +0.000 A 
ATOM     14  C   UNL     1       2.095   8.010  18.842  0.00  0.00    +0.000 A 
ATOM     15  C   UNL     1       2.528   6.606  18.942  0.00  0.00    +0.000 A 
ATOM     16  N   UNL     1       3.196   5.956  18.044  0.00  0.00    +0.000 NA
ATOM     17  N   UNL     1       3.476   4.644  18.392  0.00  0.00    +0.000 N 
ENDROOT
BRANCH   1  18
ATOM     18  C   UNL     1       4.738   3.947  16.282  0.00  0.00    +0.000 C 
BRANCH  18  20
ATOM     19  C   UNL     1       6.816   4.527  14.982  0.00  0.00    +0.000 C 
ATOM     20  C   UNL     1       6.213   4.340  16.364  0.00  0.00    +0.000 C 
ENDBRANCH  18  20
ENDBRANCH   1  18
TORSDOF 2
ENDMDL
MODEL 7
REMARK VINA RESULT:      -7.1      1.841      6.343
REMARK  Name = 
REMARK  4 active torsions:
REMARK  status: ('A' for Active; 'I' for Inactive)
REMARK    1  A    between atoms: C_1  and  C_2
REMARK    2  A    between atoms: C_2  and  C_3
REMARK    3  A    between atoms: C_3  and  C_4
REMARK    4  A    between atoms: C_12  and  C_13
REMARK                            x       y       z     vdW  Elec       q    Type
REMARK                         _______ _______ _______ _____ _____    ______ ____
ROOT
ATOM      1  C   UNL     1       3.802   3.020  18.733  0.00  0.00    +0.000 A 
ATOM      2  N   UNL     1       4.059   3.426  19.963  0.00  0.00    +0.000 NA
ATOM      3  N   UNL     1       5.136   4.264  19.920  0.00  0.00    +0.000 NA
ATOM      4  C   UNL     1       5.515   4.352  18.668  0.00  0.00    +0.000 A 
ATOM      5  S   UNL     1       6.839   5.307  18.120  0.00  0.00    +0.000 S 
ATOM      6  C   UNL     1       6.742   4.947  16.474  0.00  0.00    +0.000 A 
ATOM      7  C   UNL     1       7.535   5.413  15.506  0.00  0.00    +0.000 A 
ATOM      8  C   UNL     1       7.112   4.858  14.237  0.00  0.00    +0.000 A 
ATOM      9  C   UNL     1       7.638   5.054  12.961  0.00  0.00    +0.000 A 
ATOM     10  C   UNL     1       8.821   5.935  12.685  0.00  0.00    +0.000 C 
ATOM     11  C   UNL     1       7.012   4.379  11.900  0.00  0.00    +0.000 A 
ATOM     12  C   UNL     1       5.903   3.541  12.120  0.00  0.00    +0.000 A 
ATOM     13  C   UNL     1       5.387   3.355  13.410  0.00  0.00    +0.000 A 
ATOM     14  C   UNL     1       6.009   4.024  14.449  0.00  0.00    +0.000 A 
ATOM     15  C   UNL     1       5.717   4.040  15.893  0.00  0.00    +0.000 A 
ATOM     16  N   UNL     1       4.764   3.388  16.477  0.00  0.00    +0.000 NA
ATOM     17  N   UNL     1       4.712   3.580  17.849  0.00  0.00    +0.000 N 
ENDROOT
BRANCH   1  18
ATOM     18  C   UNL     1       2.694   2.100  18.368  0.00  0.00    +0.000 C 
BRANCH  18  20
ATOM     19  C   UNL     1       1.327   4.122  17.747  0.00  0.00    +0.000 C 
ATOM     20  C   UNL     1       1.336   2.791  18.480  0.00  0.00    +0.000 C 
ENDBRANCH  18  20
ENDBRANCH   1  18
TORSDOF 2
ENDMDL
MODEL 8
REMARK VINA RESULT:      -7.0      1.805      6.264
REMARK  Name = 
REMARK  4 active torsions:
REMARK  status: ('A' for Active; 'I' for Inactive)
REMARK    1  A    between atoms: C_1  and  C_2
REMARK    2  A    between atoms: C_2  and  C_3
REMARK    3  A    between atoms: C_3  and  C_4
REMARK    4  A    between atoms: C_12  and  C_13
REMARK                            x       y       z     vdW  Elec       q    Type
REMARK                         _______ _______ _______ _____ _____    ______ ____
ROOT
ATOM      1  C   UNL     1       2.880   4.174  18.504  0.00  0.00    +0.000 A 
ATOM      2  N   UNL     1       3.008   4.764  19.678  0.00  0.00    +0.000 NA
ATOM      3  N   UNL     1       4.147   5.517  19.656  0.00  0.00    +0.000 NA
ATOM      4  C   UNL     1       4.691   5.372  18.472  0.00  0.00    +0.000 A 
ATOM      5  S   UNL     1       6.148   6.141  17.973  0.00  0.00    +0.000 S 
ATOM      6  C   UNL     1       6.236   5.517  16.407  0.00  0.00    +0.000 A 
ATOM      7  C   UNL     1       7.183   5.766  15.500  0.00  0.00    +0.000 A 
ATOM      8  C   UNL     1       6.885   5.033  14.288  0.00  0.00    +0.000 A 
ATOM      9  C   UNL     1       7.586   4.981  13.084  0.00  0.00    +0.000 A 
ATOM     10  C   UNL     1       8.863   5.731  12.842  0.00  0.00    +0.000 C 
ATOM     11  C   UNL     1       7.050   4.176  12.065  0.00  0.00    +0.000 A 
ATOM     12  C   UNL     1       5.856   3.454  12.256  0.00  0.00    +0.000 A 
ATOM     13  C   UNL     1       5.164   3.518  13.472  0.00  0.00    +0.000 A 
ATOM     14  C   UNL     1       5.700   4.313  14.470  0.00  0.00    +0.000 A 
ATOM     15  C   UNL     1       5.225   4.588  15.838  0.00  0.00    +0.000 A 
ATOM     16  N   UNL     1       4.154   4.101  16.377  0.00  0.00    +0.000 NA
ATOM     17  N   UNL     1       3.940   4.523  17.680  0.00  0.00    +0.000 N 
ENDROOT
BRANCH   1  18
ATOM     18  C   UNL     1       1.758   3.273  18.136  0.00  0.00    +0.000 C 
BRANCH  18  20
ATOM     19  C   UNL     1       3.330   1.363  18.613  0.00  0.00    +0.000 C 
ATOM     20  C   UNL     1       1.916   1.895  18.779  0.00  0.00    +0.000 C 
ENDBRANCH  18  20
ENDBRANCH   1  18
TORSDOF 2
ENDMDL
MODEL 9
REMARK VINA RESULT:      -7.0      5.199      7.913
REMARK  Name = 
REMARK  4 active torsions:
REMARK  status: ('A' for Active; 'I' for Inactive)
REMARK    1  A    between atoms: C_1  and  C_2
REMARK    2  A    between atoms: C_2  and  C_3
REMARK    3  A    between atoms: C_3  and  C_4
REMARK    4  A    between atoms: C_12  and  C_13
REMARK                            x       y       z     vdW  Elec       q    Type
REMARK                         _______ _______ _______ _____ _____    ______ ____
ROOT
ATOM      1  C   UNL     1       0.789   9.876  21.248  0.00  0.00    +0.000 A 
ATOM      2  N   UNL     1       0.741  10.970  20.510  0.00  0.00    +0.000 NA
ATOM      3  N   UNL     1       1.201  10.664  19.261  0.00  0.00    +0.000 NA
ATOM      4  C   UNL     1       1.520   9.393  19.261  0.00  0.00    +0.000 A 
ATOM      5  S   UNL     1       2.144   8.549  17.896  0.00  0.00    +0.000 S 
ATOM      6  C   UNL     1       2.318   7.026  18.602  0.00  0.00    +0.000 A 
ATOM      7  C   UNL     1       2.773   5.919  18.011  0.00  0.00    +0.000 A 
ATOM      8  C   UNL     1       2.764   4.831  18.967  0.00  0.00    +0.000 A 
ATOM      9  C   UNL     1       3.151   3.502  18.806  0.00  0.00    +0.000 A 
ATOM     10  C   UNL     1       3.684   2.950  17.517  0.00  0.00    +0.000 C 
ATOM     11  C   UNL     1       3.026   2.659  19.924  0.00  0.00    +0.000 A 
ATOM     12  C   UNL     1       2.533   3.141  21.151  0.00  0.00    +0.000 A 
ATOM     13  C   UNL     1       2.149   4.481  21.295  0.00  0.00    +0.000 A 
ATOM     14  C   UNL     1       2.274   5.304  20.190  0.00  0.00    +0.000 A 
ATOM     15  C   UNL     1       1.964   6.734  20.016  0.00  0.00    +0.000 A 
ATOM     16  N   UNL     1       1.489   7.519  20.928  0.00  0.00    +0.000 NA
ATOM     17  N   UNL     1       1.289   8.821  20.499  0.00  0.00    +0.000 N 
ENDROOT
BRANCH   1  18
ATOM     18  C   UNL     1       0.365   9.804  22.669  0.00  0.00    +0.000 C 
BRANCH  18  20
ATOM     19  C   UNL     1      -1.136  11.804  22.981  0.00  0.00    +0.000 C 
ATOM     20  C   UNL     1      -1.073  10.291  22.846  0.00  0.00    +0.000 C 
ENDBRANCH  18  20
ENDBRANCH   1  18
TORSDOF 2
ENDMDL
