MODEL 1
REMARK VINA RESULT:      -8.2      0.000      0.000
REMARK  Name = 
REMARK  11 active torsions:
REMARK  status: ('A' for Active; 'I' for Inactive)
REMARK    1  A    between atoms: C_1  and  C_2
REMARK    2  A    between atoms: C_2  and  C_3
REMARK    3  A    between atoms: C_2  and  C_4
REMARK    4  A    between atoms: C_2  and  O_5
REMARK    5  A    between atoms: O_5  and  C_6
REMARK    6  A    between atoms: N_8  and  C_9
REMARK    7  A    between atoms: C_9  and  C_10
REMARK    8  A    between atoms: C_15  and  C_17
REMARK    9  A    between atoms: N_22  and  C_23
REMARK   10  A    between atoms: C_23  and  C_24
REMARK   11  A    between atoms: C_28  and  C_29
REMARK                            x       y       z     vdW  Elec       q    Type
REMARK                         _______ _______ _______ _____ _____    ______ ____
ROOT
ATOM      1  C   UNL     1       0.933   8.907  20.104  0.00  0.00    +0.000 C 
ATOM      2  C   UNL     1       1.385   9.522  18.765  0.00  0.00    +0.000 C 
ATOM      3  C   UNL     1       1.847   8.458  17.767  0.00  0.00    +0.000 C 
ATOM      4  C   UNL     1       2.900   7.558  18.396  0.00  0.00    +0.000 C 
ATOM      5  N   UNL     1       2.338   6.929  19.579  0.00  0.00    +0.000 N 
ATOM      6  C   UNL     1       2.104   5.570  19.755  0.00  0.00    +0.000 C 
ATOM      7  O   UNL     1       1.560   5.137  20.774  0.00  0.00    +0.000 OA
ATOM      8  C   UNL     1       1.953   7.879  20.635  0.00  0.00    +0.000 C 
ENDROOT
BRANCH   6   9
ATOM      9  C   UNL     1       2.488   4.602  18.605  0.00  0.00    +0.000 C 
ATOM     10  C   UNL     1       1.310   3.680  18.290  0.00  0.00    +0.000 C 
ATOM     11  C   UNL     1       1.941   2.332  17.967  0.00  0.00    +0.000 C 
ATOM     12  C   UNL     1       3.251   2.366  18.706  0.00  0.00    +0.000 C 
ATOM     13  O   UNL     1       3.955   1.393  18.926  0.00  0.00    +0.000 OA
ATOM     14  N   UNL     1       3.553   3.687  18.973  0.00  0.00    +0.000 N 
BRANCH  14  15
ATOM     15  C   UNL     1       4.841   4.151  19.459  0.00  0.00    +0.000 C 
BRANCH  15  16
ATOM     16  C   UNL     1       5.755   4.687  18.373  0.00  0.00    +0.000 A 
ATOM     17  C   UNL     1       6.556   5.816  18.607  0.00  0.00    +0.000 A 
ATOM     18  C   UNL     1       7.267   6.419  17.566  0.00  0.00    +0.000 A 
ATOM     19  C   UNL     1       7.190   5.900  16.273  0.00  0.00    +0.000 A 
ATOM     20  C   UNL     1       6.431   4.754  16.026  0.00  0.00    +0.000 A 
ATOM     21  C   UNL     1       5.725   4.145  17.076  0.00  0.00    +0.000 A 
BRANCH  20  22
ATOM     22  C   UNL     1       6.347   4.220  14.693  0.00  0.00    +0.000 C 
ATOM     23  N   UNL     1       6.275   3.793  13.615  0.00  0.00    +0.000 NA
ENDBRANCH  20  22
ENDBRANCH  15  16
ENDBRANCH  14  15
ENDBRANCH   6   9
BRANCH   1  24
ATOM     24  C   UNL     1       0.570  10.006  21.128  0.00  0.00    +0.000 C 
BRANCH  24  27
ATOM     25  C   UNL     1       0.296  12.419  20.797  0.00  0.00    +0.000 C 
ATOM     26  O   UNL     1      -0.903  12.373  21.050  0.00  0.00    +0.000 OA
ATOM     27  N   UNL     1       1.100  11.322  20.821  0.00  0.00    +0.000 N 
ATOM     28  H   UNL     1       2.053  11.443  20.501  0.00  0.00    +0.000 HD
BRANCH  25  29
ATOM     29  O   UNL     1       1.001  13.538  20.487  0.00  0.00    +0.000 OA
BRANCH  29  31
ATOM     30  C   UNL     1      -0.204  13.656  18.339  0.00  0.00    +0.000 C 
ATOM     31  C   UNL     1       1.118  13.901  19.084  0.00  0.00    +0.000 C 
ATOM     32  C   UNL     1       2.292  13.155  18.433  0.00  0.00    +0.000 C 
ATOM     33  C   UNL     1       1.404  15.411  19.030  0.00  0.00    +0.000 C 
ENDBRANCH  29  31
ENDBRANCH  25  29
ENDBRANCH  24  27
ENDBRANCH   1  24
TORSDOF 8
ENDMDL
MODEL 2
REMARK VINA RESULT:      -8.2      1.446      2.147
REMARK  Name = 
REMARK  11 active torsions:
REMARK  status: ('A' for Active; 'I' for Inactive)
REMARK    1  A    between atoms: C_1  and  C_2
REMARK    2  A    between atoms: C_2  and  C_3
REMARK    3  A    between atoms: C_2  and  C_4
REMARK    4  A    between atoms: C_2  and  O_5
REMARK    5  A    between atoms: O_5  and  C_6
REMARK    6  A    between atoms: N_8  and  C_9
REMARK    7  A    between atoms: C_9  and  C_10
REMARK    8  A    between atoms: C_15  and  C_17
REMARK    9  A    between atoms: N_22  and  C_23
REMARK   10  A    between atoms: C_23  and  C_24
REMARK   11  A    between atoms: C_28  and  C_29
REMARK                            x       y       z     vdW  Elec       q    Type
REMARK                         _______ _______ _______ _____ _____    ______ ____
ROOT
ATOM      1  C   UNL     1       0.908   8.788  20.293  0.00  0.00    +0.000 C 
ATOM      2  C   UNL     1       1.320   9.454  18.965  0.00  0.00    +0.000 C 
ATOM      3  C   UNL     1       1.769   8.431  17.920  0.00  0.00    +0.000 C 
ATOM      4  C   UNL     1       2.849   7.523  18.492  0.00  0.00    +0.000 C 
ATOM      5  N   UNL     1       2.323   6.847  19.666  0.00  0.00    +0.000 N 
ATOM      6  C   UNL     1       2.109   5.480  19.800  0.00  0.00    +0.000 C 
ATOM      7  O   UNL     1       1.596   5.006  20.818  0.00  0.00    +0.000 OA
ATOM      8  C   UNL     1       1.953   7.756  20.763  0.00  0.00    +0.000 C 
ENDROOT
BRANCH   6   9
ATOM      9  C   UNL     1       2.475   4.557  18.609  0.00  0.00    +0.000 C 
ATOM     10  C   UNL     1       1.277   3.681  18.246  0.00  0.00    +0.000 C 
ATOM     11  C   UNL     1       1.875   2.334  17.864  0.00  0.00    +0.000 C 
ATOM     12  C   UNL     1       3.181   2.300  18.611  0.00  0.00    +0.000 C 
ATOM     13  O   UNL     1       3.859   1.300  18.789  0.00  0.00    +0.000 OA
ATOM     14  N   UNL     1       3.515   3.598  18.940  0.00  0.00    +0.000 N 
BRANCH  14  15
ATOM     15  C   UNL     1       4.811   4.007  19.453  0.00  0.00    +0.000 C 
BRANCH  15  16
ATOM     16  C   UNL     1       5.735   4.595  18.403  0.00  0.00    +0.000 A 
ATOM     17  C   UNL     1       6.539   5.707  18.701  0.00  0.00    +0.000 A 
ATOM     18  C   UNL     1       7.260   6.359  17.697  0.00  0.00    +0.000 A 
ATOM     19  C   UNL     1       7.190   5.909  16.379  0.00  0.00    +0.000 A 
ATOM     20  C   UNL     1       6.428   4.780  16.068  0.00  0.00    +0.000 A 
ATOM     21  C   UNL     1       5.713   4.120  17.079  0.00  0.00    +0.000 A 
BRANCH  20  22
ATOM     22  C   UNL     1       6.352   4.316  14.708  0.00  0.00    +0.000 C 
ATOM     23  N   UNL     1       6.285   3.941  13.610  0.00  0.00    +0.000 NA
ENDBRANCH  20  22
ENDBRANCH  15  16
ENDBRANCH  14  15
ENDBRANCH   6   9
BRANCH   1  24
ATOM     24  C   UNL     1       0.559   9.848  21.363  0.00  0.00    +0.000 C 
BRANCH  24  27
ATOM     25  C   UNL     1      -0.550  12.033  21.316  0.00  0.00    +0.000 C 
ATOM     26  O   UNL     1       0.403  12.590  21.849  0.00  0.00    +0.000 OA
ATOM     27  N   UNL     1      -0.564  10.704  21.027  0.00  0.00    +0.000 N 
ATOM     28  H   UNL     1      -1.433  10.318  20.679  0.00  0.00    +0.000 HD
BRANCH  25  29
ATOM     29  O   UNL     1      -1.701  12.635  20.915  0.00  0.00    +0.000 OA
BRANCH  29  31
ATOM     30  C   UNL     1      -2.526  12.014  23.153  0.00  0.00    +0.000 C 
ATOM     31  C   UNL     1      -2.706  12.921  21.926  0.00  0.00    +0.000 C 
ATOM     32  C   UNL     1      -4.116  12.807  21.328  0.00  0.00    +0.000 C 
ATOM     33  C   UNL     1      -2.483  14.371  22.387  0.00  0.00    +0.000 C 
ENDBRANCH  29  31
ENDBRANCH  25  29
ENDBRANCH  24  27
ENDBRANCH   1  24
TORSDOF 8
ENDMDL
MODEL 3
REMARK VINA RESULT:      -8.1      1.369      1.825
REMARK  Name = 
REMARK  11 active torsions:
REMARK  status: ('A' for Active; 'I' for Inactive)
REMARK    1  A    between atoms: C_1  and  C_2
REMARK    2  A    between atoms: C_2  and  C_3
REMARK    3  A    between atoms: C_2  and  C_4
REMARK    4  A    between atoms: C_2  and  O_5
REMARK    5  A    between atoms: O_5  and  C_6
REMARK    6  A    between atoms: N_8  and  C_9
REMARK    7  A    between atoms: C_9  and  C_10
REMARK    8  A    between atoms: C_15  and  C_17
REMARK    9  A    between atoms: N_22  and  C_23
REMARK   10  A    between atoms: C_23  and  C_24
REMARK   11  A    between atoms: C_28  and  C_29
REMARK                            x       y       z     vdW  Elec       q    Type
REMARK                         _______ _______ _______ _____ _____    ______ ____
ROOT
ATOM      1  C   UNL     1       1.034   8.759  20.279  0.00  0.00    +0.000 C 
ATOM      2  C   UNL     1       1.398   9.402  18.926  0.00  0.00    +0.000 C 
ATOM      3  C   UNL     1       1.786   8.359  17.876  0.00  0.00    +0.000 C 
ATOM      4  C   UNL     1       2.875   7.441  18.412  0.00  0.00    +0.000 C 
ATOM      5  N   UNL     1       2.390   6.788  19.617  0.00  0.00    +0.000 N 
ATOM      6  C   UNL     1       2.162   5.426  19.778  0.00  0.00    +0.000 C 
ATOM      7  O   UNL     1       1.686   4.973  20.823  0.00  0.00    +0.000 OA
ATOM      8  C   UNL     1       2.083   7.716  20.717  0.00  0.00    +0.000 C 
ENDROOT
BRANCH   6   9
ATOM      9  C   UNL     1       2.462   4.483  18.584  0.00  0.00    +0.000 C 
ATOM     10  C   UNL     1       1.244   3.603  18.301  0.00  0.00    +0.000 C 
ATOM     11  C   UNL     1       1.819   2.249  17.910  0.00  0.00    +0.000 C 
ATOM     12  C   UNL     1       3.164   2.224  18.585  0.00  0.00    +0.000 C 
ATOM     13  O   UNL     1       3.849   1.226  18.743  0.00  0.00    +0.000 OA
ATOM     14  N   UNL     1       3.517   3.527  18.875  0.00  0.00    +0.000 N 
BRANCH  14  15
ATOM     15  C   UNL     1       4.839   3.941  19.310  0.00  0.00    +0.000 C 
BRANCH  15  16
ATOM     16  C   UNL     1       5.695   4.538  18.208  0.00  0.00    +0.000 A 
ATOM     17  C   UNL     1       6.448   5.700  18.438  0.00  0.00    +0.000 A 
ATOM     18  C   UNL     1       7.099   6.352  17.387  0.00  0.00    +0.000 A 
ATOM     19  C   UNL     1       7.009   5.851  16.089  0.00  0.00    +0.000 A 
ATOM     20  C   UNL     1       6.298   4.673  15.844  0.00  0.00    +0.000 A 
ATOM     21  C   UNL     1       5.653   4.015  16.903  0.00  0.00    +0.000 A 
BRANCH  20  22
ATOM     22  C   UNL     1       6.201   4.157  14.505  0.00  0.00    +0.000 C 
ATOM     23  N   UNL     1       6.121   3.745  13.421  0.00  0.00    +0.000 NA
ENDBRANCH  20  22
ENDBRANCH  15  16
ENDBRANCH  14  15
ENDBRANCH   6   9
BRANCH   1  24
ATOM     24  C   UNL     1       0.748   9.836  21.349  0.00  0.00    +0.000 C 
BRANCH  24  27
ATOM     25  C   UNL     1      -0.795  11.715  21.660  0.00  0.00    +0.000 C 
ATOM     26  O   UNL     1       0.098  12.453  22.064  0.00  0.00    +0.000 OA
ATOM     27  N   UNL     1      -0.575  10.429  21.277  0.00  0.00    +0.000 N 
ATOM     28  H   UNL     1      -1.389   9.870  21.054  0.00  0.00    +0.000 HD
BRANCH  25  29
ATOM     29  O   UNL     1      -2.102  12.057  21.510  0.00  0.00    +0.000 OA
BRANCH  29  31
ATOM     30  C   UNL     1      -1.678  12.511  19.125  0.00  0.00    +0.000 C 
ATOM     31  C   UNL     1      -2.457  12.910  20.388  0.00  0.00    +0.000 C 
ATOM     32  C   UNL     1      -2.248  14.388  20.750  0.00  0.00    +0.000 C 
ATOM     33  C   UNL     1      -3.950  12.680  20.100  0.00  0.00    +0.000 C 
ENDBRANCH  29  31
ENDBRANCH  25  29
ENDBRANCH  24  27
ENDBRANCH   1  24
TORSDOF 8
ENDMDL
MODEL 4
REMARK VINA RESULT:      -8.1      1.229      1.944
REMARK  Name = 
REMARK  11 active torsions:
REMARK  status: ('A' for Active; 'I' for Inactive)
REMARK    1  A    between atoms: C_1  and  C_2
REMARK    2  A    between atoms: C_2  and  C_3
REMARK    3  A    between atoms: C_2  and  C_4
REMARK    4  A    between atoms: C_2  and  O_5
REMARK    5  A    between atoms: O_5  and  C_6
REMARK    6  A    between atoms: N_8  and  C_9
REMARK    7  A    between atoms: C_9  and  C_10
REMARK    8  A    between atoms: C_15  and  C_17
REMARK    9  A    between atoms: N_22  and  C_23
REMARK   10  A    between atoms: C_23  and  C_24
REMARK   11  A    between atoms: C_28  and  C_29
REMARK                            x       y       z     vdW  Elec       q    Type
REMARK                         _______ _______ _______ _____ _____    ______ ____
ROOT
ATOM      1  C   UNL     1       0.932   8.823  20.191  0.00  0.00    +0.000 C 
ATOM      2  C   UNL     1       1.328   9.443  18.836  0.00  0.00    +0.000 C 
ATOM      3  C   UNL     1       1.735   8.382  17.812  0.00  0.00    +0.000 C 
ATOM      4  C   UNL     1       2.809   7.468  18.387  0.00  0.00    +0.000 C 
ATOM      5  N   UNL     1       2.295   6.837  19.591  0.00  0.00    +0.000 N 
ATOM      6  C   UNL     1       2.058   5.479  19.769  0.00  0.00    +0.000 C 
ATOM      7  O   UNL     1       1.557   5.044  20.810  0.00  0.00    +0.000 OA
ATOM      8  C   UNL     1       1.967   7.783  20.669  0.00  0.00    +0.000 C 
ENDROOT
BRANCH   6   9
ATOM      9  C   UNL     1       2.380   4.515  18.597  0.00  0.00    +0.000 C 
ATOM     10  C   UNL     1       1.203   3.568  18.367  0.00  0.00    +0.000 C 
ATOM     11  C   UNL     1       1.838   2.232  18.004  0.00  0.00    +0.000 C 
ATOM     12  C   UNL     1       3.195   2.295  18.650  0.00  0.00    +0.000 C 
ATOM     13  O   UNL     1       3.933   1.338  18.822  0.00  0.00    +0.000 OA
ATOM     14  N   UNL     1       3.488   3.623  18.893  0.00  0.00    +0.000 N 
BRANCH  14  15
ATOM     15  C   UNL     1       4.796   4.115  19.286  0.00  0.00    +0.000 C 
BRANCH  15  16
ATOM     16  C   UNL     1       5.558   4.809  18.172  0.00  0.00    +0.000 A 
ATOM     17  C   UNL     1       5.768   4.165  16.942  0.00  0.00    +0.000 A 
ATOM     18  C   UNL     1       6.610   4.722  15.976  0.00  0.00    +0.000 A 
ATOM     19  C   UNL     1       7.256   5.933  16.224  0.00  0.00    +0.000 A 
ATOM     20  C   UNL     1       7.030   6.610  17.425  0.00  0.00    +0.000 A 
ATOM     21  C   UNL     1       6.175   6.054  18.390  0.00  0.00    +0.000 A 
BRANCH  20  22
ATOM     22  C   UNL     1       7.698   7.857  17.684  0.00  0.00    +0.000 C 
ATOM     23  N   UNL     1       8.241   8.862  17.898  0.00  0.00    +0.000 NA
ENDBRANCH  20  22
ENDBRANCH  15  16
ENDBRANCH  14  15
ENDBRANCH   6   9
BRANCH   1  24
ATOM     24  C   UNL     1       0.627   9.919  21.237  0.00  0.00    +0.000 C 
BRANCH  24  27
ATOM     25  C   UNL     1       0.039  12.261  20.819  0.00  0.00    +0.000 C 
ATOM     26  O   UNL     1      -1.121  12.093  21.180  0.00  0.00    +0.000 OA
ATOM     27  N   UNL     1       0.968  11.267  20.823  0.00  0.00    +0.000 N 
ATOM     28  H   UNL     1       1.870  11.479  20.414  0.00  0.00    +0.000 HD
BRANCH  25  29
ATOM     29  O   UNL     1       0.577  13.435  20.396  0.00  0.00    +0.000 OA
BRANCH  29  31
ATOM     30  C   UNL     1       1.818  13.423  18.266  0.00  0.00    +0.000 C 
ATOM     31  C   UNL     1       0.496  13.748  18.978  0.00  0.00    +0.000 C 
ATOM     32  C   UNL     1       0.078  15.212  18.775  0.00  0.00    +0.000 C 
ATOM     33  C   UNL     1      -0.588  12.839  18.377  0.00  0.00    +0.000 C 
ENDBRANCH  29  31
ENDBRANCH  25  29
ENDBRANCH  24  27
ENDBRANCH   1  24
TORSDOF 8
ENDMDL
MODEL 5
REMARK VINA RESULT:      -8.1      1.880      2.791
REMARK  Name = 
REMARK  11 active torsions:
REMARK  status: ('A' for Active; 'I' for Inactive)
REMARK    1  A    between atoms: C_1  and  C_2
REMARK    2  A    between atoms: C_2  and  C_3
REMARK    3  A    between atoms: C_2  and  C_4
REMARK    4  A    between atoms: C_2  and  O_5
REMARK    5  A    between atoms: O_5  and  C_6
REMARK    6  A    between atoms: N_8  and  C_9
REMARK    7  A    between atoms: C_9  and  C_10
REMARK    8  A    between atoms: C_15  and  C_17
REMARK    9  A    between atoms: N_22  and  C_23
REMARK   10  A    between atoms: C_23  and  C_24
REMARK   11  A    between atoms: C_28  and  C_29
REMARK                            x       y       z     vdW  Elec       q    Type
REMARK                         _______ _______ _______ _____ _____    ______ ____
ROOT
ATOM      1  C   UNL     1       0.994   8.873  20.071  0.00  0.00    +0.000 C 
ATOM      2  C   UNL     1       1.398   9.460  18.704  0.00  0.00    +0.000 C 
ATOM      3  C   UNL     1       1.791   8.373  17.701  0.00  0.00    +0.000 C 
ATOM      4  C   UNL     1       2.853   7.458  18.295  0.00  0.00    +0.000 C 
ATOM      5  N   UNL     1       2.332   6.858  19.511  0.00  0.00    +0.000 N 
ATOM      6  C   UNL     1       2.077   5.507  19.717  0.00  0.00    +0.000 C 
ATOM      7  O   UNL     1       1.571   5.100  20.766  0.00  0.00    +0.000 OA
ATOM      8  C   UNL     1       2.015   7.830  20.570  0.00  0.00    +0.000 C 
ENDROOT
BRANCH   6   9
ATOM      9  C   UNL     1       2.387   4.516  18.565  0.00  0.00    +0.000 C 
ATOM     10  C   UNL     1       1.196   3.582  18.350  0.00  0.00    +0.000 C 
ATOM     11  C   UNL     1       1.811   2.230  18.014  0.00  0.00    +0.000 C 
ATOM     12  C   UNL     1       3.168   2.285  18.663  0.00  0.00    +0.000 C 
ATOM     13  O   UNL     1       3.890   1.320  18.856  0.00  0.00    +0.000 OA
ATOM     14  N   UNL     1       3.480   3.612  18.880  0.00  0.00    +0.000 N 
BRANCH  14  15
ATOM     15  C   UNL     1       4.795   4.092  19.268  0.00  0.00    +0.000 C 
BRANCH  15  16
ATOM     16  C   UNL     1       5.556   4.783  18.151  0.00  0.00    +0.000 A 
ATOM     17  C   UNL     1       5.769   4.134  16.924  0.00  0.00    +0.000 A 
ATOM     18  C   UNL     1       6.611   4.689  15.957  0.00  0.00    +0.000 A 
ATOM     19  C   UNL     1       7.253   5.903  16.200  0.00  0.00    +0.000 A 
ATOM     20  C   UNL     1       7.024   6.585  17.398  0.00  0.00    +0.000 A 
ATOM     21  C   UNL     1       6.169   6.030  18.364  0.00  0.00    +0.000 A 
BRANCH  20  22
ATOM     22  C   UNL     1       7.688   7.835  17.652  0.00  0.00    +0.000 C 
ATOM     23  N   UNL     1       8.226   8.845  17.853  0.00  0.00    +0.000 NA
ENDBRANCH  20  22
ENDBRANCH  15  16
ENDBRANCH  14  15
ENDBRANCH   6   9
BRANCH   1  24
ATOM     24  C   UNL     1       0.702   9.994  21.094  0.00  0.00    +0.000 C 
BRANCH  24  27
ATOM     25  C   UNL     1      -0.686  12.001  21.317  0.00  0.00    +0.000 C 
ATOM     26  O   UNL     1       0.185  12.602  21.937  0.00  0.00    +0.000 OA
ATOM     27  N   UNL     1      -0.524  10.732  20.855  0.00  0.00    +0.000 N 
ATOM     28  H   UNL     1      -1.334  10.286  20.442  0.00  0.00    +0.000 HD
BRANCH  25  29
ATOM     29  O   UNL     1      -1.906  12.495  20.979  0.00  0.00    +0.000 OA
BRANCH  29  31
ATOM     30  C   UNL     1      -4.260  12.805  21.639  0.00  0.00    +0.000 C 
ATOM     31  C   UNL     1      -2.786  12.927  22.052  0.00  0.00    +0.000 C 
ATOM     32  C   UNL     1      -2.429  14.354  22.497  0.00  0.00    +0.000 C 
ATOM     33  C   UNL     1      -2.558  11.972  23.236  0.00  0.00    +0.000 C 
ENDBRANCH  29  31
ENDBRANCH  25  29
ENDBRANCH  24  27
ENDBRANCH   1  24
TORSDOF 8
ENDMDL
MODEL 6
REMARK VINA RESULT:      -8.0      0.599      1.037
REMARK  Name = 
REMARK  11 active torsions:
REMARK  status: ('A' for Active; 'I' for Inactive)
REMARK    1  A    between atoms: C_1  and  C_2
REMARK    2  A    between atoms: C_2  and  C_3
REMARK    3  A    between atoms: C_2  and  C_4
REMARK    4  A    between atoms: C_2  and  O_5
REMARK    5  A    between atoms: O_5  and  C_6
REMARK    6  A    between atoms: N_8  and  C_9
REMARK    7  A    between atoms: C_9  and  C_10
REMARK    8  A    between atoms: C_15  and  C_17
REMARK    9  A    between atoms: N_22  and  C_23
REMARK   10  A    between atoms: C_23  and  C_24
REMARK   11  A    between atoms: C_28  and  C_29
REMARK                            x       y       z     vdW  Elec       q    Type
REMARK                         _______ _______ _______ _____ _____    ______ ____
ROOT
ATOM      1  C   UNL     1       0.972   9.001  19.814  0.00  0.00    +0.000 C 
ATOM      2  C   UNL     1       1.504   9.550  18.475  0.00  0.00    +0.000 C 
ATOM      3  C   UNL     1       1.978   8.436  17.541  0.00  0.00    +0.000 C 
ATOM      4  C   UNL     1       2.974   7.530  18.252  0.00  0.00    +0.000 C 
ATOM      5  N   UNL     1       2.338   6.964  19.430  0.00  0.00    +0.000 N 
ATOM      6  C   UNL     1       2.055   5.620  19.645  0.00  0.00    +0.000 C 
ATOM      7  O   UNL     1       1.451   5.244  20.654  0.00  0.00    +0.000 OA
ATOM      8  C   UNL     1       1.935   7.966  20.430  0.00  0.00    +0.000 C 
ENDROOT
BRANCH   6   9
ATOM      9  C   UNL     1       2.461   4.598  18.551  0.00  0.00    +0.000 C 
ATOM     10  C   UNL     1       1.295   3.651  18.270  0.00  0.00    +0.000 C 
ATOM     11  C   UNL     1       1.940   2.294  18.025  0.00  0.00    +0.000 C 
ATOM     12  C   UNL     1       3.241   2.377  18.778  0.00  0.00    +0.000 C 
ATOM     13  O   UNL     1       3.950   1.423  19.057  0.00  0.00    +0.000 OA
ATOM     14  N   UNL     1       3.529   3.712  18.980  0.00  0.00    +0.000 N 
BRANCH  14  15
ATOM     15  C   UNL     1       4.807   4.212  19.457  0.00  0.00    +0.000 C 
BRANCH  15  16
ATOM     16  C   UNL     1       5.726   4.711  18.357  0.00  0.00    +0.000 A 
ATOM     17  C   UNL     1       6.582   5.801  18.581  0.00  0.00    +0.000 A 
ATOM     18  C   UNL     1       7.301   6.375  17.530  0.00  0.00    +0.000 A 
ATOM     19  C   UNL     1       7.178   5.867  16.237  0.00  0.00    +0.000 A 
ATOM     20  C   UNL     1       6.363   4.758  15.999  0.00  0.00    +0.000 A 
ATOM     21  C   UNL     1       5.648   4.177  17.059  0.00  0.00    +0.000 A 
BRANCH  20  22
ATOM     22  C   UNL     1       6.231   4.235  14.666  0.00  0.00    +0.000 C 
ATOM     23  N   UNL     1       6.130   3.814  13.587  0.00  0.00    +0.000 NA
ENDBRANCH  20  22
ENDBRANCH  15  16
ENDBRANCH  14  15
ENDBRANCH   6   9
BRANCH   1  24
ATOM     24  C   UNL     1       0.597  10.149  20.777  0.00  0.00    +0.000 C 
BRANCH  24  27
ATOM     25  C   UNL     1       0.751  12.576  21.081  0.00  0.00    +0.000 C 
ATOM     26  O   UNL     1       0.034  12.554  22.075  0.00  0.00    +0.000 OA
ATOM     27  N   UNL     1       1.091  11.457  20.387  0.00  0.00    +0.000 N 
ATOM     28  H   UNL     1       1.605  11.589  19.524  0.00  0.00    +0.000 HD
BRANCH  25  29
ATOM     29  O   UNL     1       1.324  13.683  20.539  0.00  0.00    +0.000 OA
BRANCH  29  31
ATOM     30  C   UNL     1       1.303  15.435  18.806  0.00  0.00    +0.000 C 
ATOM     31  C   UNL     1       0.474  14.590  19.786  0.00  0.00    +0.000 C 
ATOM     32  C   UNL     1      -0.356  15.463  20.739  0.00  0.00    +0.000 C 
ATOM     33  C   UNL     1      -0.483  13.724  18.952  0.00  0.00    +0.000 C 
ENDBRANCH  29  31
ENDBRANCH  25  29
ENDBRANCH  24  27
ENDBRANCH   1  24
TORSDOF 8
ENDMDL
MODEL 7
REMARK VINA RESULT:      -8.0      1.891      2.626
REMARK  Name = 
REMARK  11 active torsions:
REMARK  status: ('A' for Active; 'I' for Inactive)
REMARK    1  A    between atoms: C_1  and  C_2
REMARK    2  A    between atoms: C_2  and  C_3
REMARK    3  A    between atoms: C_2  and  C_4
REMARK    4  A    between atoms: C_2  and  O_5
REMARK    5  A    between atoms: O_5  and  C_6
REMARK    6  A    between atoms: N_8  and  C_9
REMARK    7  A    between atoms: C_9  and  C_10
REMARK    8  A    between atoms: C_15  and  C_17
REMARK    9  A    between atoms: N_22  and  C_23
REMARK   10  A    between atoms: C_23  and  C_24
REMARK   11  A    between atoms: C_28  and  C_29
REMARK                            x       y       z     vdW  Elec       q    Type
REMARK                         _______ _______ _______ _____ _____    ______ ____
ROOT
ATOM      1  C   UNL     1       1.104   8.704  20.349  0.00  0.00    +0.000 C 
ATOM      2  C   UNL     1       1.409   9.331  18.974  0.00  0.00    +0.000 C 
ATOM      3  C   UNL     1       1.731   8.275  17.915  0.00  0.00    +0.000 C 
ATOM      4  C   UNL     1       2.834   7.347  18.406  0.00  0.00    +0.000 C 
ATOM      5  N   UNL     1       2.401   6.710  19.638  0.00  0.00    +0.000 N 
ATOM      6  C   UNL     1       2.164   5.353  19.822  0.00  0.00    +0.000 C 
ATOM      7  O   UNL     1       1.734   4.915  20.893  0.00  0.00    +0.000 OA
ATOM      8  C   UNL     1       2.160   7.651  20.744  0.00  0.00    +0.000 C 
ENDROOT
BRANCH   6   9
ATOM      9  C   UNL     1       2.392   4.396  18.623  0.00  0.00    +0.000 C 
ATOM     10  C   UNL     1       1.178   3.486  18.448  0.00  0.00    +0.000 C 
ATOM     11  C   UNL     1       1.752   2.137  18.035  0.00  0.00    +0.000 C 
ATOM     12  C   UNL     1       3.145   2.154  18.605  0.00  0.00    +0.000 C 
ATOM     13  O   UNL     1       3.863   1.174  18.725  0.00  0.00    +0.000 OA
ATOM     14  N   UNL     1       3.489   3.469  18.846  0.00  0.00    +0.000 N 
BRANCH  14  15
ATOM     15  C   UNL     1       4.831   3.919  19.171  0.00  0.00    +0.000 C 
BRANCH  15  16
ATOM     16  C   UNL     1       5.508   4.700  18.060  0.00  0.00    +0.000 A 
ATOM     17  C   UNL     1       5.600   4.165  16.765  0.00  0.00    +0.000 A 
ATOM     18  C   UNL     1       6.369   4.794  15.783  0.00  0.00    +0.000 A 
ATOM     19  C   UNL     1       7.057   5.971  16.079  0.00  0.00    +0.000 A 
ATOM     20  C   UNL     1       6.947   6.541  17.349  0.00  0.00    +0.000 A 
ATOM     21  C   UNL     1       6.167   5.912  18.332  0.00  0.00    +0.000 A 
BRANCH  20  22
ATOM     22  C   UNL     1       7.660   7.752  17.658  0.00  0.00    +0.000 C 
ATOM     23  N   UNL     1       8.241   8.727  17.908  0.00  0.00    +0.000 NA
ENDBRANCH  20  22
ENDBRANCH  15  16
ENDBRANCH  14  15
ENDBRANCH   6   9
BRANCH   1  24
ATOM     24  C   UNL     1       0.884   9.794  21.422  0.00  0.00    +0.000 C 
BRANCH  24  27
ATOM     25  C   UNL     1      -0.939  11.226  22.217  0.00  0.00    +0.000 C 
ATOM     26  O   UNL     1      -0.629  11.063  23.392  0.00  0.00    +0.000 OA
ATOM     27  N   UNL     1      -0.257  10.659  21.186  0.00  0.00    +0.000 N 
ATOM     28  H   UNL     1      -0.648  10.771  20.259  0.00  0.00    +0.000 HD
BRANCH  25  29
ATOM     29  O   UNL     1      -1.966  11.993  21.765  0.00  0.00    +0.000 OA
BRANCH  29  31
ATOM     30  C   UNL     1      -0.422  13.848  22.260  0.00  0.00    +0.000 C 
ATOM     31  C   UNL     1      -1.864  13.433  21.932  0.00  0.00    +0.000 C 
ATOM     32  C   UNL     1      -2.860  13.921  22.996  0.00  0.00    +0.000 C 
ATOM     33  C   UNL     1      -2.233  14.072  20.583  0.00  0.00    +0.000 C 
ENDBRANCH  29  31
ENDBRANCH  25  29
ENDBRANCH  24  27
ENDBRANCH   1  24
TORSDOF 8
ENDMDL
MODEL 8
REMARK VINA RESULT:      -7.9      1.338      1.738
REMARK  Name = 
REMARK  11 active torsions:
REMARK  status: ('A' for Active; 'I' for Inactive)
REMARK    1  A    between atoms: C_1  and  C_2
REMARK    2  A    between atoms: C_2  and  C_3
REMARK    3  A    between atoms: C_2  and  C_4
REMARK    4  A    between atoms: C_2  and  O_5
REMARK    5  A    between atoms: O_5  and  C_6
REMARK    6  A    between atoms: N_8  and  C_9
REMARK    7  A    between atoms: C_9  and  C_10
REMARK    8  A    between atoms: C_15  and  C_17
REMARK    9  A    between atoms: N_22  and  C_23
REMARK   10  A    between atoms: C_23  and  C_24
REMARK   11  A    between atoms: C_28  and  C_29
REMARK                            x       y       z     vdW  Elec       q    Type
REMARK                         _______ _______ _______ _____ _____    ______ ____
ROOT
ATOM      1  C   UNL     1       0.941   8.650  20.511  0.00  0.00    +0.000 C 
ATOM      2  C   UNL     1       1.310   9.360  19.194  0.00  0.00    +0.000 C 
ATOM      3  C   UNL     1       1.723   8.372  18.101  0.00  0.00    +0.000 C 
ATOM      4  C   UNL     1       2.819   7.444  18.605  0.00  0.00    +0.000 C 
ATOM      5  N   UNL     1       2.331   6.730  19.773  0.00  0.00    +0.000 N 
ATOM      6  C   UNL     1       2.118   5.359  19.868  0.00  0.00    +0.000 C 
ATOM      7  O   UNL     1       1.637   4.851  20.885  0.00  0.00    +0.000 OA
ATOM      8  C   UNL     1       1.999   7.601  20.911  0.00  0.00    +0.000 C 
ENDROOT
BRANCH   6   9
ATOM      9  C   UNL     1       2.443   4.477  18.634  0.00  0.00    +0.000 C 
ATOM     10  C   UNL     1       1.248   3.581  18.309  0.00  0.00    +0.000 C 
ATOM     11  C   UNL     1       1.857   2.259  17.861  0.00  0.00    +0.000 C 
ATOM     12  C   UNL     1       3.201   2.238  18.538  0.00  0.00    +0.000 C 
ATOM     13  O   UNL     1       3.910   1.251  18.654  0.00  0.00    +0.000 OA
ATOM     14  N   UNL     1       3.521   3.535  18.885  0.00  0.00    +0.000 N 
BRANCH  14  15
ATOM     15  C   UNL     1       4.832   3.962  19.342  0.00  0.00    +0.000 C 
BRANCH  15  16
ATOM     16  C   UNL     1       5.716   4.529  18.246  0.00  0.00    +0.000 A 
ATOM     17  C   UNL     1       6.529   5.647  18.489  0.00  0.00    +0.000 A 
ATOM     18  C   UNL     1       7.211   6.278  17.446  0.00  0.00    +0.000 A 
ATOM     19  C   UNL     1       7.091   5.800  16.141  0.00  0.00    +0.000 A 
ATOM     20  C   UNL     1       6.320   4.665  15.882  0.00  0.00    +0.000 A 
ATOM     21  C   UNL     1       5.643   4.027  16.934  0.00  0.00    +0.000 A 
BRANCH  20  22
ATOM     22  C   UNL     1       6.192   4.173  14.536  0.00  0.00    +0.000 C 
ATOM     23  N   UNL     1       6.086   3.780  13.448  0.00  0.00    +0.000 NA
ENDBRANCH  20  22
ENDBRANCH  15  16
ENDBRANCH  14  15
ENDBRANCH   6   9
BRANCH   1  24
ATOM     24  C   UNL     1       0.629   9.672  21.627  0.00  0.00    +0.000 C 
BRANCH  24  27
ATOM     25  C   UNL     1      -0.814  11.602  22.074  0.00  0.00    +0.000 C 
ATOM     26  O   UNL     1      -0.847  11.369  23.278  0.00  0.00    +0.000 OA
ATOM     27  N   UNL     1      -0.113  10.841  21.191  0.00  0.00    +0.000 N 
ATOM     28  H   UNL     1      -0.228  11.054  20.208  0.00  0.00    +0.000 HD
BRANCH  25  29
ATOM     29  O   UNL     1      -1.430  12.639  21.448  0.00  0.00    +0.000 OA
BRANCH  29  31
ATOM     30  C   UNL     1       0.506  14.137  21.734  0.00  0.00    +0.000 C 
ATOM     31  C   UNL     1      -1.021  13.988  21.804  0.00  0.00    +0.000 C 
ATOM     32  C   UNL     1      -1.575  14.369  23.186  0.00  0.00    +0.000 C 
ATOM     33  C   UNL     1      -1.626  14.935  20.754  0.00  0.00    +0.000 C 
ENDBRANCH  29  31
ENDBRANCH  25  29
ENDBRANCH  24  27
ENDBRANCH   1  24
TORSDOF 8
ENDMDL
MODEL 9
REMARK VINA RESULT:      -7.6      0.907      1.177
REMARK  Name = 
REMARK  11 active torsions:
REMARK  status: ('A' for Active; 'I' for Inactive)
REMARK    1  A    between atoms: C_1  and  C_2
REMARK    2  A    between atoms: C_2  and  C_3
REMARK    3  A    between atoms: C_2  and  C_4
REMARK    4  A    between atoms: C_2  and  O_5
REMARK    5  A    between atoms: O_5  and  C_6
REMARK    6  A    between atoms: N_8  and  C_9
REMARK    7  A    between atoms: C_9  and  C_10
REMARK    8  A    between atoms: C_15  and  C_17
REMARK    9  A    between atoms: N_22  and  C_23
REMARK   10  A    between atoms: C_23  and  C_24
REMARK   11  A    between atoms: C_28  and  C_29
REMARK                            x       y       z     vdW  Elec       q    Type
REMARK                         _______ _______ _______ _____ _____    ______ ____
ROOT
ATOM      1  C   UNL     1       0.775   8.957  19.992  0.00  0.00    +0.000 C 
ATOM      2  C   UNL     1       1.260   9.560  18.659  0.00  0.00    +0.000 C 
ATOM      3  C   UNL     1       1.778   8.490  17.696  0.00  0.00    +0.000 C 
ATOM      4  C   UNL     1       2.827   7.622  18.375  0.00  0.00    +0.000 C 
ATOM      5  N   UNL     1       2.236   7.000  19.549  0.00  0.00    +0.000 N 
ATOM      6  C   UNL     1       2.023   5.640  19.739  0.00  0.00    +0.000 C 
ATOM      7  O   UNL     1       1.453   5.212  20.747  0.00  0.00    +0.000 OA
ATOM      8  C   UNL     1       1.796   7.959  20.575  0.00  0.00    +0.000 C 
ENDROOT
BRANCH   6   9
ATOM      9  C   UNL     1       2.466   4.662  18.619  0.00  0.00    +0.000 C 
ATOM     10  C   UNL     1       1.321   3.707  18.284  0.00  0.00    +0.000 C 
ATOM     11  C   UNL     1       1.992   2.369  18.005  0.00  0.00    +0.000 C 
ATOM     12  C   UNL     1       3.277   2.446  18.785  0.00  0.00    +0.000 C 
ATOM     13  O   UNL     1       3.996   1.495  19.044  0.00  0.00    +0.000 OA
ATOM     14  N   UNL     1       3.540   3.778  19.038  0.00  0.00    +0.000 N 
BRANCH  14  15
ATOM     15  C   UNL     1       4.800   4.281  19.555  0.00  0.00    +0.000 C 
BRANCH  15  16
ATOM     16  C   UNL     1       5.762   4.761  18.484  0.00  0.00    +0.000 A 
ATOM     17  C   UNL     1       6.641   5.826  18.738  0.00  0.00    +0.000 A 
ATOM     18  C   UNL     1       7.404   6.386  17.710  0.00  0.00    +0.000 A 
ATOM     19  C   UNL     1       7.302   5.889  16.411  0.00  0.00    +0.000 A 
ATOM     20  C   UNL     1       6.463   4.804  16.144  0.00  0.00    +0.000 A 
ATOM     21  C   UNL     1       5.705   4.237  17.180  0.00  0.00    +0.000 A 
BRANCH  20  22
ATOM     22  C   UNL     1       6.353   4.293  14.804  0.00  0.00    +0.000 C 
ATOM     23  N   UNL     1       6.261   3.884  13.720  0.00  0.00    +0.000 NA
ENDBRANCH  20  22
ENDBRANCH  15  16
ENDBRANCH  14  15
ENDBRANCH   6   9
BRANCH   1  24
ATOM     24  C   UNL     1       0.355  10.065  20.985  0.00  0.00    +0.000 C 
BRANCH  24  27
ATOM     25  C   UNL     1       0.893  12.408  20.508  0.00  0.00    +0.000 C 
ATOM     26  O   UNL     1      -0.197  12.609  19.982  0.00  0.00    +0.000 OA
ATOM     27  N   UNL     1       1.250  11.207  21.036  0.00  0.00    +0.000 N 
ATOM     28  H   UNL     1       2.205  11.111  21.358  0.00  0.00    +0.000 HD
BRANCH  25  29
ATOM     29  O   UNL     1       1.880  13.328  20.666  0.00  0.00    +0.000 OA
BRANCH  29  31
ATOM     30  C   UNL     1       0.352  14.539  22.175  0.00  0.00    +0.000 C 
ATOM     31  C   UNL     1       1.512  14.640  21.172  0.00  0.00    +0.000 C 
ATOM     32  C   UNL     1       1.188  15.591  20.010  0.00  0.00    +0.000 C 
ATOM     33  C   UNL     1       2.731  15.190  21.931  0.00  0.00    +0.000 C 
ENDBRANCH  29  31
ENDBRANCH  25  29
ENDBRANCH  24  27
ENDBRANCH   1  24
TORSDOF 8
ENDMDL
