MODEL 1
REMARK VINA RESULT:      -8.1      0.000      0.000
REMARK  Name = 
REMARK  13 active torsions:
REMARK  status: ('A' for Active; 'I' for Inactive)
REMARK    1  A    between atoms: C_1  and  O_2
REMARK    2  A    between atoms: O_2  and  C_3
REMARK    3  A    between atoms: C_7  and  N_8
REMARK    4  A    between atoms: C_9  and  C_11
REMARK    5  A    between atoms: C_11  and  O_12
REMARK    6  A    between atoms: O_12  and  C_13
REMARK    7  A    between atoms: C_16  and  S_17
REMARK    8  A    between atoms: S_17  and  C_20
REMARK    9  A    between atoms: C_21  and  C_22
REMARK   10  A    between atoms: C_25  and  C_26
REMARK   11  A    between atoms: C_26  and  C_27
REMARK   12  A    between atoms: C_26  and  C_28
REMARK   13  A    between atoms: C_26  and  C_29
REMARK                            x       y       z     vdW  Elec       q    Type
REMARK                         _______ _______ _______ _____ _____    ______ ____
ROOT
ATOM      1  C   UNL     1       3.168   5.957  18.307  0.00  0.00    +0.000 A 
ATOM      2  C   UNL     1       3.989   6.954  17.737  0.00  0.00    +0.000 A 
ATOM      3  C   UNL     1       5.150   6.627  17.044  0.00  0.00    +0.000 A 
ATOM      4  C   UNL     1       5.540   5.298  16.961  0.00  0.00    +0.000 A 
ATOM      5  C   UNL     1       4.739   4.292  17.537  0.00  0.00    +0.000 A 
ATOM      6  C   UNL     1       3.525   4.586  18.215  0.00  0.00    +0.000 A 
ENDROOT
BRANCH   6   7
ATOM      7  C   UNL     1       2.699   3.419  18.832  0.00  0.00    +0.000 C 
ATOM      8  C   UNL     1       2.702   3.571  20.368  0.00  0.00    +0.000 C 
ATOM      9  C   UNL     1       1.235   3.368  18.344  0.00  0.00    +0.000 C 
ATOM     10  C   UNL     1       3.261   2.003  18.510  0.00  0.00    +0.000 C 
ENDBRANCH   6   7
BRANCH   4  11
ATOM     11  S   UNL     1       6.995   4.861  16.020  0.00  0.00    +0.000 S 
ATOM     12  O   UNL     1       7.458   6.062  15.357  0.00  0.00    +0.000 OA
ATOM     13  O   UNL     1       7.877   4.128  16.913  0.00  0.00    +0.000 OA
BRANCH  11  14
ATOM     14  C   UNL     1       6.414   3.759  14.810  0.00  0.00    +0.000 C 
ATOM     15  C   UNL     1       6.372   4.174  13.531  0.00  0.00    +0.000 C 
BRANCH  15  16
ATOM     16  C   UNL     1       5.836   3.242  12.456  0.00  0.00    +0.000 C 
ATOM     17  N   UNL     1       5.392   2.469  11.563  0.00  0.00    +0.000 NA
ENDBRANCH  15  16
ENDBRANCH  11  14
ENDBRANCH   4  11
BRANCH   1  18
ATOM     18  O   UNL     1       2.040   6.326  19.003  0.00  0.00    +0.000 OA
BRANCH  18  19
ATOM     19  C   UNL     1       2.274   7.230  20.087  0.00  0.00    +0.000 C 
BRANCH  19  21
ATOM     20  N   UNL     1       1.294   9.171  18.963  0.00  0.00    +0.000 N 
ATOM     21  C   UNL     1       1.302   8.412  20.119  0.00  0.00    +0.000 C 
ATOM     22  O   UNL     1       0.576   8.579  21.098  0.00  0.00    +0.000 OA
ATOM     23  H   UNL     1       1.832   8.810  18.183  0.00  0.00    +0.000 HD
BRANCH  20  28
ATOM     24  C   UNL     1      -1.384  11.581  18.081  0.00  0.00    +0.000 A 
ATOM     25  C   UNL     1      -0.744  12.800  18.291  0.00  0.00    +0.000 A 
ATOM     26  C   UNL     1       0.577  12.834  18.727  0.00  0.00    +0.000 A 
ATOM     27  C   UNL     1       1.259  11.639  18.967  0.00  0.00    +0.000 A 
ATOM     28  C   UNL     1       0.631  10.409  18.774  0.00  0.00    +0.000 A 
ATOM     29  C   UNL     1      -0.700  10.383  18.328  0.00  0.00    +0.000 A 
BRANCH  24  31
ATOM     30  C   UNL     1      -3.465  10.500  17.765  0.00  0.00    +0.000 C 
ATOM     31  O   UNL     1      -2.683  11.681  17.663  0.00  0.00    +0.000 OA
ENDBRANCH  24  31
ENDBRANCH  20  28
ENDBRANCH  19  21
ENDBRANCH  18  19
ENDBRANCH   1  18
TORSDOF 9
ENDMDL
MODEL 2
REMARK VINA RESULT:      -8.0      1.059      2.005
REMARK  Name = 
REMARK  13 active torsions:
REMARK  status: ('A' for Active; 'I' for Inactive)
REMARK    1  A    between atoms: C_1  and  O_2
REMARK    2  A    between atoms: O_2  and  C_3
REMARK    3  A    between atoms: C_7  and  N_8
REMARK    4  A    between atoms: C_9  and  C_11
REMARK    5  A    between atoms: C_11  and  O_12
REMARK    6  A    between atoms: O_12  and  C_13
REMARK    7  A    between atoms: C_16  and  S_17
REMARK    8  A    between atoms: S_17  and  C_20
REMARK    9  A    between atoms: C_21  and  C_22
REMARK   10  A    between atoms: C_25  and  C_26
REMARK   11  A    between atoms: C_26  and  C_27
REMARK   12  A    between atoms: C_26  and  C_28
REMARK   13  A    between atoms: C_26  and  C_29
REMARK                            x       y       z     vdW  Elec       q    Type
REMARK                         _______ _______ _______ _____ _____    ______ ____
ROOT
ATOM      1  C   UNL     1       3.184   6.030  18.124  0.00  0.00    +0.000 A 
ATOM      2  C   UNL     1       4.015   6.999  17.520  0.00  0.00    +0.000 A 
ATOM      3  C   UNL     1       5.176   6.638  16.844  0.00  0.00    +0.000 A 
ATOM      4  C   UNL     1       5.555   5.303  16.810  0.00  0.00    +0.000 A 
ATOM      5  C   UNL     1       4.744   4.326  17.419  0.00  0.00    +0.000 A 
ATOM      6  C   UNL     1       3.530   4.653  18.082  0.00  0.00    +0.000 A 
ENDROOT
BRANCH   6   7
ATOM      7  C   UNL     1       2.693   3.516  18.738  0.00  0.00    +0.000 C 
ATOM      8  C   UNL     1       3.321   2.158  18.356  0.00  0.00    +0.000 C 
ATOM      9  C   UNL     1       2.618   3.609  20.277  0.00  0.00    +0.000 C 
ATOM     10  C   UNL     1       1.205   3.478  18.281  0.00  0.00    +0.000 C 
ENDBRANCH   6   7
BRANCH   4  11
ATOM     11  S   UNL     1       7.008   4.821  15.890  0.00  0.00    +0.000 S 
ATOM     12  O   UNL     1       7.490   5.997  15.195  0.00  0.00    +0.000 OA
ATOM     13  O   UNL     1       7.876   4.103  16.808  0.00  0.00    +0.000 OA
BRANCH  11  14
ATOM     14  C   UNL     1       6.420   3.693  14.709  0.00  0.00    +0.000 C 
ATOM     15  C   UNL     1       6.403   4.066  13.416  0.00  0.00    +0.000 C 
BRANCH  15  16
ATOM     16  C   UNL     1       5.861   3.110  12.365  0.00  0.00    +0.000 C 
ATOM     17  N   UNL     1       5.409   2.319  11.493  0.00  0.00    +0.000 NA
ENDBRANCH  15  16
ENDBRANCH  11  14
ENDBRANCH   4  11
BRANCH   1  18
ATOM     18  O   UNL     1       2.057   6.433  18.802  0.00  0.00    +0.000 OA
BRANCH  18  19
ATOM     19  C   UNL     1       2.307   7.276  19.931  0.00  0.00    +0.000 C 
BRANCH  19  21
ATOM     20  N   UNL     1       1.327   9.235  18.836  0.00  0.00    +0.000 N 
ATOM     21  C   UNL     1       1.380   8.493  20.002  0.00  0.00    +0.000 C 
ATOM     22  O   UNL     1       0.723   8.700  21.020  0.00  0.00    +0.000 OA
ATOM     23  H   UNL     1       1.804   8.843  18.030  0.00  0.00    +0.000 HD
BRANCH  20  28
ATOM     24  C   UNL     1       0.919  12.914  18.603  0.00  0.00    +0.000 A 
ATOM     25  C   UNL     1      -0.458  13.032  18.426  0.00  0.00    +0.000 A 
ATOM     26  C   UNL     1      -1.260  11.896  18.381  0.00  0.00    +0.000 A 
ATOM     27  C   UNL     1      -0.679  10.632  18.501  0.00  0.00    +0.000 A 
ATOM     28  C   UNL     1       0.698  10.493  18.667  0.00  0.00    +0.000 A 
ATOM     29  C   UNL     1       1.501  11.644  18.718  0.00  0.00    +0.000 A 
BRANCH  24  31
ATOM     30  C   UNL     1       2.342  14.380  19.798  0.00  0.00    +0.000 C 
ATOM     31  O   UNL     1       1.597  14.102  18.620  0.00  0.00    +0.000 OA
ENDBRANCH  24  31
ENDBRANCH  20  28
ENDBRANCH  19  21
ENDBRANCH  18  19
ENDBRANCH   1  18
TORSDOF 9
ENDMDL
MODEL 3
REMARK VINA RESULT:      -7.9      1.173      1.207
REMARK  Name = 
REMARK  13 active torsions:
REMARK  status: ('A' for Active; 'I' for Inactive)
REMARK    1  A    between atoms: C_1  and  O_2
REMARK    2  A    between atoms: O_2  and  C_3
REMARK    3  A    between atoms: C_7  and  N_8
REMARK    4  A    between atoms: C_9  and  C_11
REMARK    5  A    between atoms: C_11  and  O_12
REMARK    6  A    between atoms: O_12  and  C_13
REMARK    7  A    between atoms: C_16  and  S_17
REMARK    8  A    between atoms: S_17  and  C_20
REMARK    9  A    between atoms: C_21  and  C_22
REMARK   10  A    between atoms: C_25  and  C_26
REMARK   11  A    between atoms: C_26  and  C_27
REMARK   12  A    between atoms: C_26  and  C_28
REMARK   13  A    between atoms: C_26  and  C_29
REMARK                            x       y       z     vdW  Elec       q    Type
REMARK                         _______ _______ _______ _____ _____    ______ ____
ROOT
ATOM      1  C   UNL     1       3.170   6.181  18.108  0.00  0.00    +0.000 A 
ATOM      2  C   UNL     1       4.001   7.118  17.456  0.00  0.00    +0.000 A 
ATOM      3  C   UNL     1       5.196   6.733  16.856  0.00  0.00    +0.000 A 
ATOM      4  C   UNL     1       5.607   5.411  16.949  0.00  0.00    +0.000 A 
ATOM      5  C   UNL     1       4.796   4.466  17.608  0.00  0.00    +0.000 A 
ATOM      6  C   UNL     1       3.550   4.815  18.195  0.00  0.00    +0.000 A 
ENDROOT
BRANCH   6   7
ATOM      7  C   UNL     1       2.714   3.714  18.912  0.00  0.00    +0.000 C 
ATOM      8  C   UNL     1       2.682   4.026  20.424  0.00  0.00    +0.000 C 
ATOM      9  C   UNL     1       1.261   3.605  18.401  0.00  0.00    +0.000 C 
ATOM     10  C   UNL     1       3.288   2.276  18.753  0.00  0.00    +0.000 C 
ENDBRANCH   6   7
BRANCH   4  11
ATOM     11  S   UNL     1       7.107   4.893  16.128  0.00  0.00    +0.000 S 
ATOM     12  O   UNL     1       7.664   6.057  15.471  0.00  0.00    +0.000 OA
ATOM     13  O   UNL     1       7.893   4.153  17.101  0.00  0.00    +0.000 OA
BRANCH  11  14
ATOM     14  C   UNL     1       6.572   3.781  14.907  0.00  0.00    +0.000 C 
ATOM     15  C   UNL     1       6.391   4.240  13.655  0.00  0.00    +0.000 C 
BRANCH  15  16
ATOM     16  C   UNL     1       5.890   3.296  12.574  0.00  0.00    +0.000 C 
ATOM     17  N   UNL     1       5.474   2.511  11.678  0.00  0.00    +0.000 NA
ENDBRANCH  15  16
ENDBRANCH  11  14
ENDBRANCH   4  11
BRANCH   1  18
ATOM     18  O   UNL     1       2.008   6.608  18.706  0.00  0.00    +0.000 OA
BRANCH  18  19
ATOM     19  C   UNL     1       2.182   7.641  19.682  0.00  0.00    +0.000 C 
BRANCH  19  21
ATOM     20  N   UNL     1       0.443   9.282  20.211  0.00  0.00    +0.000 N 
ATOM     21  C   UNL     1       1.455   8.942  19.331  0.00  0.00    +0.000 C 
ATOM     22  O   UNL     1       1.830   9.610  18.369  0.00  0.00    +0.000 OA
ATOM     23  H   UNL     1       0.363   8.712  21.047  0.00  0.00    +0.000 HD
BRANCH  20  28
ATOM     24  C   UNL     1      -2.153  11.400  18.622  0.00  0.00    +0.000 A 
ATOM     25  C   UNL     1      -2.333  12.391  19.584  0.00  0.00    +0.000 A 
ATOM     26  C   UNL     1      -1.597  12.366  20.764  0.00  0.00    +0.000 A 
ATOM     27  C   UNL     1      -0.684  11.334  20.991  0.00  0.00    +0.000 A 
ATOM     28  C   UNL     1      -0.500  10.325  20.045  0.00  0.00    +0.000 A 
ATOM     29  C   UNL     1      -1.241  10.361  18.853  0.00  0.00    +0.000 A 
BRANCH  24  31
ATOM     30  C   UNL     1      -2.538  10.790  16.368  0.00  0.00    +0.000 C 
ATOM     31  O   UNL     1      -2.942  11.531  17.511  0.00  0.00    +0.000 OA
ENDBRANCH  24  31
ENDBRANCH  20  28
ENDBRANCH  19  21
ENDBRANCH  18  19
ENDBRANCH   1  18
TORSDOF 9
ENDMDL
MODEL 4
REMARK VINA RESULT:      -7.7      2.211      2.633
REMARK  Name = 
REMARK  13 active torsions:
REMARK  status: ('A' for Active; 'I' for Inactive)
REMARK    1  A    between atoms: C_1  and  O_2
REMARK    2  A    between atoms: O_2  and  C_3
REMARK    3  A    between atoms: C_7  and  N_8
REMARK    4  A    between atoms: C_9  and  C_11
REMARK    5  A    between atoms: C_11  and  O_12
REMARK    6  A    between atoms: O_12  and  C_13
REMARK    7  A    between atoms: C_16  and  S_17
REMARK    8  A    between atoms: S_17  and  C_20
REMARK    9  A    between atoms: C_21  and  C_22
REMARK   10  A    between atoms: C_25  and  C_26
REMARK   11  A    between atoms: C_26  and  C_27
REMARK   12  A    between atoms: C_26  and  C_28
REMARK   13  A    between atoms: C_26  and  C_29
REMARK                            x       y       z     vdW  Elec       q    Type
REMARK                         _______ _______ _______ _____ _____    ______ ____
ROOT
ATOM      1  C   UNL     1       3.333   6.738  17.843  0.00  0.00    +0.000 A 
ATOM      2  C   UNL     1       4.212   7.491  17.034  0.00  0.00    +0.000 A 
ATOM      3  C   UNL     1       5.333   6.912  16.448  0.00  0.00    +0.000 A 
ATOM      4  C   UNL     1       5.624   5.581  16.709  0.00  0.00    +0.000 A 
ATOM      5  C   UNL     1       4.765   4.819  17.525  0.00  0.00    +0.000 A 
ATOM      6  C   UNL     1       3.589   5.366  18.105  0.00  0.00    +0.000 A 
ENDROOT
BRANCH   6   7
ATOM      7  C   UNL     1       2.694   4.461  19.002  0.00  0.00    +0.000 C 
ATOM      8  C   UNL     1       2.299   5.255  20.266  0.00  0.00    +0.000 C 
ATOM      9  C   UNL     1       1.406   3.973  18.304  0.00  0.00    +0.000 C 
ATOM     10  C   UNL     1       3.391   3.154  19.481  0.00  0.00    +0.000 C 
ENDBRANCH   6   7
BRANCH   4  11
ATOM     11  S   UNL     1       7.025   4.811  15.910  0.00  0.00    +0.000 S 
ATOM     12  O   UNL     1       7.744   5.849  15.202  0.00  0.00    +0.000 OA
ATOM     13  O   UNL     1       7.699   4.005  16.914  0.00  0.00    +0.000 OA
BRANCH  11  14
ATOM     14  C   UNL     1       6.321   3.739  14.739  0.00  0.00    +0.000 C 
ATOM     15  C   UNL     1       6.475   4.024  13.433  0.00  0.00    +0.000 C 
BRANCH  15  16
ATOM     16  C   UNL     1       5.840   3.121  12.387  0.00  0.00    +0.000 C 
ATOM     17  N   UNL     1       5.314   2.373  11.519  0.00  0.00    +0.000 NA
ENDBRANCH  15  16
ENDBRANCH  11  14
ENDBRANCH   4  11
BRANCH   1  18
ATOM     18  O   UNL     1       2.248   7.356  18.420  0.00  0.00    +0.000 OA
BRANCH  18  19
ATOM     19  C   UNL     1       1.936   8.644  17.881  0.00  0.00    +0.000 C 
BRANCH  19  21
ATOM     20  N   UNL     1       1.263   9.504  20.073  0.00  0.00    +0.000 N 
ATOM     21  C   UNL     1       0.938   9.436  18.730  0.00  0.00    +0.000 C 
ATOM     22  O   UNL     1      -0.019   9.988  18.190  0.00  0.00    +0.000 OA
ATOM     23  H   UNL     1       2.170   9.133  20.335  0.00  0.00    +0.000 HD
BRANCH  20  28
ATOM     24  C   UNL     1      -0.559  11.959  22.171  0.00  0.00    +0.000 A 
ATOM     25  C   UNL     1      -1.085  11.140  23.167  0.00  0.00    +0.000 A 
ATOM     26  C   UNL     1      -0.841   9.771  23.152  0.00  0.00    +0.000 A 
ATOM     27  C   UNL     1      -0.076   9.214  22.124  0.00  0.00    +0.000 A 
ATOM     28  C   UNL     1       0.447  10.016  21.111  0.00  0.00    +0.000 A 
ATOM     29  C   UNL     1       0.202  11.399  21.137  0.00  0.00    +0.000 A 
BRANCH  24  31
ATOM     30  C   UNL     1      -2.088  13.575  22.980  0.00  0.00    +0.000 C 
ATOM     31  O   UNL     1      -0.879  13.285  22.292  0.00  0.00    +0.000 OA
ENDBRANCH  24  31
ENDBRANCH  20  28
ENDBRANCH  19  21
ENDBRANCH  18  19
ENDBRANCH   1  18
TORSDOF 9
ENDMDL
MODEL 5
REMARK VINA RESULT:      -7.7      1.280      1.727
REMARK  Name = 
REMARK  13 active torsions:
REMARK  status: ('A' for Active; 'I' for Inactive)
REMARK    1  A    between atoms: C_1  and  O_2
REMARK    2  A    between atoms: O_2  and  C_3
REMARK    3  A    between atoms: C_7  and  N_8
REMARK    4  A    between atoms: C_9  and  C_11
REMARK    5  A    between atoms: C_11  and  O_12
REMARK    6  A    between atoms: O_12  and  C_13
REMARK    7  A    between atoms: C_16  and  S_17
REMARK    8  A    between atoms: S_17  and  C_20
REMARK    9  A    between atoms: C_21  and  C_22
REMARK   10  A    between atoms: C_25  and  C_26
REMARK   11  A    between atoms: C_26  and  C_27
REMARK   12  A    between atoms: C_26  and  C_28
REMARK   13  A    between atoms: C_26  and  C_29
REMARK                            x       y       z     vdW  Elec       q    Type
REMARK                         _______ _______ _______ _____ _____    ______ ____
ROOT
ATOM      1  C   UNL     1       3.203   5.691  18.607  0.00  0.00    +0.000 A 
ATOM      2  C   UNL     1       4.002   6.747  18.116  0.00  0.00    +0.000 A 
ATOM      3  C   UNL     1       5.167   6.500  17.398  0.00  0.00    +0.000 A 
ATOM      4  C   UNL     1       5.584   5.190  17.209  0.00  0.00    +0.000 A 
ATOM      5  C   UNL     1       4.806   4.126  17.704  0.00  0.00    +0.000 A 
ATOM      6  C   UNL     1       3.588   4.339  18.405  0.00  0.00    +0.000 A 
ENDROOT
BRANCH   6   7
ATOM      7  C   UNL     1       2.788   3.110  18.928  0.00  0.00    +0.000 C 
ATOM      8  C   UNL     1       2.836   3.111  20.471  0.00  0.00    +0.000 C 
ATOM      9  C   UNL     1       1.310   3.095  18.481  0.00  0.00    +0.000 C 
ATOM     10  C   UNL     1       3.348   1.738  18.452  0.00  0.00    +0.000 C 
ENDBRANCH   6   7
BRANCH   4  11
ATOM     11  S   UNL     1       7.044   4.860  16.233  0.00  0.00    +0.000 S 
ATOM     12  O   UNL     1       7.445   6.108  15.618  0.00  0.00    +0.000 OA
ATOM     13  O   UNL     1       7.969   4.129  17.083  0.00  0.00    +0.000 OA
BRANCH  11  14
ATOM     14  C   UNL     1       6.497   3.787  14.982  0.00  0.00    +0.000 C 
ATOM     15  C   UNL     1       6.476   4.236  13.714  0.00  0.00    +0.000 C 
BRANCH  15  16
ATOM     16  C   UNL     1       5.969   3.330  12.604  0.00  0.00    +0.000 C 
ATOM     17  N   UNL     1       5.547   2.578  11.684  0.00  0.00    +0.000 NA
ENDBRANCH  15  16
ENDBRANCH  11  14
ENDBRANCH   4  11
BRANCH   1  18
ATOM     18  O   UNL     1       2.070   5.981  19.331  0.00  0.00    +0.000 OA
BRANCH  18  19
ATOM     19  C   UNL     1       2.264   6.911  20.400  0.00  0.00    +0.000 C 
BRANCH  19  21
ATOM     20  N   UNL     1       1.239   8.928  19.463  0.00  0.00    +0.000 N 
ATOM     21  C   UNL     1       1.180   7.989  20.478  0.00  0.00    +0.000 C 
ATOM     22  O   UNL     1       0.324   7.931  21.359  0.00  0.00    +0.000 OA
ATOM     23  H   UNL     1       1.906   8.746  18.720  0.00  0.00    +0.000 HD
BRANCH  20  28
ATOM     24  C   UNL     1      -0.059  12.290  20.335  0.00  0.00    +0.000 A 
ATOM     25  C   UNL     1      -1.018  12.486  19.344  0.00  0.00    +0.000 A 
ATOM     26  C   UNL     1      -1.242  11.507  18.381  0.00  0.00    +0.000 A 
ATOM     27  C   UNL     1      -0.491  10.330  18.401  0.00  0.00    +0.000 A 
ATOM     28  C   UNL     1       0.483  10.122  19.377  0.00  0.00    +0.000 A 
ATOM     29  C   UNL     1       0.698  11.111  20.350  0.00  0.00    +0.000 A 
BRANCH  24  31
ATOM     30  C   UNL     1      -0.608  13.188  22.455  0.00  0.00    +0.000 C 
ATOM     31  O   UNL     1       0.074  13.330  21.216  0.00  0.00    +0.000 OA
ENDBRANCH  24  31
ENDBRANCH  20  28
ENDBRANCH  19  21
ENDBRANCH  18  19
ENDBRANCH   1  18
TORSDOF 9
ENDMDL
MODEL 6
REMARK VINA RESULT:      -7.7      2.031      2.364
REMARK  Name = 
REMARK  13 active torsions:
REMARK  status: ('A' for Active; 'I' for Inactive)
REMARK    1  A    between atoms: C_1  and  O_2
REMARK    2  A    between atoms: O_2  and  C_3
REMARK    3  A    between atoms: C_7  and  N_8
REMARK    4  A    between atoms: C_9  and  C_11
REMARK    5  A    between atoms: C_11  and  O_12
REMARK    6  A    between atoms: O_12  and  C_13
REMARK    7  A    between atoms: C_16  and  S_17
REMARK    8  A    between atoms: S_17  and  C_20
REMARK    9  A    between atoms: C_21  and  C_22
REMARK   10  A    between atoms: C_25  and  C_26
REMARK   11  A    between atoms: C_26  and  C_27
REMARK   12  A    between atoms: C_26  and  C_28
REMARK   13  A    between atoms: C_26  and  C_29
REMARK                            x       y       z     vdW  Elec       q    Type
REMARK                         _______ _______ _______ _____ _____    ______ ____
ROOT
ATOM      1  C   UNL     1       3.393   6.702  17.953  0.00  0.00    +0.000 A 
ATOM      2  C   UNL     1       4.343   7.512  17.292  0.00  0.00    +0.000 A 
ATOM      3  C   UNL     1       5.463   6.960  16.679  0.00  0.00    +0.000 A 
ATOM      4  C   UNL     1       5.681   5.593  16.766  0.00  0.00    +0.000 A 
ATOM      5  C   UNL     1       4.750   4.773  17.433  0.00  0.00    +0.000 A 
ATOM      6  C   UNL     1       3.573   5.296  18.034  0.00  0.00    +0.000 A 
ENDROOT
BRANCH   6   7
ATOM      7  C   UNL     1       2.596   4.325  18.760  0.00  0.00    +0.000 C 
ATOM      8  C   UNL     1       1.362   4.102  17.859  0.00  0.00    +0.000 C 
ATOM      9  C   UNL     1       3.218   2.951  19.093  0.00  0.00    +0.000 C 
ATOM     10  C   UNL     1       2.075   4.853  20.128  0.00  0.00    +0.000 C 
ENDBRANCH   6   7
BRANCH   4  11
ATOM     11  S   UNL     1       7.082   4.866  15.927  0.00  0.00    +0.000 S 
ATOM     12  O   UNL     1       7.750   5.927  15.203  0.00  0.00    +0.000 OA
ATOM     13  O   UNL     1       7.806   4.078  16.910  0.00  0.00    +0.000 OA
BRANCH  11  14
ATOM     14  C   UNL     1       6.379   3.777  14.772  0.00  0.00    +0.000 C 
ATOM     15  C   UNL     1       6.445   4.094  13.466  0.00  0.00    +0.000 C 
BRANCH  15  16
ATOM     16  C   UNL     1       5.808   3.176  12.436  0.00  0.00    +0.000 C 
ATOM     17  N   UNL     1       5.278   2.413  11.583  0.00  0.00    +0.000 NA
ENDBRANCH  15  16
ENDBRANCH  11  14
ENDBRANCH   4  11
BRANCH   1  18
ATOM     18  O   UNL     1       2.311   7.291  18.565  0.00  0.00    +0.000 OA
BRANCH  18  19
ATOM     19  C   UNL     1       1.825   8.470  17.916  0.00  0.00    +0.000 C 
BRANCH  19  21
ATOM     20  N   UNL     1       0.578   9.114  19.922  0.00  0.00    +0.000 N 
ATOM     21  C   UNL     1       1.381   9.565  18.889  0.00  0.00    +0.000 C 
ATOM     22  O   UNL     1       1.788  10.716  18.741  0.00  0.00    +0.000 OA
ATOM     23  H   UNL     1       0.463   8.109  19.997  0.00  0.00    +0.000 HD
BRANCH  20  28
ATOM     24  C   UNL     1      -1.508  11.868  21.272  0.00  0.00    +0.000 A 
ATOM     25  C   UNL     1      -1.453  11.615  22.641  0.00  0.00    +0.000 A 
ATOM     26  C   UNL     1      -0.727  10.533  23.126  0.00  0.00    +0.000 A 
ATOM     27  C   UNL     1      -0.061   9.688  22.235  0.00  0.00    +0.000 A 
ATOM     28  C   UNL     1      -0.115   9.917  20.861  0.00  0.00    +0.000 A 
ATOM     29  C   UNL     1      -0.844  11.016  20.378  0.00  0.00    +0.000 A 
BRANCH  24  31
ATOM     30  C   UNL     1      -3.598  12.970  21.405  0.00  0.00    +0.000 C 
ATOM     31  O   UNL     1      -2.262  12.954  20.920  0.00  0.00    +0.000 OA
ENDBRANCH  24  31
ENDBRANCH  20  28
ENDBRANCH  19  21
ENDBRANCH  18  19
ENDBRANCH   1  18
TORSDOF 9
ENDMDL
MODEL 7
REMARK VINA RESULT:      -7.6      1.706      2.162
REMARK  Name = 
REMARK  13 active torsions:
REMARK  status: ('A' for Active; 'I' for Inactive)
REMARK    1  A    between atoms: C_1  and  O_2
REMARK    2  A    between atoms: O_2  and  C_3
REMARK    3  A    between atoms: C_7  and  N_8
REMARK    4  A    between atoms: C_9  and  C_11
REMARK    5  A    between atoms: C_11  and  O_12
REMARK    6  A    between atoms: O_12  and  C_13
REMARK    7  A    between atoms: C_16  and  S_17
REMARK    8  A    between atoms: S_17  and  C_20
REMARK    9  A    between atoms: C_21  and  C_22
REMARK   10  A    between atoms: C_25  and  C_26
REMARK   11  A    between atoms: C_26  and  C_27
REMARK   12  A    between atoms: C_26  and  C_28
REMARK   13  A    between atoms: C_26  and  C_29
REMARK                            x       y       z     vdW  Elec       q    Type
REMARK                         _______ _______ _______ _____ _____    ______ ____
ROOT
ATOM      1  C   UNL     1       3.146   6.264  18.251  0.00  0.00    +0.000 A 
ATOM      2  C   UNL     1       3.950   7.192  17.554  0.00  0.00    +0.000 A 
ATOM      3  C   UNL     1       5.166   6.817  16.992  0.00  0.00    +0.000 A 
ATOM      4  C   UNL     1       5.625   5.520  17.169  0.00  0.00    +0.000 A 
ATOM      5  C   UNL     1       4.842   4.586  17.874  0.00  0.00    +0.000 A 
ATOM      6  C   UNL     1       3.575   4.921  18.424  0.00  0.00    +0.000 A 
ENDROOT
BRANCH   6   7
ATOM      7  C   UNL     1       2.772   3.834  19.197  0.00  0.00    +0.000 C 
ATOM      8  C   UNL     1       3.585   2.522  19.190  0.00  0.00    +0.000 C 
ATOM      9  C   UNL     1       2.462   4.214  20.662  0.00  0.00    +0.000 C 
ATOM     10  C   UNL     1       1.379   3.515  18.580  0.00  0.00    +0.000 C 
ENDBRANCH   6   7
BRANCH   4  11
ATOM     11  S   UNL     1       7.155   5.011  16.397  0.00  0.00    +0.000 S 
ATOM     12  O   UNL     1       7.742   6.186  15.786  0.00  0.00    +0.000 OA
ATOM     13  O   UNL     1       7.898   4.247  17.384  0.00  0.00    +0.000 OA
BRANCH  11  14
ATOM     14  C   UNL     1       6.663   3.927  15.132  0.00  0.00    +0.000 C 
ATOM     15  C   UNL     1       6.460   4.428  13.900  0.00  0.00    +0.000 C 
BRANCH  15  16
ATOM     16  C   UNL     1       5.996   3.507  12.782  0.00  0.00    +0.000 C 
ATOM     17  N   UNL     1       5.612   2.743  11.856  0.00  0.00    +0.000 NA
ENDBRANCH  15  16
ENDBRANCH  11  14
ENDBRANCH   4  11
BRANCH   1  18
ATOM     18  O   UNL     1       1.961   6.682  18.810  0.00  0.00    +0.000 OA
BRANCH  18  19
ATOM     19  C   UNL     1       2.088   7.747  19.757  0.00  0.00    +0.000 C 
BRANCH  19  21
ATOM     20  N   UNL     1       0.462   9.510  20.248  0.00  0.00    +0.000 N 
ATOM     21  C   UNL     1       1.379   9.035  19.329  0.00  0.00    +0.000 C 
ATOM     22  O   UNL     1       1.689   9.579  18.270  0.00  0.00    +0.000 OA
ATOM     23  H   UNL     1       0.437   9.037  21.146  0.00  0.00    +0.000 HD
BRANCH  20  28
ATOM     24  C   UNL     1      -1.435  12.631  20.893  0.00  0.00    +0.000 A 
ATOM     25  C   UNL     1      -2.291  12.670  19.795  0.00  0.00    +0.000 A 
ATOM     26  C   UNL     1      -2.248  11.665  18.835  0.00  0.00    +0.000 A 
ATOM     27  C   UNL     1      -1.330  10.620  18.965  0.00  0.00    +0.000 A 
ATOM     28  C   UNL     1      -0.456  10.571  20.050  0.00  0.00    +0.000 A 
ATOM     29  C   UNL     1      -0.511  11.585  21.020  0.00  0.00    +0.000 A 
BRANCH  24  31
ATOM     30  C   UNL     1      -1.180  13.434  23.104  0.00  0.00    +0.000 C 
ATOM     31  O   UNL     1      -1.568  13.682  21.760  0.00  0.00    +0.000 OA
ENDBRANCH  24  31
ENDBRANCH  20  28
ENDBRANCH  19  21
ENDBRANCH  18  19
ENDBRANCH   1  18
TORSDOF 9
ENDMDL
MODEL 8
REMARK VINA RESULT:      -7.6      1.258      1.587
REMARK  Name = 
REMARK  13 active torsions:
REMARK  status: ('A' for Active; 'I' for Inactive)
REMARK    1  A    between atoms: C_1  and  O_2
REMARK    2  A    between atoms: O_2  and  C_3
REMARK    3  A    between atoms: C_7  and  N_8
REMARK    4  A    between atoms: C_9  and  C_11
REMARK    5  A    between atoms: C_11  and  O_12
REMARK    6  A    between atoms: O_12  and  C_13
REMARK    7  A    between atoms: C_16  and  S_17
REMARK    8  A    between atoms: S_17  and  C_20
REMARK    9  A    between atoms: C_21  and  C_22
REMARK   10  A    between atoms: C_25  and  C_26
REMARK   11  A    between atoms: C_26  and  C_27
REMARK   12  A    between atoms: C_26  and  C_28
REMARK   13  A    between atoms: C_26  and  C_29
REMARK                            x       y       z     vdW  Elec       q    Type
REMARK                         _______ _______ _______ _____ _____    ______ ____
ROOT
ATOM      1  C   UNL     1       3.407   6.671  17.945  0.00  0.00    +0.000 A 
ATOM      2  C   UNL     1       4.352   7.481  17.278  0.00  0.00    +0.000 A 
ATOM      3  C   UNL     1       5.466   6.928  16.654  0.00  0.00    +0.000 A 
ATOM      4  C   UNL     1       5.683   5.560  16.738  0.00  0.00    +0.000 A 
ATOM      5  C   UNL     1       4.757   4.741  17.412  0.00  0.00    +0.000 A 
ATOM      6  C   UNL     1       3.585   5.264  18.024  0.00  0.00    +0.000 A 
ENDROOT
BRANCH   6   7
ATOM      7  C   UNL     1       2.613   4.294  18.756  0.00  0.00    +0.000 C 
ATOM      8  C   UNL     1       1.342   4.126  17.896  0.00  0.00    +0.000 C 
ATOM      9  C   UNL     1       3.215   2.897  19.025  0.00  0.00    +0.000 C 
ATOM     10  C   UNL     1       2.156   4.792  20.158  0.00  0.00    +0.000 C 
ENDBRANCH   6   7
BRANCH   4  11
ATOM     11  S   UNL     1       7.075   4.833  15.886  0.00  0.00    +0.000 S 
ATOM     12  O   UNL     1       7.746   5.897  15.168  0.00  0.00    +0.000 OA
ATOM     13  O   UNL     1       7.800   4.033  16.859  0.00  0.00    +0.000 OA
BRANCH  11  14
ATOM     14  C   UNL     1       6.361   3.758  14.725  0.00  0.00    +0.000 C 
ATOM     15  C   UNL     1       6.457   4.067  13.419  0.00  0.00    +0.000 C 
BRANCH  15  16
ATOM     16  C   UNL     1       5.810   3.161  12.383  0.00  0.00    +0.000 C 
ATOM     17  N   UNL     1       5.273   2.411  11.523  0.00  0.00    +0.000 NA
ENDBRANCH  15  16
ENDBRANCH  11  14
ENDBRANCH   4  11
BRANCH   1  18
ATOM     18  O   UNL     1       2.331   7.261  18.568  0.00  0.00    +0.000 OA
BRANCH  18  19
ATOM     19  C   UNL     1       1.807   8.410  17.895  0.00  0.00    +0.000 C 
BRANCH  19  21
ATOM     20  N   UNL     1       0.475  10.444  18.190  0.00  0.00    +0.000 N 
ATOM     21  C   UNL     1       1.141   9.418  18.836  0.00  0.00    +0.000 C 
ATOM     22  O   UNL     1       1.183   9.238  20.052  0.00  0.00    +0.000 OA
ATOM     23  H   UNL     1       0.395  10.363  17.182  0.00  0.00    +0.000 HD
BRANCH  20  28
ATOM     24  C   UNL     1      -2.011  12.659  19.822  0.00  0.00    +0.000 A 
ATOM     25  C   UNL     1      -1.297  13.850  19.930  0.00  0.00    +0.000 A 
ATOM     26  C   UNL     1       0.011  13.929  19.464  0.00  0.00    +0.000 A 
ATOM     27  C   UNL     1       0.615  12.803  18.898  0.00  0.00    +0.000 A 
ATOM     28  C   UNL     1      -0.079  11.599  18.794  0.00  0.00    +0.000 A 
ATOM     29  C   UNL     1      -1.402  11.529  19.260  0.00  0.00    +0.000 A 
BRANCH  24  31
ATOM     30  C   UNL     1      -4.316  12.270  19.455  0.00  0.00    +0.000 C 
ATOM     31  O   UNL     1      -3.283  12.707  20.326  0.00  0.00    +0.000 OA
ENDBRANCH  24  31
ENDBRANCH  20  28
ENDBRANCH  19  21
ENDBRANCH  18  19
ENDBRANCH   1  18
TORSDOF 9
ENDMDL
MODEL 9
REMARK VINA RESULT:      -7.5      2.892      8.692
REMARK  Name = 
REMARK  13 active torsions:
REMARK  status: ('A' for Active; 'I' for Inactive)
REMARK    1  A    between atoms: C_1  and  O_2
REMARK    2  A    between atoms: O_2  and  C_3
REMARK    3  A    between atoms: C_7  and  N_8
REMARK    4  A    between atoms: C_9  and  C_11
REMARK    5  A    between atoms: C_11  and  O_12
REMARK    6  A    between atoms: O_12  and  C_13
REMARK    7  A    between atoms: C_16  and  S_17
REMARK    8  A    between atoms: S_17  and  C_20
REMARK    9  A    between atoms: C_21  and  C_22
REMARK   10  A    between atoms: C_25  and  C_26
REMARK   11  A    between atoms: C_26  and  C_27
REMARK   12  A    between atoms: C_26  and  C_28
REMARK   13  A    between atoms: C_26  and  C_29
REMARK                            x       y       z     vdW  Elec       q    Type
REMARK                         _______ _______ _______ _____ _____    ______ ____
ROOT
ATOM      1  C   UNL     1       3.804   5.788  18.160  0.00  0.00    +0.000 A 
ATOM      2  C   UNL     1       4.185   7.017  17.578  0.00  0.00    +0.000 A 
ATOM      3  C   UNL     1       3.371   8.142  17.665  0.00  0.00    +0.000 A 
ATOM      4  C   UNL     1       2.135   8.040  18.288  0.00  0.00    +0.000 A 
ATOM      5  C   UNL     1       1.735   6.818  18.861  0.00  0.00    +0.000 A 
ATOM      6  C   UNL     1       2.558   5.660  18.829  0.00  0.00    +0.000 A 
ENDROOT
BRANCH   6   7
ATOM      7  C   UNL     1       2.041   4.343  19.479  0.00  0.00    +0.000 C 
ATOM      8  C   UNL     1       1.508   3.417  18.363  0.00  0.00    +0.000 C 
ATOM      9  C   UNL     1       3.119   3.580  20.279  0.00  0.00    +0.000 C 
ATOM     10  C   UNL     1       0.881   4.549  20.496  0.00  0.00    +0.000 C 
ENDBRANCH   6   7
BRANCH   4  11
ATOM     11  S   UNL     1       1.111   9.495  18.461  0.00  0.00    +0.000 S 
ATOM     12  O   UNL     1       1.987  10.647  18.424  0.00  0.00    +0.000 OA
ATOM     13  O   UNL     1       0.024   9.367  17.506  0.00  0.00    +0.000 OA
BRANCH  11  14
ATOM     14  C   UNL     1       0.444   9.367  20.059  0.00  0.00    +0.000 C 
ATOM     15  C   UNL     1       1.103   9.949  21.078  0.00  0.00    +0.000 C 
BRANCH  15  16
ATOM     16  C   UNL     1       0.560   9.823  22.493  0.00  0.00    +0.000 C 
ATOM     17  N   UNL     1       0.108   9.719  23.666  0.00  0.00    +0.000 NA
ENDBRANCH  15  16
ENDBRANCH  11  14
ENDBRANCH   4  11
BRANCH   1  18
ATOM     18  O   UNL     1       4.629   4.695  18.031  0.00  0.00    +0.000 OA
BRANCH  18  19
ATOM     19  C   UNL     1       6.028   4.991  18.086  0.00  0.00    +0.000 C 
BRANCH  19  21
ATOM     20  N   UNL     1       6.064   5.035  15.638  0.00  0.00    +0.000 N 
ATOM     21  C   UNL     1       6.767   4.692  16.779  0.00  0.00    +0.000 C 
ATOM     22  O   UNL     1       7.911   4.241  16.814  0.00  0.00    +0.000 OA
ATOM     23  H   UNL     1       5.199   5.546  15.779  0.00  0.00    +0.000 HD
BRANCH  20  28
ATOM     24  C   UNL     1       5.970   3.404  12.309  0.00  0.00    +0.000 A 
ATOM     25  C   UNL     1       7.085   3.966  11.690  0.00  0.00    +0.000 A 
ATOM     26  C   UNL     1       7.875   4.888  12.370  0.00  0.00    +0.000 A 
ATOM     27  C   UNL     1       7.539   5.261  13.674  0.00  0.00    +0.000 A 
ATOM     28  C   UNL     1       6.420   4.720  14.304  0.00  0.00    +0.000 A 
ATOM     29  C   UNL     1       5.632   3.784  13.614  0.00  0.00    +0.000 A 
BRANCH  24  31
ATOM     30  C   UNL     1       3.988   2.950  11.098  0.00  0.00    +0.000 C 
ATOM     31  O   UNL     1       5.271   2.520  11.533  0.00  0.00    +0.000 OA
ENDBRANCH  24  31
ENDBRANCH  20  28
ENDBRANCH  19  21
ENDBRANCH  18  19
ENDBRANCH   1  18
TORSDOF 9
ENDMDL
