MODEL 1
REMARK VINA RESULT:      -8.2      0.000      0.000
REMARK  Name = 
REMARK  10 active torsions:
REMARK  status: ('A' for Active; 'I' for Inactive)
REMARK    1  A    between atoms: C_1  and  C_2
REMARK    2  A    between atoms: C_2  and  C_3
REMARK    3  A    between atoms: C_2  and  C_4
REMARK    4  A    between atoms: C_4  and  C_5
REMARK    5  A    between atoms: C_4  and  C_23
REMARK    6  A    between atoms: C_5  and  N_6
REMARK    7  A    between atoms: C_7  and  C_9
REMARK    8  A    between atoms: C_14  and  O_15
REMARK    9  A    between atoms: O_15  and  C_16
REMARK   10  A    between atoms: C_16  and  C_17
REMARK                            x       y       z     vdW  Elec       q    Type
REMARK                         _______ _______ _______ _____ _____    ______ ____
ROOT
ATOM      1  N   UNL     1       4.778   3.389  17.520  0.00  0.00    +0.000 N 
ATOM      2  C   UNL     1       4.655   3.764  18.859  0.00  0.00    +0.000 C 
ATOM      3  O   UNL     1       5.591   4.176  19.531  0.00  0.00    +0.000 OA
ATOM      4  H   UNL     1       3.972   2.999  17.054  0.00  0.00    +0.000 HD
ENDROOT
BRANCH   2   5
ATOM      5  C   UNL     1       3.248   3.666  19.414  0.00  0.00    +0.000 A 
ATOM      6  C   UNL     1       2.670   2.375  19.415  0.00  0.00    +0.000 A 
ATOM      7  C   UNL     1       1.409   2.133  19.952  0.00  0.00    +0.000 A 
ATOM      8  C   UNL     1       0.694   3.170  20.520  0.00  0.00    +0.000 A 
ATOM      9  C   UNL     1       1.229   4.457  20.501  0.00  0.00    +0.000 A 
ATOM     10  C   UNL     1       2.468   4.747  19.882  0.00  0.00    +0.000 A 
BRANCH  10  11
ATOM     11  O   UNL     1       2.890   6.054  19.723  0.00  0.00    +0.000 OA
BRANCH  11  12
ATOM     12  C   UNL     1       2.169   7.008  20.532  0.00  0.00    +0.000 C 
BRANCH  12  13
ATOM     13  C   UNL     1       1.628   8.221  19.813  0.00  0.00    +0.000 A 
ATOM     14  C   UNL     1       0.879   9.197  20.461  0.00  0.00    +0.000 A 
ATOM     15  C   UNL     1       0.583  10.363  19.771  0.00  0.00    +0.000 A 
ATOM     16  N   UNL     1       0.971  10.617  18.500  0.00  0.00    +0.000 NA
ATOM     17  C   UNL     1       1.682   9.655  17.884  0.00  0.00    +0.000 A 
ATOM     18  C   UNL     1       2.028   8.455  18.487  0.00  0.00    +0.000 A 
ENDBRANCH  12  13
ENDBRANCH  11  12
ENDBRANCH  10  11
ENDBRANCH   2   5
BRANCH   1  19
ATOM     19  C   UNL     1       5.937   3.667  16.662  0.00  0.00    +0.000 C 
BRANCH  19  20
ATOM     20  C   UNL     1       5.650   4.792  15.606  0.00  0.00    +0.000 C 
BRANCH  20  21
ATOM     21  C   UNL     1       6.295   4.554  14.239  0.00  0.00    +0.000 A 
ATOM     22  C   UNL     1       5.768   3.576  13.377  0.00  0.00    +0.000 A 
ATOM     23  C   UNL     1       6.248   3.425  12.075  0.00  0.00    +0.000 A 
ATOM     24  C   UNL     1       7.290   4.228  11.620  0.00  0.00    +0.000 A 
ATOM     25  C   UNL     1       7.865   5.160  12.477  0.00  0.00    +0.000 A 
ATOM     26  C   UNL     1       7.374   5.320  13.775  0.00  0.00    +0.000 A 
ENDBRANCH  20  21
BRANCH  20  28
ATOM     27  C   UNL     1       7.134   6.244  17.186  0.00  0.00    +0.000 C 
ATOM     28  C   UNL     1       5.965   6.222  16.185  0.00  0.00    +0.000 C 
ATOM     29  C   UNL     1       4.759   6.921  16.822  0.00  0.00    +0.000 C 
ENDBRANCH  20  28
ENDBRANCH  19  20
ENDBRANCH   1  19
TORSDOF 8
ENDMDL
MODEL 2
REMARK VINA RESULT:      -8.1      1.209      1.343
REMARK  Name = 
REMARK  10 active torsions:
REMARK  status: ('A' for Active; 'I' for Inactive)
REMARK    1  A    between atoms: C_1  and  C_2
REMARK    2  A    between atoms: C_2  and  C_3
REMARK    3  A    between atoms: C_2  and  C_4
REMARK    4  A    between atoms: C_4  and  C_5
REMARK    5  A    between atoms: C_4  and  C_23
REMARK    6  A    between atoms: C_5  and  N_6
REMARK    7  A    between atoms: C_7  and  C_9
REMARK    8  A    between atoms: C_14  and  O_15
REMARK    9  A    between atoms: O_15  and  C_16
REMARK   10  A    between atoms: C_16  and  C_17
REMARK                            x       y       z     vdW  Elec       q    Type
REMARK                         _______ _______ _______ _____ _____    ______ ____
ROOT
ATOM      1  N   UNL     1       4.574   3.790  17.572  0.00  0.00    +0.000 N 
ATOM      2  C   UNL     1       3.201   3.540  17.633  0.00  0.00    +0.000 C 
ATOM      3  O   UNL     1       2.526   3.259  16.652  0.00  0.00    +0.000 OA
ATOM      4  H   UNL     1       5.047   4.078  18.416  0.00  0.00    +0.000 HD
ENDROOT
BRANCH   2   5
ATOM      5  C   UNL     1       2.611   3.600  19.027  0.00  0.00    +0.000 A 
ATOM      6  C   UNL     1       1.753   2.534  19.383  0.00  0.00    +0.000 A 
ATOM      7  C   UNL     1       1.192   2.433  20.654  0.00  0.00    +0.000 A 
ATOM      8  C   UNL     1       1.485   3.385  21.611  0.00  0.00    +0.000 A 
ATOM      9  C   UNL     1       2.301   4.463  21.273  0.00  0.00    +0.000 A 
ATOM     10  C   UNL     1       2.811   4.638  19.965  0.00  0.00    +0.000 A 
BRANCH  10  11
ATOM     11  O   UNL     1       3.469   5.802  19.613  0.00  0.00    +0.000 OA
BRANCH  11  12
ATOM     12  C   UNL     1       2.796   6.573  18.595  0.00  0.00    +0.000 C 
BRANCH  12  13
ATOM     13  C   UNL     1       2.016   7.775  19.073  0.00  0.00    +0.000 A 
ATOM     14  C   UNL     1       1.637   7.935  20.401  0.00  0.00    +0.000 A 
ATOM     15  C   UNL     1       1.089   9.149  20.787  0.00  0.00    +0.000 A 
ATOM     16  N   UNL     1       0.891  10.195  19.952  0.00  0.00    +0.000 NA
ATOM     17  C   UNL     1       1.250  10.017  18.666  0.00  0.00    +0.000 A 
ATOM     18  C   UNL     1       1.804   8.842  18.184  0.00  0.00    +0.000 A 
ENDBRANCH  12  13
ENDBRANCH  11  12
ENDBRANCH  10  11
ENDBRANCH   2   5
BRANCH   1  19
ATOM     19  C   UNL     1       5.440   3.505  16.422  0.00  0.00    +0.000 C 
BRANCH  19  20
ATOM     20  C   UNL     1       5.969   4.809  15.727  0.00  0.00    +0.000 C 
BRANCH  20  21
ATOM     21  C   UNL     1       6.492   4.598  14.304  0.00  0.00    +0.000 A 
ATOM     22  C   UNL     1       5.899   3.628  13.477  0.00  0.00    +0.000 A 
ATOM     23  C   UNL     1       6.263   3.501  12.134  0.00  0.00    +0.000 A 
ATOM     24  C   UNL     1       7.253   4.322  11.602  0.00  0.00    +0.000 A 
ATOM     25  C   UNL     1       7.893   5.247  12.419  0.00  0.00    +0.000 A 
ATOM     26  C   UNL     1       7.519   5.383  13.758  0.00  0.00    +0.000 A 
ENDBRANCH  20  21
BRANCH  20  28
ATOM     27  C   UNL     1       7.649   4.694  17.720  0.00  0.00    +0.000 C 
ATOM     28  C   UNL     1       6.994   5.577  16.642  0.00  0.00    +0.000 C 
ATOM     29  C   UNL     1       6.419   6.828  17.315  0.00  0.00    +0.000 C 
ENDBRANCH  20  28
ENDBRANCH  19  20
ENDBRANCH   1  19
TORSDOF 8
ENDMDL
MODEL 3
REMARK VINA RESULT:      -8.0      1.167      1.561
REMARK  Name = 
REMARK  10 active torsions:
REMARK  status: ('A' for Active; 'I' for Inactive)
REMARK    1  A    between atoms: C_1  and  C_2
REMARK    2  A    between atoms: C_2  and  C_3
REMARK    3  A    between atoms: C_2  and  C_4
REMARK    4  A    between atoms: C_4  and  C_5
REMARK    5  A    between atoms: C_4  and  C_23
REMARK    6  A    between atoms: C_5  and  N_6
REMARK    7  A    between atoms: C_7  and  C_9
REMARK    8  A    between atoms: C_14  and  O_15
REMARK    9  A    between atoms: O_15  and  C_16
REMARK   10  A    between atoms: C_16  and  C_17
REMARK                            x       y       z     vdW  Elec       q    Type
REMARK                         _______ _______ _______ _____ _____    ______ ____
ROOT
ATOM      1  N   UNL     1       4.394   3.713  17.438  0.00  0.00    +0.000 N 
ATOM      2  C   UNL     1       3.629   2.718  18.050  0.00  0.00    +0.000 C 
ATOM      3  O   UNL     1       3.589   1.562  17.652  0.00  0.00    +0.000 OA
ATOM      4  H   UNL     1       4.323   4.658  17.789  0.00  0.00    +0.000 HD
ENDROOT
BRANCH   2   5
ATOM      5  C   UNL     1       2.876   3.171  19.285  0.00  0.00    +0.000 A 
ATOM      6  C   UNL     1       2.699   2.198  20.295  0.00  0.00    +0.000 A 
ATOM      7  C   UNL     1       2.080   2.497  21.506  0.00  0.00    +0.000 A 
ATOM      8  C   UNL     1       1.636   3.782  21.750  0.00  0.00    +0.000 A 
ATOM      9  C   UNL     1       1.769   4.750  20.757  0.00  0.00    +0.000 A 
ATOM     10  C   UNL     1       2.313   4.452  19.485  0.00  0.00    +0.000 A 
BRANCH  10  11
ATOM     11  O   UNL     1       2.272   5.382  18.463  0.00  0.00    +0.000 OA
BRANCH  11  12
ATOM     12  C   UNL     1       3.011   6.592  18.737  0.00  0.00    +0.000 C 
BRANCH  12  13
ATOM     13  C   UNL     1       2.198   7.859  18.852  0.00  0.00    +0.000 A 
ATOM     14  C   UNL     1       1.546   8.221  20.026  0.00  0.00    +0.000 A 
ATOM     15  C   UNL     1       0.981   9.485  20.102  0.00  0.00    +0.000 A 
ATOM     16  N   UNL     1       1.015  10.397  19.102  0.00  0.00    +0.000 NA
ATOM     17  C   UNL     1       1.637  10.023  17.968  0.00  0.00    +0.000 A 
ATOM     18  C   UNL     1       2.231   8.783  17.794  0.00  0.00    +0.000 A 
ENDBRANCH  12  13
ENDBRANCH  11  12
ENDBRANCH  10  11
ENDBRANCH   2   5
BRANCH   1  19
ATOM     19  C   UNL     1       5.436   3.485  16.430  0.00  0.00    +0.000 C 
BRANCH  19  20
ATOM     20  C   UNL     1       5.911   4.812  15.740  0.00  0.00    +0.000 C 
BRANCH  20  21
ATOM     21  C   UNL     1       6.345   4.646  14.283  0.00  0.00    +0.000 A 
ATOM     22  C   UNL     1       7.424   5.398  13.783  0.00  0.00    +0.000 A 
ATOM     23  C   UNL     1       7.929   5.174  12.501  0.00  0.00    +0.000 A 
ATOM     24  C   UNL     1       7.342   4.217  11.679  0.00  0.00    +0.000 A 
ATOM     25  C   UNL     1       6.236   3.506  12.132  0.00  0.00    +0.000 A 
ATOM     26  C   UNL     1       5.740   3.719  13.420  0.00  0.00    +0.000 A 
ENDBRANCH  20  21
BRANCH  20  28
ATOM     27  C   UNL     1       7.640   4.682  17.689  0.00  0.00    +0.000 C 
ATOM     28  C   UNL     1       6.985   5.565  16.611  0.00  0.00    +0.000 C 
ATOM     29  C   UNL     1       6.470   6.848  17.273  0.00  0.00    +0.000 C 
ENDBRANCH  20  28
ENDBRANCH  19  20
ENDBRANCH   1  19
TORSDOF 8
ENDMDL
MODEL 4
REMARK VINA RESULT:      -7.9      1.666      4.514
REMARK  Name = 
REMARK  10 active torsions:
REMARK  status: ('A' for Active; 'I' for Inactive)
REMARK    1  A    between atoms: C_1  and  C_2
REMARK    2  A    between atoms: C_2  and  C_3
REMARK    3  A    between atoms: C_2  and  C_4
REMARK    4  A    between atoms: C_4  and  C_5
REMARK    5  A    between atoms: C_4  and  C_23
REMARK    6  A    between atoms: C_5  and  N_6
REMARK    7  A    between atoms: C_7  and  C_9
REMARK    8  A    between atoms: C_14  and  O_15
REMARK    9  A    between atoms: O_15  and  C_16
REMARK   10  A    between atoms: C_16  and  C_17
REMARK                            x       y       z     vdW  Elec       q    Type
REMARK                         _______ _______ _______ _____ _____    ______ ____
ROOT
ATOM      1  N   UNL     1       4.199   5.911  17.670  0.00  0.00    +0.000 N 
ATOM      2  C   UNL     1       3.681   7.149  17.282  0.00  0.00    +0.000 C 
ATOM      3  O   UNL     1       3.924   7.670  16.202  0.00  0.00    +0.000 OA
ATOM      4  H   UNL     1       4.002   5.580  18.603  0.00  0.00    +0.000 HD
ENDROOT
BRANCH   2   5
ATOM      5  C   UNL     1       2.749   7.787  18.293  0.00  0.00    +0.000 A 
ATOM      6  C   UNL     1       2.184   9.028  17.918  0.00  0.00    +0.000 A 
ATOM      7  C   UNL     1       1.264   9.692  18.725  0.00  0.00    +0.000 A 
ATOM      8  C   UNL     1       0.869   9.128  19.923  0.00  0.00    +0.000 A 
ATOM      9  C   UNL     1       1.438   7.923  20.329  0.00  0.00    +0.000 A 
ATOM     10  C   UNL     1       2.440   7.271  19.571  0.00  0.00    +0.000 A 
BRANCH  10  11
ATOM     11  O   UNL     1       3.110   6.174  20.081  0.00  0.00    +0.000 OA
BRANCH  11  12
ATOM     12  C   UNL     1       2.253   5.058  20.402  0.00  0.00    +0.000 C 
BRANCH  12  13
ATOM     13  C   UNL     1       2.528   3.770  19.662  0.00  0.00    +0.000 A 
ATOM     14  C   UNL     1       1.808   3.392  18.534  0.00  0.00    +0.000 A 
ATOM     15  C   UNL     1       2.247   2.293  17.811  0.00  0.00    +0.000 A 
ATOM     16  N   UNL     1       3.333   1.554  18.133  0.00  0.00    +0.000 NA
ATOM     17  C   UNL     1       4.010   1.925  19.236  0.00  0.00    +0.000 A 
ATOM     18  C   UNL     1       3.650   3.007  20.025  0.00  0.00    +0.000 A 
ENDBRANCH  12  13
ENDBRANCH  11  12
ENDBRANCH  10  11
ENDBRANCH   2   5
BRANCH   1  19
ATOM     19  C   UNL     1       4.868   4.953  16.782  0.00  0.00    +0.000 C 
BRANCH  19  20
ATOM     20  C   UNL     1       6.037   5.605  15.962  0.00  0.00    +0.000 C 
BRANCH  20  21
ATOM     21  C   UNL     1       6.325   4.925  14.623  0.00  0.00    +0.000 A 
ATOM     22  C   UNL     1       5.407   3.997  14.097  0.00  0.00    +0.000 A 
ATOM     23  C   UNL     1       5.574   3.460  12.819  0.00  0.00    +0.000 A 
ATOM     24  C   UNL     1       6.681   3.814  12.054  0.00  0.00    +0.000 A 
ATOM     25  C   UNL     1       7.631   4.683  12.580  0.00  0.00    +0.000 A 
ATOM     26  C   UNL     1       7.456   5.232  13.852  0.00  0.00    +0.000 A 
ENDBRANCH  20  21
BRANCH  20  28
ATOM     27  C   UNL     1       7.508   4.694  17.915  0.00  0.00    +0.000 C 
ATOM     28  C   UNL     1       7.331   5.783  16.842  0.00  0.00    +0.000 C 
ATOM     29  C   UNL     1       7.450   7.156  17.512  0.00  0.00    +0.000 C 
ENDBRANCH  20  28
ENDBRANCH  19  20
ENDBRANCH   1  19
TORSDOF 8
ENDMDL
MODEL 5
REMARK VINA RESULT:      -7.8      2.911      5.942
REMARK  Name = 
REMARK  10 active torsions:
REMARK  status: ('A' for Active; 'I' for Inactive)
REMARK    1  A    between atoms: C_1  and  C_2
REMARK    2  A    between atoms: C_2  and  C_3
REMARK    3  A    between atoms: C_2  and  C_4
REMARK    4  A    between atoms: C_4  and  C_5
REMARK    5  A    between atoms: C_4  and  C_23
REMARK    6  A    between atoms: C_5  and  N_6
REMARK    7  A    between atoms: C_7  and  C_9
REMARK    8  A    between atoms: C_14  and  O_15
REMARK    9  A    between atoms: O_15  and  C_16
REMARK   10  A    between atoms: C_16  and  C_17
REMARK                            x       y       z     vdW  Elec       q    Type
REMARK                         _______ _______ _______ _____ _____    ______ ____
ROOT
ATOM      1  N   UNL     1       3.237   7.368  18.383  0.00  0.00    +0.000 N 
ATOM      2  C   UNL     1       2.348   8.434  18.224  0.00  0.00    +0.000 C 
ATOM      3  O   UNL     1       2.267   9.093  17.196  0.00  0.00    +0.000 OA
ATOM      4  H   UNL     1       3.287   6.916  19.284  0.00  0.00    +0.000 HD
ENDROOT
BRANCH   2   5
ATOM      5  C   UNL     1       1.449   8.689  19.416  0.00  0.00    +0.000 A 
ATOM      6  C   UNL     1       1.574   7.780  20.493  0.00  0.00    +0.000 A 
ATOM      7  C   UNL     1       0.852   7.934  21.674  0.00  0.00    +0.000 A 
ATOM      8  C   UNL     1      -0.002   9.009  21.821  0.00  0.00    +0.000 A 
ATOM      9  C   UNL     1      -0.167   9.899  20.761  0.00  0.00    +0.000 A 
ATOM     10  C   UNL     1       0.485   9.717  19.518  0.00  0.00    +0.000 A 
BRANCH  10  11
ATOM     11  O   UNL     1       0.169  10.511  18.431  0.00  0.00    +0.000 OA
BRANCH  11  12
ATOM     12  C   UNL     1      -1.029  11.298  18.605  0.00  0.00    +0.000 C 
BRANCH  12  13
ATOM     13  C   UNL     1      -2.185  10.964  17.692  0.00  0.00    +0.000 A 
ATOM     14  C   UNL     1      -3.388  11.659  17.731  0.00  0.00    +0.000 A 
ATOM     15  C   UNL     1      -4.323  11.412  16.737  0.00  0.00    +0.000 A 
ATOM     16  N   UNL     1      -4.146  10.529  15.727  0.00  0.00    +0.000 NA
ATOM     17  C   UNL     1      -2.982   9.854  15.714  0.00  0.00    +0.000 A 
ATOM     18  C   UNL     1      -1.986  10.029  16.662  0.00  0.00    +0.000 A 
ENDBRANCH  12  13
ENDBRANCH  11  12
ENDBRANCH  10  11
ENDBRANCH   2   5
BRANCH   1  19
ATOM     19  C   UNL     1       3.993   6.723  17.303  0.00  0.00    +0.000 C 
BRANCH  19  20
ATOM     20  C   UNL     1       3.866   5.159  17.328  0.00  0.00    +0.000 C 
BRANCH  20  21
ATOM     21  C   UNL     1       2.983   4.615  18.453  0.00  0.00    +0.000 A 
ATOM     22  C   UNL     1       3.447   4.639  19.781  0.00  0.00    +0.000 A 
ATOM     23  C   UNL     1       2.618   4.274  20.843  0.00  0.00    +0.000 A 
ATOM     24  C   UNL     1       1.318   3.845  20.595  0.00  0.00    +0.000 A 
ATOM     25  C   UNL     1       0.860   3.756  19.285  0.00  0.00    +0.000 A 
ATOM     26  C   UNL     1       1.685   4.136  18.223  0.00  0.00    +0.000 A 
ENDBRANCH  20  21
BRANCH  20  28
ATOM     27  C   UNL     1       6.434   5.367  17.735  0.00  0.00    +0.000 C 
ATOM     28  C   UNL     1       5.277   4.463  17.273  0.00  0.00    +0.000 C 
ATOM     29  C   UNL     1       5.632   3.871  15.905  0.00  0.00    +0.000 C 
ENDBRANCH  20  28
ENDBRANCH  19  20
ENDBRANCH   1  19
TORSDOF 8
ENDMDL
MODEL 6
REMARK VINA RESULT:      -7.6      3.205      5.644
REMARK  Name = 
REMARK  10 active torsions:
REMARK  status: ('A' for Active; 'I' for Inactive)
REMARK    1  A    between atoms: C_1  and  C_2
REMARK    2  A    between atoms: C_2  and  C_3
REMARK    3  A    between atoms: C_2  and  C_4
REMARK    4  A    between atoms: C_4  and  C_5
REMARK    5  A    between atoms: C_4  and  C_23
REMARK    6  A    between atoms: C_5  and  N_6
REMARK    7  A    between atoms: C_7  and  C_9
REMARK    8  A    between atoms: C_14  and  O_15
REMARK    9  A    between atoms: O_15  and  C_16
REMARK   10  A    between atoms: C_16  and  C_17
REMARK                            x       y       z     vdW  Elec       q    Type
REMARK                         _______ _______ _______ _____ _____    ______ ____
ROOT
ATOM      1  N   UNL     1       2.227   6.669  19.491  0.00  0.00    +0.000 N 
ATOM      2  C   UNL     1       2.025   7.983  19.062  0.00  0.00    +0.000 C 
ATOM      3  O   UNL     1       2.426   8.408  17.987  0.00  0.00    +0.000 OA
ATOM      4  H   UNL     1       1.921   6.415  20.419  0.00  0.00    +0.000 HD
ENDROOT
BRANCH   2   5
ATOM      5  C   UNL     1       1.223   8.842  20.018  0.00  0.00    +0.000 A 
ATOM      6  C   UNL     1       1.240   8.442  21.375  0.00  0.00    +0.000 A 
ATOM      7  C   UNL     1       0.597   9.177  22.367  0.00  0.00    +0.000 A 
ATOM      8  C   UNL     1      -0.068  10.342  22.037  0.00  0.00    +0.000 A 
ATOM      9  C   UNL     1      -0.127  10.738  20.702  0.00  0.00    +0.000 A 
ATOM     10  C   UNL     1       0.441   9.964  19.662  0.00  0.00    +0.000 A 
BRANCH  10  11
ATOM     11  O   UNL     1       0.217  10.287  18.337  0.00  0.00    +0.000 OA
BRANCH  11  12
ATOM     12  C   UNL     1      -0.861   9.548  17.724  0.00  0.00    +0.000 C 
BRANCH  12  13
ATOM     13  C   UNL     1      -2.059  10.356  17.283  0.00  0.00    +0.000 A 
ATOM     14  C   UNL     1      -2.516  10.352  15.970  0.00  0.00    +0.000 A 
ATOM     15  C   UNL     1      -3.726  10.970  15.694  0.00  0.00    +0.000 A 
ATOM     16  N   UNL     1      -4.497  11.586  16.620  0.00  0.00    +0.000 NA
ATOM     17  C   UNL     1      -4.031  11.593  17.883  0.00  0.00    +0.000 A 
ATOM     18  C   UNL     1      -2.834  11.005  18.259  0.00  0.00    +0.000 A 
ENDBRANCH  12  13
ENDBRANCH  11  12
ENDBRANCH  10  11
ENDBRANCH   2   5
BRANCH   1  19
ATOM     19  C   UNL     1       2.696   5.562  18.649  0.00  0.00    +0.000 C 
BRANCH  19  20
ATOM     20  C   UNL     1       4.045   4.944  19.159  0.00  0.00    +0.000 C 
BRANCH  20  21
ATOM     21  C   UNL     1       5.298   5.671  18.668  0.00  0.00    +0.000 A 
ATOM     22  C   UNL     1       6.525   5.474  19.327  0.00  0.00    +0.000 A 
ATOM     23  C   UNL     1       7.710   6.018  18.826  0.00  0.00    +0.000 A 
ATOM     24  C   UNL     1       7.686   6.797  17.674  0.00  0.00    +0.000 A 
ATOM     25  C   UNL     1       6.474   7.053  17.041  0.00  0.00    +0.000 A 
ATOM     26  C   UNL     1       5.291   6.497  17.534  0.00  0.00    +0.000 A 
ENDBRANCH  20  21
BRANCH  20  28
ATOM     27  C   UNL     1       3.346   2.942  17.638  0.00  0.00    +0.000 C 
ATOM     28  C   UNL     1       4.104   3.392  18.901  0.00  0.00    +0.000 C 
ATOM     29  C   UNL     1       3.634   2.540  20.085  0.00  0.00    +0.000 C 
ENDBRANCH  20  28
ENDBRANCH  19  20
ENDBRANCH   1  19
TORSDOF 8
ENDMDL
MODEL 7
REMARK VINA RESULT:      -7.6      3.284      6.438
REMARK  Name = 
REMARK  10 active torsions:
REMARK  status: ('A' for Active; 'I' for Inactive)
REMARK    1  A    between atoms: C_1  and  C_2
REMARK    2  A    between atoms: C_2  and  C_3
REMARK    3  A    between atoms: C_2  and  C_4
REMARK    4  A    between atoms: C_4  and  C_5
REMARK    5  A    between atoms: C_4  and  C_23
REMARK    6  A    between atoms: C_5  and  N_6
REMARK    7  A    between atoms: C_7  and  C_9
REMARK    8  A    between atoms: C_14  and  O_15
REMARK    9  A    between atoms: O_15  and  C_16
REMARK   10  A    between atoms: C_16  and  C_17
REMARK                            x       y       z     vdW  Elec       q    Type
REMARK                         _______ _______ _______ _____ _____    ______ ____
ROOT
ATOM      1  N   UNL     1       2.171   7.540  18.752  0.00  0.00    +0.000 N 
ATOM      2  C   UNL     1       1.865   8.902  18.811  0.00  0.00    +0.000 C 
ATOM      3  O   UNL     1       2.157   9.695  17.926  0.00  0.00    +0.000 OA
ATOM      4  H   UNL     1       1.951   6.964  19.552  0.00  0.00    +0.000 HD
ENDROOT
BRANCH   2   5
ATOM      5  C   UNL     1       1.094   9.322  20.046  0.00  0.00    +0.000 A 
ATOM      6  C   UNL     1       1.398   8.620  21.235  0.00  0.00    +0.000 A 
ATOM      7  C   UNL     1       0.808   8.946  22.454  0.00  0.00    +0.000 A 
ATOM      8  C   UNL     1      -0.090   9.993  22.523  0.00  0.00    +0.000 A 
ATOM      9  C   UNL     1      -0.431  10.677  21.358  0.00  0.00    +0.000 A 
ATOM     10  C   UNL     1       0.085  10.310  20.093  0.00  0.00    +0.000 A 
BRANCH  10  11
ATOM     11  O   UNL     1      -0.403  10.889  18.936  0.00  0.00    +0.000 OA
BRANCH  11  12
ATOM     12  C   UNL     1      -1.794  11.266  19.007  0.00  0.00    +0.000 C 
BRANCH  12  13
ATOM     13  C   UNL     1      -2.643  10.920  17.806  0.00  0.00    +0.000 A 
ATOM     14  C   UNL     1      -3.872  11.522  17.566  0.00  0.00    +0.000 A 
ATOM     15  C   UNL     1      -4.495  11.284  16.349  0.00  0.00    +0.000 A 
ATOM     16  N   UNL     1      -3.987  10.495  15.375  0.00  0.00    +0.000 NA
ATOM     17  C   UNL     1      -2.802   9.908  15.631  0.00  0.00    +0.000 A 
ATOM     18  C   UNL     1      -2.103  10.083  16.815  0.00  0.00    +0.000 A 
ENDBRANCH  12  13
ENDBRANCH  11  12
ENDBRANCH  10  11
ENDBRANCH   2   5
BRANCH   1  19
ATOM     19  C   UNL     1       2.632   6.823  17.557  0.00  0.00    +0.000 C 
BRANCH  19  20
ATOM     20  C   UNL     1       3.342   5.467  17.902  0.00  0.00    +0.000 C 
BRANCH  20  21
ATOM     21  C   UNL     1       2.611   4.620  18.945  0.00  0.00    +0.000 A 
ATOM     22  C   UNL     1       2.847   4.837  20.315  0.00  0.00    +0.000 A 
ATOM     23  C   UNL     1       2.101   4.174  21.292  0.00  0.00    +0.000 A 
ATOM     24  C   UNL     1       1.126   3.255  20.918  0.00  0.00    +0.000 A 
ATOM     25  C   UNL     1       0.918   2.982  19.570  0.00  0.00    +0.000 A 
ATOM     26  C   UNL     1       1.655   3.656  18.593  0.00  0.00    +0.000 A 
ENDBRANCH  20  21
BRANCH  20  28
ATOM     27  C   UNL     1       5.564   6.723  17.361  0.00  0.00    +0.000 C 
ATOM     28  C   UNL     1       4.861   5.683  18.253  0.00  0.00    +0.000 C 
ATOM     29  C   UNL     1       5.694   4.396  18.255  0.00  0.00    +0.000 C 
ENDBRANCH  20  28
ENDBRANCH  19  20
ENDBRANCH   1  19
TORSDOF 8
ENDMDL
MODEL 8
REMARK VINA RESULT:      -7.6      1.778      4.576
REMARK  Name = 
REMARK  10 active torsions:
REMARK  status: ('A' for Active; 'I' for Inactive)
REMARK    1  A    between atoms: C_1  and  C_2
REMARK    2  A    between atoms: C_2  and  C_3
REMARK    3  A    between atoms: C_2  and  C_4
REMARK    4  A    between atoms: C_4  and  C_5
REMARK    5  A    between atoms: C_4  and  C_23
REMARK    6  A    between atoms: C_5  and  N_6
REMARK    7  A    between atoms: C_7  and  C_9
REMARK    8  A    between atoms: C_14  and  O_15
REMARK    9  A    between atoms: O_15  and  C_16
REMARK   10  A    between atoms: C_16  and  C_17
REMARK                            x       y       z     vdW  Elec       q    Type
REMARK                         _______ _______ _______ _____ _____    ______ ____
ROOT
ATOM      1  N   UNL     1       4.325   6.387  18.955  0.00  0.00    +0.000 N 
ATOM      2  C   UNL     1       3.225   6.956  18.309  0.00  0.00    +0.000 C 
ATOM      3  O   UNL     1       3.047   6.889  17.101  0.00  0.00    +0.000 OA
ATOM      4  H   UNL     1       4.432   6.541  19.947  0.00  0.00    +0.000 HD
ENDROOT
BRANCH   2   5
ATOM      5  C   UNL     1       2.232   7.631  19.233  0.00  0.00    +0.000 A 
ATOM      6  C   UNL     1       1.844   8.943  18.875  0.00  0.00    +0.000 A 
ATOM      7  C   UNL     1       0.893   9.655  19.602  0.00  0.00    +0.000 A 
ATOM      8  C   UNL     1       0.289   9.070  20.698  0.00  0.00    +0.000 A 
ATOM      9  C   UNL     1       0.679   7.791  21.090  0.00  0.00    +0.000 A 
ATOM     10  C   UNL     1       1.706   7.081  20.424  0.00  0.00    +0.000 A 
BRANCH  10  11
ATOM     11  O   UNL     1       2.193   5.894  20.939  0.00  0.00    +0.000 OA
BRANCH  11  12
ATOM     12  C   UNL     1       1.472   4.723  20.501  0.00  0.00    +0.000 C 
BRANCH  12  13
ATOM     13  C   UNL     1       2.241   3.746  19.644  0.00  0.00    +0.000 A 
ATOM     14  C   UNL     1       3.217   2.905  20.168  0.00  0.00    +0.000 A 
ATOM     15  C   UNL     1       3.739   1.914  19.349  0.00  0.00    +0.000 A 
ATOM     16  N   UNL     1       3.366   1.711  18.065  0.00  0.00    +0.000 NA
ATOM     17  C   UNL     1       2.431   2.544  17.570  0.00  0.00    +0.000 A 
ATOM     18  C   UNL     1       1.850   3.565  18.307  0.00  0.00    +0.000 A 
ENDBRANCH  12  13
ENDBRANCH  11  12
ENDBRANCH  10  11
ENDBRANCH   2   5
BRANCH   1  19
ATOM     19  C   UNL     1       5.263   5.431  18.353  0.00  0.00    +0.000 C 
BRANCH  19  20
ATOM     20  C   UNL     1       6.136   6.074  17.219  0.00  0.00    +0.000 C 
BRANCH  20  21
ATOM     21  C   UNL     1       6.201   5.251  15.931  0.00  0.00    +0.000 A 
ATOM     22  C   UNL     1       5.154   4.369  15.609  0.00  0.00    +0.000 A 
ATOM     23  C   UNL     1       5.120   3.705  14.381  0.00  0.00    +0.000 A 
ATOM     24  C   UNL     1       6.150   3.885  13.463  0.00  0.00    +0.000 A 
ATOM     25  C   UNL     1       7.225   4.706  13.787  0.00  0.00    +0.000 A 
ATOM     26  C   UNL     1       7.252   5.382  15.010  0.00  0.00    +0.000 A 
ENDBRANCH  20  21
BRANCH  20  28
ATOM     27  C   UNL     1       7.883   5.943  19.152  0.00  0.00    +0.000 C 
ATOM     28  C   UNL     1       7.560   6.486  17.748  0.00  0.00    +0.000 C 
ATOM     29  C   UNL     1       7.822   7.996  17.734  0.00  0.00    +0.000 C 
ENDBRANCH  20  28
ENDBRANCH  19  20
ENDBRANCH   1  19
TORSDOF 8
ENDMDL
MODEL 9
REMARK VINA RESULT:      -7.6      3.323      6.334
REMARK  Name = 
REMARK  10 active torsions:
REMARK  status: ('A' for Active; 'I' for Inactive)
REMARK    1  A    between atoms: C_1  and  C_2
REMARK    2  A    between atoms: C_2  and  C_3
REMARK    3  A    between atoms: C_2  and  C_4
REMARK    4  A    between atoms: C_4  and  C_5
REMARK    5  A    between atoms: C_4  and  C_23
REMARK    6  A    between atoms: C_5  and  N_6
REMARK    7  A    between atoms: C_7  and  C_9
REMARK    8  A    between atoms: C_14  and  O_15
REMARK    9  A    between atoms: O_15  and  C_16
REMARK   10  A    between atoms: C_16  and  C_17
REMARK                            x       y       z     vdW  Elec       q    Type
REMARK                         _______ _______ _______ _____ _____    ______ ____
ROOT
ATOM      1  N   UNL     1       2.546   8.021  18.568  0.00  0.00    +0.000 N 
ATOM      2  C   UNL     1       1.727   9.151  18.503  0.00  0.00    +0.000 C 
ATOM      3  O   UNL     1       1.612   9.840  17.499  0.00  0.00    +0.000 OA
ATOM      4  H   UNL     1       2.635   7.543  19.453  0.00  0.00    +0.000 HD
ENDROOT
BRANCH   2   5
ATOM      5  C   UNL     1       0.947   9.437  19.770  0.00  0.00    +0.000 A 
ATOM      6  C   UNL     1       1.008   8.444  20.775  0.00  0.00    +0.000 A 
ATOM      7  C   UNL     1       0.389   8.607  22.011  0.00  0.00    +0.000 A 
ATOM      8  C   UNL     1      -0.297   9.775  22.286  0.00  0.00    +0.000 A 
ATOM      9  C   UNL     1      -0.400  10.753  21.299  0.00  0.00    +0.000 A 
ATOM     10  C   UNL     1       0.143  10.576  20.005  0.00  0.00    +0.000 A 
BRANCH  10  11
ATOM     11  O   UNL     1      -0.124  11.482  18.996  0.00  0.00    +0.000 OA
BRANCH  11  12
ATOM     12  C   UNL     1      -1.424  12.103  19.091  0.00  0.00    +0.000 C 
BRANCH  12  13
ATOM     13  C   UNL     1      -2.478  11.595  18.136  0.00  0.00    +0.000 A 
ATOM     14  C   UNL     1      -3.838  11.696  18.407  0.00  0.00    +0.000 A 
ATOM     15  C   UNL     1      -4.735  11.376  17.399  0.00  0.00    +0.000 A 
ATOM     16  N   UNL     1      -4.376  10.964  16.161  0.00  0.00    +0.000 NA
ATOM     17  C   UNL     1      -3.055  10.857  15.921  0.00  0.00    +0.000 A 
ATOM     18  C   UNL     1      -2.081  11.152  16.863  0.00  0.00    +0.000 A 
ENDBRANCH  12  13
ENDBRANCH  11  12
ENDBRANCH  10  11
ENDBRANCH   2   5
BRANCH   1  19
ATOM     19  C   UNL     1       3.165   7.352  17.417  0.00  0.00    +0.000 C 
BRANCH  19  20
ATOM     20  C   UNL     1       3.613   5.884  17.741  0.00  0.00    +0.000 C 
BRANCH  20  21
ATOM     21  C   UNL     1       2.688   5.140  18.707  0.00  0.00    +0.000 A 
ATOM     22  C   UNL     1       1.720   4.251  18.205  0.00  0.00    +0.000 A 
ATOM     23  C   UNL     1       0.952   3.460  19.062  0.00  0.00    +0.000 A 
ATOM     24  C   UNL     1       1.114   3.567  20.440  0.00  0.00    +0.000 A 
ATOM     25  C   UNL     1       2.023   4.483  20.957  0.00  0.00    +0.000 A 
ATOM     26  C   UNL     1       2.802   5.264  20.100  0.00  0.00    +0.000 A 
ENDBRANCH  20  21
BRANCH  20  28
ATOM     27  C   UNL     1       6.043   6.757  17.373  0.00  0.00    +0.000 C 
ATOM     28  C   UNL     1       5.124   5.823  18.180  0.00  0.00    +0.000 C 
ATOM     29  C   UNL     1       5.725   4.414  18.170  0.00  0.00    +0.000 C 
ENDBRANCH  20  28
ENDBRANCH  19  20
ENDBRANCH   1  19
TORSDOF 8
ENDMDL
