MODEL 1
REMARK VINA RESULT:      -6.7      0.000      0.000
REMARK  Name = 
REMARK  11 active torsions:
REMARK  status: ('A' for Active; 'I' for Inactive)
REMARK    1  A    between atoms: N_1  and  CA_2
REMARK    2  A    between atoms: CA_2  and  C_3
REMARK    3  A    between atoms: CA_2  and  C_17
REMARK    4  A    between atoms: C_3  and  C_4
REMARK    5  A    between atoms: C_4  and  C_5
REMARK    6  A    between atoms: C_4  and  C_14
REMARK    7  A    between atoms: C_5  and  C_6
REMARK    8  A    between atoms: C_6  and  C_7
REMARK    9  A    between atoms: C_7  and  C_8
REMARK   10  A    between atoms: C_14  and  O_16
REMARK   11  A    between atoms: C_17  and  OXT_19
REMARK                            x       y       z     vdW  Elec       q    Type
REMARK                         _______ _______ _______ _____ _____    ______ ____
ROOT
ATOM      1  C   UNL     1       6.194   5.570  17.470  0.00  0.00    +0.000 C 
ENDROOT
BRANCH   1   2
ATOM      2  C   UNL     1       7.401   6.454  17.712  0.00  0.00    +0.000 C 
ATOM      3  O   UNL     1       7.973   6.558  18.786  0.00  0.00    +0.000 OA
BRANCH   2   4
ATOM      4  O   UNL     1       7.748   7.201  16.641  0.00  0.00    +0.000 OA
ATOM      5  H   UNL     1       7.639   6.767  15.773  0.00  0.00    +0.000 HD
ENDBRANCH   2   4
ENDBRANCH   1   2
BRANCH   1   6
ATOM      6  C   UNL     1       5.702   5.758  16.019  0.00  0.00    +0.000 C 
BRANCH   6   7
ATOM      7  CA  UNL     1       5.603   4.467  15.185  0.00  0.00    +0.000 C 
BRANCH   7   8
ATOM      8  N   UNL     1       5.851   3.212  15.943  0.00  0.00    +0.000 NA
ATOM      9  H1  UNL     1       4.986   2.873  16.375  0.00  0.00    +0.000 HD
ATOM     10  H2  UNL     1       6.450   3.430  16.752  0.00  0.00    +0.000 HD
ENDBRANCH   7   8
BRANCH   7  11
ATOM     11  C   UNL     1       6.616   4.508  14.017  0.00  0.00    +0.000 C 
ATOM     12  O   UNL     1       6.548   3.852  12.991  0.00  0.00    +0.000 OA
BRANCH  11  13
ATOM     13  OXT UNL     1       7.646   5.349  14.299  0.00  0.00    +0.000 OA
ATOM     14  HXT UNL     1       8.015   5.635  13.425  0.00  0.00    +0.000 HD
ENDBRANCH  11  13
ENDBRANCH   7  11
ENDBRANCH   6   7
ENDBRANCH   1   6
BRANCH   1  15
ATOM     15  C   UNL     1       5.074   5.930  18.472  0.00  0.00    +0.000 C 
BRANCH  15  16
ATOM     16  C   UNL     1       3.866   6.568  17.779  0.00  0.00    +0.000 C 
BRANCH  16  17
ATOM     17  C   UNL     1       2.681   6.771  18.734  0.00  0.00    +0.000 C 
BRANCH  17  18
ATOM     18  C   UNL     1       2.043   5.440  19.049  0.00  0.00    +0.000 A 
ATOM     19  C   UNL     1       1.762   5.085  20.376  0.00  0.00    +0.000 A 
ATOM     20  C   UNL     1       1.260   3.819  20.676  0.00  0.00    +0.000 A 
ATOM     21  C   UNL     1       1.035   2.896  19.656  0.00  0.00    +0.000 A 
ATOM     22  C   UNL     1       1.301   3.243  18.333  0.00  0.00    +0.000 A 
ATOM     23  C   UNL     1       1.801   4.510  18.028  0.00  0.00    +0.000 A 
ENDBRANCH  17  18
ENDBRANCH  16  17
ENDBRANCH  15  16
ENDBRANCH   1  15
TORSDOF 11
ENDMDL
MODEL 2
REMARK VINA RESULT:      -6.7      2.293      3.332
REMARK  Name = 
REMARK  11 active torsions:
REMARK  status: ('A' for Active; 'I' for Inactive)
REMARK    1  A    between atoms: N_1  and  CA_2
REMARK    2  A    between atoms: CA_2  and  C_3
REMARK    3  A    between atoms: CA_2  and  C_17
REMARK    4  A    between atoms: C_3  and  C_4
REMARK    5  A    between atoms: C_4  and  C_5
REMARK    6  A    between atoms: C_4  and  C_14
REMARK    7  A    between atoms: C_5  and  C_6
REMARK    8  A    between atoms: C_6  and  C_7
REMARK    9  A    between atoms: C_7  and  C_8
REMARK   10  A    between atoms: C_14  and  O_16
REMARK   11  A    between atoms: C_17  and  OXT_19
REMARK                            x       y       z     vdW  Elec       q    Type
REMARK                         _______ _______ _______ _____ _____    ______ ____
ROOT
ATOM      1  C   UNL     1       4.466   4.906  17.331  0.00  0.00    +0.000 C 
ENDROOT
BRANCH   1   2
ATOM      2  C   UNL     1       4.323   3.479  17.820  0.00  0.00    +0.000 C 
ATOM      3  O   UNL     1       3.530   2.670  17.363  0.00  0.00    +0.000 OA
BRANCH   2   4
ATOM      4  O   UNL     1       5.101   3.193  18.888  0.00  0.00    +0.000 OA
ATOM      5  H   UNL     1       5.795   3.850  19.090  0.00  0.00    +0.000 HD
ENDBRANCH   2   4
ENDBRANCH   1   2
BRANCH   1   6
ATOM      6  C   UNL     1       5.862   5.097  16.703  0.00  0.00    +0.000 C 
BRANCH   6   7
ATOM      7  CA  UNL     1       6.824   6.001  17.496  0.00  0.00    +0.000 C 
BRANCH   7   8
ATOM      8  N   UNL     1       7.669   6.898  16.664  0.00  0.00    +0.000 NA
ATOM      9  H1  UNL     1       7.980   7.708  17.208  0.00  0.00    +0.000 HD
ATOM     10  H2  UNL     1       7.079   7.316  15.931  0.00  0.00    +0.000 HD
ENDBRANCH   7   8
BRANCH   7  11
ATOM     11  C   UNL     1       7.776   5.139  18.359  0.00  0.00    +0.000 C 
ATOM     12  O   UNL     1       8.134   5.393  19.496  0.00  0.00    +0.000 OA
BRANCH  11  13
ATOM     13  OXT UNL     1       8.218   4.060  17.660  0.00  0.00    +0.000 OA
ATOM     14  HXT UNL     1       7.994   3.266  18.209  0.00  0.00    +0.000 HD
ENDBRANCH  11  13
ENDBRANCH   7  11
ENDBRANCH   6   7
ENDBRANCH   1   6
BRANCH   1  15
ATOM     15  C   UNL     1       4.263   5.885  18.509  0.00  0.00    +0.000 C 
BRANCH  15  16
ATOM     16  C   UNL     1       2.883   6.549  18.473  0.00  0.00    +0.000 C 
BRANCH  16  17
ATOM     17  C   UNL     1       2.178   6.510  19.837  0.00  0.00    +0.000 C 
BRANCH  17  18
ATOM     18  C   UNL     1       1.877   5.080  20.216  0.00  0.00    +0.000 A 
ATOM     19  C   UNL     1       2.446   4.517  21.367  0.00  0.00    +0.000 A 
ATOM     20  C   UNL     1       2.244   3.171  21.668  0.00  0.00    +0.000 A 
ATOM     21  C   UNL     1       1.474   2.373  20.822  0.00  0.00    +0.000 A 
ATOM     22  C   UNL     1       0.895   2.926  19.681  0.00  0.00    +0.000 A 
ATOM     23  C   UNL     1       1.093   4.273  19.379  0.00  0.00    +0.000 A 
ENDBRANCH  17  18
ENDBRANCH  16  17
ENDBRANCH  15  16
ENDBRANCH   1  15
TORSDOF 11
ENDMDL
MODEL 3
REMARK VINA RESULT:      -6.7      1.719      3.578
REMARK  Name = 
REMARK  11 active torsions:
REMARK  status: ('A' for Active; 'I' for Inactive)
REMARK    1  A    between atoms: N_1  and  CA_2
REMARK    2  A    between atoms: CA_2  and  C_3
REMARK    3  A    between atoms: CA_2  and  C_17
REMARK    4  A    between atoms: C_3  and  C_4
REMARK    5  A    between atoms: C_4  and  C_5
REMARK    6  A    between atoms: C_4  and  C_14
REMARK    7  A    between atoms: C_5  and  C_6
REMARK    8  A    between atoms: C_6  and  C_7
REMARK    9  A    between atoms: C_7  and  C_8
REMARK   10  A    between atoms: C_14  and  O_16
REMARK   11  A    between atoms: C_17  and  OXT_19
REMARK                            x       y       z     vdW  Elec       q    Type
REMARK                         _______ _______ _______ _____ _____    ______ ____
ROOT
ATOM      1  C   UNL     1       4.814   4.465  17.114  0.00  0.00    +0.000 C 
ENDROOT
BRANCH   1   2
ATOM      2  C   UNL     1       5.542   4.388  15.787  0.00  0.00    +0.000 C 
ATOM      3  O   UNL     1       5.519   5.265  14.938  0.00  0.00    +0.000 OA
BRANCH   2   4
ATOM      4  O   UNL     1       6.161   3.205  15.578  0.00  0.00    +0.000 OA
ATOM      5  H   UNL     1       6.458   2.739  16.383  0.00  0.00    +0.000 HD
ENDBRANCH   2   4
ENDBRANCH   1   2
BRANCH   1   6
ATOM      6  C   UNL     1       5.843   4.570  18.259  0.00  0.00    +0.000 C 
BRANCH   6   7
ATOM      7  CA  UNL     1       7.232   5.094  17.851  0.00  0.00    +0.000 C 
BRANCH   7   8
ATOM      8  N   UNL     1       8.271   4.043  17.682  0.00  0.00    +0.000 NA
ATOM      9  H1  UNL     1       8.053   3.445  16.881  0.00  0.00    +0.000 HD
ATOM     10  H2  UNL     1       8.217   3.398  18.483  0.00  0.00    +0.000 HD
ENDBRANCH   7   8
BRANCH   7  11
ATOM     11  C   UNL     1       7.756   6.096  18.907  0.00  0.00    +0.000 C 
ATOM     12  O   UNL     1       8.234   7.193  18.674  0.00  0.00    +0.000 OA
BRANCH  11  13
ATOM     13  OXT UNL     1       7.663   5.572  20.159  0.00  0.00    +0.000 OA
ATOM     14  HXT UNL     1       8.451   5.909  20.657  0.00  0.00    +0.000 HD
ENDBRANCH  11  13
ENDBRANCH   7  11
ENDBRANCH   6   7
ENDBRANCH   1   6
BRANCH   1  15
ATOM     15  C   UNL     1       3.926   3.214  17.297  0.00  0.00    +0.000 C 
BRANCH  15  16
ATOM     16  C   UNL     1       2.463   3.490  16.936  0.00  0.00    +0.000 C 
BRANCH  16  17
ATOM     17  C   UNL     1       1.841   4.589  17.810  0.00  0.00    +0.000 C 
BRANCH  17  18
ATOM     18  C   UNL     1       1.799   4.135  19.249  0.00  0.00    +0.000 A 
ATOM     19  C   UNL     1       2.425   4.893  20.249  0.00  0.00    +0.000 A 
ATOM     20  C   UNL     1       2.469   4.428  21.563  0.00  0.00    +0.000 A 
ATOM     21  C   UNL     1       1.890   3.202  21.892  0.00  0.00    +0.000 A 
ATOM     22  C   UNL     1       1.257   2.447  20.907  0.00  0.00    +0.000 A 
ATOM     23  C   UNL     1       1.209   2.910  19.591  0.00  0.00    +0.000 A 
ENDBRANCH  17  18
ENDBRANCH  16  17
ENDBRANCH  15  16
ENDBRANCH   1  15
TORSDOF 11
ENDMDL
MODEL 4
REMARK VINA RESULT:      -6.6      0.880      1.466
REMARK  Name = 
REMARK  11 active torsions:
REMARK  status: ('A' for Active; 'I' for Inactive)
REMARK    1  A    between atoms: N_1  and  CA_2
REMARK    2  A    between atoms: CA_2  and  C_3
REMARK    3  A    between atoms: CA_2  and  C_17
REMARK    4  A    between atoms: C_3  and  C_4
REMARK    5  A    between atoms: C_4  and  C_5
REMARK    6  A    between atoms: C_4  and  C_14
REMARK    7  A    between atoms: C_5  and  C_6
REMARK    8  A    between atoms: C_6  and  C_7
REMARK    9  A    between atoms: C_7  and  C_8
REMARK   10  A    between atoms: C_14  and  O_16
REMARK   11  A    between atoms: C_17  and  OXT_19
REMARK                            x       y       z     vdW  Elec       q    Type
REMARK                         _______ _______ _______ _____ _____    ______ ____
ROOT
ATOM      1  C   UNL     1       6.834   4.961  18.219  0.00  0.00    +0.000 C 
ENDROOT
BRANCH   1   2
ATOM      2  C   UNL     1       7.701   5.884  19.051  0.00  0.00    +0.000 C 
ATOM      3  O   UNL     1       8.207   6.915  18.635  0.00  0.00    +0.000 OA
BRANCH   2   4
ATOM      4  O   UNL     1       7.949   5.418  20.295  0.00  0.00    +0.000 OA
ATOM      5  H   UNL     1       8.890   5.273  20.510  0.00  0.00    +0.000 HD
ENDBRANCH   2   4
ENDBRANCH   1   2
BRANCH   1   6
ATOM      6  C   UNL     1       6.579   5.601  16.838  0.00  0.00    +0.000 C 
BRANCH   6   7
ATOM      7  CA  UNL     1       5.996   4.656  15.771  0.00  0.00    +0.000 C 
BRANCH   7   8
ATOM      8  N   UNL     1       5.851   3.240  16.202  0.00  0.00    +0.000 NA
ATOM      9  H1  UNL     1       6.735   2.736  16.090  0.00  0.00    +0.000 HD
ATOM     10  H2  UNL     1       5.219   2.761  15.545  0.00  0.00    +0.000 HD
ENDBRANCH   7   8
BRANCH   7  11
ATOM     11  C   UNL     1       6.887   4.664  14.507  0.00  0.00    +0.000 C 
ATOM     12  O   UNL     1       7.774   5.464  14.265  0.00  0.00    +0.000 OA
BRANCH  11  13
ATOM     13  OXT UNL     1       6.520   3.673  13.650  0.00  0.00    +0.000 OA
ATOM     14  HXT UNL     1       7.235   3.623  12.966  0.00  0.00    +0.000 HD
ENDBRANCH  11  13
ENDBRANCH   7  11
ENDBRANCH   6   7
ENDBRANCH   1   6
BRANCH   1  15
ATOM     15  C   UNL     1       5.498   4.700  18.950  0.00  0.00    +0.000 C 
BRANCH  15  16
ATOM     16  C   UNL     1       4.633   5.962  19.034  0.00  0.00    +0.000 C 
BRANCH  16  17
ATOM     17  C   UNL     1       3.388   5.880  18.139  0.00  0.00    +0.000 C 
BRANCH  17  18
ATOM     18  C   UNL     1       2.414   4.877  18.707  0.00  0.00    +0.000 A 
ATOM     19  C   UNL     1       1.970   4.993  20.031  0.00  0.00    +0.000 A 
ATOM     20  C   UNL     1       1.144   4.015  20.587  0.00  0.00    +0.000 A 
ATOM     21  C   UNL     1       0.756   2.913  19.826  0.00  0.00    +0.000 A 
ATOM     22  C   UNL     1       1.185   2.794  18.505  0.00  0.00    +0.000 A 
ATOM     23  C   UNL     1       2.009   3.772  17.946  0.00  0.00    +0.000 A 
ENDBRANCH  17  18
ENDBRANCH  16  17
ENDBRANCH  15  16
ENDBRANCH   1  15
TORSDOF 11
ENDMDL
MODEL 5
REMARK VINA RESULT:      -6.6      1.418      1.975
REMARK  Name = 
REMARK  11 active torsions:
REMARK  status: ('A' for Active; 'I' for Inactive)
REMARK    1  A    between atoms: N_1  and  CA_2
REMARK    2  A    between atoms: CA_2  and  C_3
REMARK    3  A    between atoms: CA_2  and  C_17
REMARK    4  A    between atoms: C_3  and  C_4
REMARK    5  A    between atoms: C_4  and  C_5
REMARK    6  A    between atoms: C_4  and  C_14
REMARK    7  A    between atoms: C_5  and  C_6
REMARK    8  A    between atoms: C_6  and  C_7
REMARK    9  A    between atoms: C_7  and  C_8
REMARK   10  A    between atoms: C_14  and  O_16
REMARK   11  A    between atoms: C_17  and  OXT_19
REMARK                            x       y       z     vdW  Elec       q    Type
REMARK                         _______ _______ _______ _____ _____    ______ ____
ROOT
ATOM      1  C   UNL     1       6.520   5.970  17.861  0.00  0.00    +0.000 C 
ENDROOT
BRANCH   1   2
ATOM      2  C   UNL     1       7.563   7.069  17.836  0.00  0.00    +0.000 C 
ATOM      3  O   UNL     1       7.747   7.823  16.892  0.00  0.00    +0.000 OA
BRANCH   2   4
ATOM      4  O   UNL     1       8.351   7.093  18.934  0.00  0.00    +0.000 OA
ATOM      5  H   UNL     1       7.985   7.569  19.704  0.00  0.00    +0.000 HD
ENDBRANCH   2   4
ENDBRANCH   1   2
BRANCH   1   6
ATOM      6  C   UNL     1       7.027   4.761  17.049  0.00  0.00    +0.000 C 
BRANCH   6   7
ATOM      7  CA  UNL     1       6.125   4.329  15.878  0.00  0.00    +0.000 C 
BRANCH   7   8
ATOM      8  N   UNL     1       5.766   2.886  15.865  0.00  0.00    +0.000 NA
ATOM      9  H1  UNL     1       4.780   2.756  16.112  0.00  0.00    +0.000 HD
ATOM     10  H2  UNL     1       6.266   2.417  16.633  0.00  0.00    +0.000 HD
ENDBRANCH   7   8
BRANCH   7  11
ATOM     11  C   UNL     1       6.813   4.645  14.529  0.00  0.00    +0.000 C 
ATOM     12  O   UNL     1       6.534   4.146  13.452  0.00  0.00    +0.000 OA
BRANCH  11  13
ATOM     13  OXT UNL     1       7.827   5.535  14.700  0.00  0.00    +0.000 OA
ATOM     14  HXT UNL     1       8.336   5.539  13.850  0.00  0.00    +0.000 HD
ENDBRANCH  11  13
ENDBRANCH   7  11
ENDBRANCH   6   7
ENDBRANCH   1   6
BRANCH   1  15
ATOM     15  C   UNL     1       5.191   6.498  17.276  0.00  0.00    +0.000 C 
BRANCH  15  16
ATOM     16  C   UNL     1       4.117   6.672  18.354  0.00  0.00    +0.000 C 
BRANCH  16  17
ATOM     17  C   UNL     1       2.839   5.880  18.041  0.00  0.00    +0.000 C 
BRANCH  17  18
ATOM     18  C   UNL     1       3.097   4.403  18.213  0.00  0.00    +0.000 A 
ATOM     19  C   UNL     1       2.489   3.473  17.358  0.00  0.00    +0.000 A 
ATOM     20  C   UNL     1       2.651   2.105  17.573  0.00  0.00    +0.000 A 
ATOM     21  C   UNL     1       3.421   1.652  18.645  0.00  0.00    +0.000 A 
ATOM     22  C   UNL     1       4.037   2.568  19.494  0.00  0.00    +0.000 A 
ATOM     23  C   UNL     1       3.879   3.938  19.280  0.00  0.00    +0.000 A 
ENDBRANCH  17  18
ENDBRANCH  16  17
ENDBRANCH  15  16
ENDBRANCH   1  15
TORSDOF 11
ENDMDL
MODEL 6
REMARK VINA RESULT:      -6.5      2.249      2.828
REMARK  Name = 
REMARK  11 active torsions:
REMARK  status: ('A' for Active; 'I' for Inactive)
REMARK    1  A    between atoms: N_1  and  CA_2
REMARK    2  A    between atoms: CA_2  and  C_3
REMARK    3  A    between atoms: CA_2  and  C_17
REMARK    4  A    between atoms: C_3  and  C_4
REMARK    5  A    between atoms: C_4  and  C_5
REMARK    6  A    between atoms: C_4  and  C_14
REMARK    7  A    between atoms: C_5  and  C_6
REMARK    8  A    between atoms: C_6  and  C_7
REMARK    9  A    between atoms: C_7  and  C_8
REMARK   10  A    between atoms: C_14  and  O_16
REMARK   11  A    between atoms: C_17  and  OXT_19
REMARK                            x       y       z     vdW  Elec       q    Type
REMARK                         _______ _______ _______ _____ _____    ______ ____
ROOT
ATOM      1  C   UNL     1       4.196   4.177  17.435  0.00  0.00    +0.000 C 
ENDROOT
BRANCH   1   2
ATOM      2  C   UNL     1       4.506   3.154  18.509  0.00  0.00    +0.000 C 
ATOM      3  O   UNL     1       5.198   3.375  19.491  0.00  0.00    +0.000 OA
BRANCH   2   4
ATOM      4  O   UNL     1       4.016   1.923  18.241  0.00  0.00    +0.000 OA
ATOM      5  H   UNL     1       4.672   1.199  18.249  0.00  0.00    +0.000 HD
ENDBRANCH   2   4
ENDBRANCH   1   2
BRANCH   1   6
ATOM      6  C   UNL     1       5.213   4.037  16.282  0.00  0.00    +0.000 C 
BRANCH   6   7
ATOM      7  CA  UNL     1       5.950   5.332  15.893  0.00  0.00    +0.000 C 
BRANCH   7   8
ATOM      8  N   UNL     1       6.308   5.439  14.454  0.00  0.00    +0.000 NA
ATOM      9  H1  UNL     1       7.147   4.890  14.248  0.00  0.00    +0.000 HD
ATOM     10  H2  UNL     1       6.604   6.407  14.261  0.00  0.00    +0.000 HD
ENDBRANCH   7   8
BRANCH   7  11
ATOM     11  C   UNL     1       7.260   5.465  16.705  0.00  0.00    +0.000 C 
ATOM     12  O   UNL     1       7.824   4.564  17.302  0.00  0.00    +0.000 OA
BRANCH  11  13
ATOM     13  OXT UNL     1       7.694   6.754  16.714  0.00  0.00    +0.000 OA
ATOM     14  HXT UNL     1       6.883   7.316  16.800  0.00  0.00    +0.000 HD
ENDBRANCH  11  13
ENDBRANCH   7  11
ENDBRANCH   6   7
ENDBRANCH   1   6
BRANCH   1  15
ATOM     15  C   UNL     1       4.252   5.599  18.036  0.00  0.00    +0.000 C 
BRANCH  15  16
ATOM     16  C   UNL     1       2.871   6.261  18.073  0.00  0.00    +0.000 C 
BRANCH  16  17
ATOM     17  C   UNL     1       2.335   6.420  19.504  0.00  0.00    +0.000 C 
BRANCH  17  18
ATOM     18  C   UNL     1       1.935   5.072  20.053  0.00  0.00    +0.000 A 
ATOM     19  C   UNL     1       2.428   4.636  21.291  0.00  0.00    +0.000 A 
ATOM     20  C   UNL     1       2.135   3.355  21.756  0.00  0.00    +0.000 A 
ATOM     21  C   UNL     1       1.348   2.495  20.989  0.00  0.00    +0.000 A 
ATOM     22  C   UNL     1       0.845   2.923  19.762  0.00  0.00    +0.000 A 
ATOM     23  C   UNL     1       1.134   4.206  19.295  0.00  0.00    +0.000 A 
ENDBRANCH  17  18
ENDBRANCH  16  17
ENDBRANCH  15  16
ENDBRANCH   1  15
TORSDOF 11
ENDMDL
MODEL 7
REMARK VINA RESULT:      -6.5      0.746      1.522
REMARK  Name = 
REMARK  11 active torsions:
REMARK  status: ('A' for Active; 'I' for Inactive)
REMARK    1  A    between atoms: N_1  and  CA_2
REMARK    2  A    between atoms: CA_2  and  C_3
REMARK    3  A    between atoms: CA_2  and  C_17
REMARK    4  A    between atoms: C_3  and  C_4
REMARK    5  A    between atoms: C_4  and  C_5
REMARK    6  A    between atoms: C_4  and  C_14
REMARK    7  A    between atoms: C_5  and  C_6
REMARK    8  A    between atoms: C_6  and  C_7
REMARK    9  A    between atoms: C_7  and  C_8
REMARK   10  A    between atoms: C_14  and  O_16
REMARK   11  A    between atoms: C_17  and  OXT_19
REMARK                            x       y       z     vdW  Elec       q    Type
REMARK                         _______ _______ _______ _____ _____    ______ ____
ROOT
ATOM      1  C   UNL     1       5.328   6.177  17.028  0.00  0.00    +0.000 C 
ENDROOT
BRANCH   1   2
ATOM      2  C   UNL     1       6.753   6.474  17.449  0.00  0.00    +0.000 C 
ATOM      3  O   UNL     1       7.612   6.921  16.705  0.00  0.00    +0.000 OA
BRANCH   2   4
ATOM      4  O   UNL     1       7.026   6.115  18.723  0.00  0.00    +0.000 OA
ATOM      5  H   UNL     1       7.935   5.798  18.884  0.00  0.00    +0.000 HD
ENDBRANCH   2   4
ENDBRANCH   1   2
BRANCH   1   6
ATOM      6  C   UNL     1       5.282   5.940  15.504  0.00  0.00    +0.000 C 
BRANCH   6   7
ATOM      7  CA  UNL     1       5.488   4.481  15.057  0.00  0.00    +0.000 C 
BRANCH   7   8
ATOM      8  N   UNL     1       5.866   3.541  16.146  0.00  0.00    +0.000 NA
ATOM      9  H1  UNL     1       6.747   3.828  16.582  0.00  0.00    +0.000 HD
ATOM     10  H2  UNL     1       6.096   2.629  15.726  0.00  0.00    +0.000 HD
ENDBRANCH   7   8
BRANCH   7  11
ATOM     11  C   UNL     1       6.593   4.404  13.978  0.00  0.00    +0.000 C 
ATOM     12  O   UNL     1       6.586   3.676  13.000  0.00  0.00    +0.000 OA
BRANCH  11  13
ATOM     13  OXT UNL     1       7.627   5.234  14.284  0.00  0.00    +0.000 OA
ATOM     14  HXT UNL     1       8.454   4.717  14.112  0.00  0.00    +0.000 HD
ENDBRANCH  11  13
ENDBRANCH   7  11
ENDBRANCH   6   7
ENDBRANCH   1   6
BRANCH   1  15
ATOM     15  C   UNL     1       4.410   7.356  17.420  0.00  0.00    +0.000 C 
BRANCH  15  16
ATOM     16  C   UNL     1       3.096   6.877  18.045  0.00  0.00    +0.000 C 
BRANCH  16  17
ATOM     17  C   UNL     1       3.318   6.076  19.337  0.00  0.00    +0.000 C 
BRANCH  17  18
ATOM     18  C   UNL     1       2.517   4.797  19.289  0.00  0.00    +0.000 A 
ATOM     19  C   UNL     1       2.547   3.984  18.148  0.00  0.00    +0.000 A 
ATOM     20  C   UNL     1       1.737   2.852  18.066  0.00  0.00    +0.000 A 
ATOM     21  C   UNL     1       0.888   2.522  19.122  0.00  0.00    +0.000 A 
ATOM     22  C   UNL     1       0.859   3.318  20.265  0.00  0.00    +0.000 A 
ATOM     23  C   UNL     1       1.670   4.450  20.351  0.00  0.00    +0.000 A 
ENDBRANCH  17  18
ENDBRANCH  16  17
ENDBRANCH  15  16
ENDBRANCH   1  15
TORSDOF 11
ENDMDL
MODEL 8
REMARK VINA RESULT:      -6.5      1.730      3.751
REMARK  Name = 
REMARK  11 active torsions:
REMARK  status: ('A' for Active; 'I' for Inactive)
REMARK    1  A    between atoms: N_1  and  CA_2
REMARK    2  A    between atoms: CA_2  and  C_3
REMARK    3  A    between atoms: CA_2  and  C_17
REMARK    4  A    between atoms: C_3  and  C_4
REMARK    5  A    between atoms: C_4  and  C_5
REMARK    6  A    between atoms: C_4  and  C_14
REMARK    7  A    between atoms: C_5  and  C_6
REMARK    8  A    between atoms: C_6  and  C_7
REMARK    9  A    between atoms: C_7  and  C_8
REMARK   10  A    between atoms: C_14  and  O_16
REMARK   11  A    between atoms: C_17  and  OXT_19
REMARK                            x       y       z     vdW  Elec       q    Type
REMARK                         _______ _______ _______ _____ _____    ______ ____
ROOT
ATOM      1  C   UNL     1       6.146   4.948  15.609  0.00  0.00    +0.000 C 
ENDROOT
BRANCH   1   2
ATOM      2  C   UNL     1       6.959   4.744  14.347  0.00  0.00    +0.000 C 
ATOM      3  O   UNL     1       7.827   5.509  13.956  0.00  0.00    +0.000 OA
BRANCH   2   4
ATOM      4  O   UNL     1       6.577   3.666  13.626  0.00  0.00    +0.000 OA
ATOM      5  H   UNL     1       6.037   3.861  12.835  0.00  0.00    +0.000 HD
ENDBRANCH   2   4
ENDBRANCH   1   2
BRANCH   1   6
ATOM      6  C   UNL     1       7.095   5.058  16.820  0.00  0.00    +0.000 C 
BRANCH   6   7
ATOM      7  CA  UNL     1       6.955   6.346  17.652  0.00  0.00    +0.000 C 
BRANCH   7   8
ATOM      8  N   UNL     1       7.552   7.559  17.033  0.00  0.00    +0.000 NA
ATOM      9  H1  UNL     1       8.435   7.330  16.567  0.00  0.00    +0.000 HD
ATOM     10  H2  UNL     1       7.841   8.202  17.784  0.00  0.00    +0.000 HD
ENDBRANCH   7   8
BRANCH   7  11
ATOM     11  C   UNL     1       7.618   6.162  19.038  0.00  0.00    +0.000 C 
ATOM     12  O   UNL     1       7.253   5.388  19.906  0.00  0.00    +0.000 OA
BRANCH  11  13
ATOM     13  OXT UNL     1       8.657   7.025  19.195  0.00  0.00    +0.000 OA
ATOM     14  HXT UNL     1       8.254   7.906  19.401  0.00  0.00    +0.000 HD
ENDBRANCH  11  13
ENDBRANCH   7  11
ENDBRANCH   6   7
ENDBRANCH   1   6
BRANCH   1  15
ATOM     15  C   UNL     1       5.164   3.769  15.795  0.00  0.00    +0.000 C 
BRANCH  15  16
ATOM     16  C   UNL     1       4.549   3.750  17.198  0.00  0.00    +0.000 C 
BRANCH  16  17
ATOM     17  C   UNL     1       3.027   3.955  17.173  0.00  0.00    +0.000 C 
BRANCH  17  18
ATOM     18  C   UNL     1       2.465   3.776  18.563  0.00  0.00    +0.000 A 
ATOM     19  C   UNL     1       2.253   2.491  19.081  0.00  0.00    +0.000 A 
ATOM     20  C   UNL     1       1.647   2.323  20.326  0.00  0.00    +0.000 A 
ATOM     21  C   UNL     1       1.245   3.436  21.064  0.00  0.00    +0.000 A 
ATOM     22  C   UNL     1       1.459   4.718  20.561  0.00  0.00    +0.000 A 
ATOM     23  C   UNL     1       2.068   4.889  19.317  0.00  0.00    +0.000 A 
ENDBRANCH  17  18
ENDBRANCH  16  17
ENDBRANCH  15  16
ENDBRANCH   1  15
TORSDOF 11
ENDMDL
MODEL 9
REMARK VINA RESULT:      -6.5      1.729      3.723
REMARK  Name = 
REMARK  11 active torsions:
REMARK  status: ('A' for Active; 'I' for Inactive)
REMARK    1  A    between atoms: N_1  and  CA_2
REMARK    2  A    between atoms: CA_2  and  C_3
REMARK    3  A    between atoms: CA_2  and  C_17
REMARK    4  A    between atoms: C_3  and  C_4
REMARK    5  A    between atoms: C_4  and  C_5
REMARK    6  A    between atoms: C_4  and  C_14
REMARK    7  A    between atoms: C_5  and  C_6
REMARK    8  A    between atoms: C_6  and  C_7
REMARK    9  A    between atoms: C_7  and  C_8
REMARK   10  A    between atoms: C_14  and  O_16
REMARK   11  A    between atoms: C_17  and  OXT_19
REMARK                            x       y       z     vdW  Elec       q    Type
REMARK                         _______ _______ _______ _____ _____    ______ ____
ROOT
ATOM      1  C   UNL     1       6.107   5.015  15.621  0.00  0.00    +0.000 C 
ENDROOT
BRANCH   1   2
ATOM      2  C   UNL     1       6.727   4.659  14.286  0.00  0.00    +0.000 C 
ATOM      3  O   UNL     1       6.326   3.766  13.556  0.00  0.00    +0.000 OA
BRANCH   2   4
ATOM      4  O   UNL     1       7.841   5.370  14.000  0.00  0.00    +0.000 OA
ATOM      5  H   UNL     1       8.686   4.901  14.141  0.00  0.00    +0.000 HD
ENDBRANCH   2   4
ENDBRANCH   1   2
BRANCH   1   6
ATOM      6  C   UNL     1       7.223   5.281  16.653  0.00  0.00    +0.000 C 
BRANCH   6   7
ATOM      7  CA  UNL     1       6.996   6.496  17.571  0.00  0.00    +0.000 C 
BRANCH   7   8
ATOM      8  N   UNL     1       7.545   7.779  17.058  0.00  0.00    +0.000 NA
ATOM      9  H1  UNL     1       8.524   7.668  16.779  0.00  0.00    +0.000 HD
ATOM     10  H2  UNL     1       7.596   8.449  17.838  0.00  0.00    +0.000 HD
ENDBRANCH   7   8
BRANCH   7  11
ATOM     11  C   UNL     1       7.633   6.243  18.958  0.00  0.00    +0.000 C 
ATOM     12  O   UNL     1       7.282   5.396  19.760  0.00  0.00    +0.000 OA
BRANCH  11  13
ATOM     13  OXT UNL     1       8.629   7.137  19.202  0.00  0.00    +0.000 OA
ATOM     14  HXT UNL     1       9.462   6.720  18.863  0.00  0.00    +0.000 HD
ENDBRANCH  11  13
ENDBRANCH   7  11
ENDBRANCH   6   7
ENDBRANCH   1   6
BRANCH   1  15
ATOM     15  C   UNL     1       5.194   3.862  16.097  0.00  0.00    +0.000 C 
BRANCH  15  16
ATOM     16  C   UNL     1       4.127   4.345  17.084  0.00  0.00    +0.000 C 
BRANCH  16  17
ATOM     17  C   UNL     1       2.904   3.417  17.127  0.00  0.00    +0.000 C 
BRANCH  17  18
ATOM     18  C   UNL     1       2.268   3.472  18.494  0.00  0.00    +0.000 A 
ATOM     19  C   UNL     1       2.002   4.706  19.104  0.00  0.00    +0.000 A 
ATOM     20  C   UNL     1       1.501   4.758  20.404  0.00  0.00    +0.000 A 
ATOM     21  C   UNL     1       1.263   3.578  21.109  0.00  0.00    +0.000 A 
ATOM     22  C   UNL     1       1.515   2.346  20.509  0.00  0.00    +0.000 A 
ATOM     23  C   UNL     1       2.014   2.291  19.207  0.00  0.00    +0.000 A 
ENDBRANCH  17  18
ENDBRANCH  16  17
ENDBRANCH  15  16
ENDBRANCH   1  15
TORSDOF 11
ENDMDL
