MODEL 1
REMARK VINA RESULT:      -7.5      0.000      0.000
REMARK  Name = 
REMARK  8 active torsions:
REMARK  status: ('A' for Active; 'I' for Inactive)
REMARK    1  A    between atoms: C_1  and  C_2
REMARK    2  A    between atoms: C_6  and  C_7
REMARK    3  A    between atoms: C_8  and  N_9
REMARK    4  A    between atoms: C_10  and  C_12
REMARK    5  A    between atoms: C_12  and  N_13
REMARK    6  A    between atoms: N_13  and  C_14
REMARK    7  A    between atoms: C_15  and  C_17
REMARK    8  A    between atoms: C_17  and  N_18
REMARK                            x       y       z     vdW  Elec       q    Type
REMARK                         _______ _______ _______ _____ _____    ______ ____
ROOT
ATOM      1  N   UNL     1       6.401   6.066  17.464  0.00  0.00    +0.000 N 
ATOM      2  C   UNL     1       7.438   5.646  18.394  0.00  0.00    +0.000 C 
ATOM      3  C   UNL     1       6.489   5.895  16.088  0.00  0.00    +0.000 C 
ATOM      4  O   UNL     1       5.612   6.342  15.345  0.00  0.00    +0.000 OA
ENDROOT
BRANCH   1   5
ATOM      5  C   UNL     1       5.348   6.953  17.994  0.00  0.00    +0.000 C 
BRANCH   5   7
ATOM      6  N   UNL     1       3.949   5.184  18.976  0.00  0.00    +0.000 N 
ATOM      7  C   UNL     1       3.952   6.328  18.197  0.00  0.00    +0.000 C 
ATOM      8  O   UNL     1       2.966   6.818  17.653  0.00  0.00    +0.000 OA
ATOM      9  H   UNL     1       4.836   4.701  18.939  0.00  0.00    +0.000 HD
BRANCH   6  17
ATOM     10  C   UNL     1       1.788   6.075  20.856  0.00  0.00    +0.000 C 
ATOM     11  C   UNL     1       1.785   4.768  20.108  0.00  0.00    +0.000 A 
ATOM     12  C   UNL     1       0.715   3.888  20.348  0.00  0.00    +0.000 A 
ATOM     13  C   UNL     1       0.660   2.641  19.734  0.00  0.00    +0.000 A 
ATOM     14  C   UNL     1       1.651   2.268  18.840  0.00  0.00    +0.000 A 
ATOM     15  C   UNL     1       2.720   3.134  18.551  0.00  0.00    +0.000 A 
ATOM     16  C   UNL     1       3.638   2.763  17.414  0.00  0.00    +0.000 C 
ATOM     17  C   UNL     1       2.798   4.388  19.199  0.00  0.00    +0.000 A 
ENDBRANCH   6  17
ENDBRANCH   5   7
ENDBRANCH   1   5
BRANCH   3  18
ATOM     18  C   UNL     1       7.645   5.074  15.505  0.00  0.00    +0.000 C 
BRANCH  18  19
ATOM     19  N   UNL     1       7.351   4.660  14.147  0.00  0.00    +0.000 N 
ATOM     20  C   UNL     1       7.843   5.269  13.038  0.00  0.00    +0.000 C 
ATOM     21  O   UNL     1       8.686   6.148  12.990  0.00  0.00    +0.000 OA
ATOM     22  N   UNL     1       7.226   4.746  11.927  0.00  0.00    +0.000 N 
ATOM     23  C   UNL     1       6.338   3.664  12.259  0.00  0.00    +0.000 C 
ATOM     24  C   UNL     1       4.921   3.788  11.698  0.00  0.00    +0.000 C 
ATOM     25  C   UNL     1       4.711   2.524  10.863  0.00  0.00    +0.000 C 
ATOM     26  C   UNL     1       5.639   1.501  11.499  0.00  0.00    +0.000 C 
ATOM     27  C   UNL     1       6.887   2.330  11.754  0.00  0.00    +0.000 C 
ATOM     28  C   UNL     1       6.370   3.769  13.797  0.00  0.00    +0.000 C 
ATOM     29  O   UNL     1       5.659   3.139  14.558  0.00  0.00    +0.000 OA
ATOM     30  H   UNL     1       7.528   5.002  10.996  0.00  0.00    +0.000 HD
ENDBRANCH  18  19
ENDBRANCH   3  18
TORSDOF 5
ENDMDL
MODEL 2
REMARK VINA RESULT:      -7.4      5.204      8.772
REMARK  Name = 
REMARK  8 active torsions:
REMARK  status: ('A' for Active; 'I' for Inactive)
REMARK    1  A    between atoms: C_1  and  C_2
REMARK    2  A    between atoms: C_6  and  C_7
REMARK    3  A    between atoms: C_8  and  N_9
REMARK    4  A    between atoms: C_10  and  C_12
REMARK    5  A    between atoms: C_12  and  N_13
REMARK    6  A    between atoms: N_13  and  C_14
REMARK    7  A    between atoms: C_15  and  C_17
REMARK    8  A    between atoms: C_17  and  N_18
REMARK                            x       y       z     vdW  Elec       q    Type
REMARK                         _______ _______ _______ _____ _____    ______ ____
ROOT
ATOM      1  N   UNL     1       2.158   8.703  18.835  0.00  0.00    +0.000 N 
ATOM      2  C   UNL     1       1.571   8.037  19.988  0.00  0.00    +0.000 C 
ATOM      3  C   UNL     1       1.892  10.023  18.494  0.00  0.00    +0.000 C 
ATOM      4  O   UNL     1       2.359  10.510  17.461  0.00  0.00    +0.000 OA
ENDROOT
BRANCH   1   5
ATOM      5  C   UNL     1       2.841   7.848  17.845  0.00  0.00    +0.000 C 
BRANCH   5   7
ATOM      6  N   UNL     1       2.492   5.413  17.874  0.00  0.00    +0.000 N 
ATOM      7  C   UNL     1       3.287   6.452  18.327  0.00  0.00    +0.000 C 
ATOM      8  O   UNL     1       4.248   6.332  19.084  0.00  0.00    +0.000 OA
ATOM      9  H   UNL     1       1.550   5.720  17.677  0.00  0.00    +0.000 HD
BRANCH   6  17
ATOM     10  C   UNL     1       4.520   3.629  16.569  0.00  0.00    +0.000 C 
ATOM     11  C   UNL     1       3.575   3.195  17.658  0.00  0.00    +0.000 A 
ATOM     12  C   UNL     1       3.617   1.846  18.052  0.00  0.00    +0.000 A 
ATOM     13  C   UNL     1       2.746   1.353  19.017  0.00  0.00    +0.000 A 
ATOM     14  C   UNL     1       1.844   2.206  19.634  0.00  0.00    +0.000 A 
ATOM     15  C   UNL     1       1.793   3.567  19.288  0.00  0.00    +0.000 A 
ATOM     16  C   UNL     1       0.950   4.478  20.143  0.00  0.00    +0.000 C 
ATOM     17  C   UNL     1       2.653   4.066  18.282  0.00  0.00    +0.000 A 
ENDBRANCH   6  17
ENDBRANCH   5   7
ENDBRANCH   1   5
BRANCH   3  18
ATOM     18  C   UNL     1       1.079  10.899  19.456  0.00  0.00    +0.000 C 
BRANCH  18  19
ATOM     19  N   UNL     1      -0.093  11.439  18.797  0.00  0.00    +0.000 N 
ATOM     20  C   UNL     1      -0.246  12.744  18.456  0.00  0.00    +0.000 C 
ATOM     21  O   UNL     1       0.591  13.627  18.519  0.00  0.00    +0.000 OA
ATOM     22  N   UNL     1      -1.534  12.947  18.022  0.00  0.00    +0.000 N 
ATOM     23  C   UNL     1      -2.287  11.723  17.965  0.00  0.00    +0.000 C 
ATOM     24  C   UNL     1      -3.636  11.752  18.683  0.00  0.00    +0.000 C 
ATOM     25  C   UNL     1      -4.666  11.391  17.611  0.00  0.00    +0.000 C 
ATOM     26  C   UNL     1      -3.884  10.554  16.612  0.00  0.00    +0.000 C 
ATOM     27  C   UNL     1      -2.576  11.324  16.518  0.00  0.00    +0.000 C 
ATOM     28  C   UNL     1      -1.281  10.773  18.647  0.00  0.00    +0.000 C 
ATOM     29  O   UNL     1      -1.510   9.620  18.965  0.00  0.00    +0.000 OA
ATOM     30  H   UNL     1      -1.817  13.836  17.630  0.00  0.00    +0.000 HD
ENDBRANCH  18  19
ENDBRANCH   3  18
TORSDOF 5
ENDMDL
MODEL 3
REMARK VINA RESULT:      -7.4      5.210      8.609
REMARK  Name = 
REMARK  8 active torsions:
REMARK  status: ('A' for Active; 'I' for Inactive)
REMARK    1  A    between atoms: C_1  and  C_2
REMARK    2  A    between atoms: C_6  and  C_7
REMARK    3  A    between atoms: C_8  and  N_9
REMARK    4  A    between atoms: C_10  and  C_12
REMARK    5  A    between atoms: C_12  and  N_13
REMARK    6  A    between atoms: N_13  and  C_14
REMARK    7  A    between atoms: C_15  and  C_17
REMARK    8  A    between atoms: C_17  and  N_18
REMARK                            x       y       z     vdW  Elec       q    Type
REMARK                         _______ _______ _______ _____ _____    ______ ____
ROOT
ATOM      1  N   UNL     1       2.147   8.658  18.971  0.00  0.00    +0.000 N 
ATOM      2  C   UNL     1       1.578   7.989  20.130  0.00  0.00    +0.000 C 
ATOM      3  C   UNL     1       1.812   9.950  18.589  0.00  0.00    +0.000 C 
ATOM      4  O   UNL     1       2.271  10.436  17.551  0.00  0.00    +0.000 OA
ENDROOT
BRANCH   1   5
ATOM      5  C   UNL     1       2.900   7.819  18.018  0.00  0.00    +0.000 C 
BRANCH   5   7
ATOM      6  N   UNL     1       2.484   5.396  17.927  0.00  0.00    +0.000 N 
ATOM      7  C   UNL     1       3.262   6.394  18.487  0.00  0.00    +0.000 C 
ATOM      8  O   UNL     1       4.146   6.220  19.323  0.00  0.00    +0.000 OA
ATOM      9  H   UNL     1       1.572   5.737  17.657  0.00  0.00    +0.000 HD
BRANCH   6  17
ATOM     10  C   UNL     1       0.829   4.290  20.172  0.00  0.00    +0.000 C 
ATOM     11  C   UNL     1       1.829   3.495  19.375  0.00  0.00    +0.000 A 
ATOM     12  C   UNL     1       2.032   2.154  19.746  0.00  0.00    +0.000 A 
ATOM     13  C   UNL     1       2.972   1.363  19.093  0.00  0.00    +0.000 A 
ATOM     14  C   UNL     1       3.697   1.886  18.034  0.00  0.00    +0.000 A 
ATOM     15  C   UNL     1       3.500   3.213  17.615  0.00  0.00    +0.000 A 
ATOM     16  C   UNL     1       4.155   3.648  16.329  0.00  0.00    +0.000 C 
ATOM     17  C   UNL     1       2.571   4.031  18.298  0.00  0.00    +0.000 A 
ENDBRANCH   6  17
ENDBRANCH   5   7
ENDBRANCH   1   5
BRANCH   3  18
ATOM     18  C   UNL     1       0.930  10.802  19.510  0.00  0.00    +0.000 C 
BRANCH  18  19
ATOM     19  N   UNL     1      -0.197  11.352  18.783  0.00  0.00    +0.000 N 
ATOM     20  C   UNL     1      -0.335  12.664  18.465  0.00  0.00    +0.000 C 
ATOM     21  O   UNL     1       0.489  13.550  18.609  0.00  0.00    +0.000 OA
ATOM     22  N   UNL     1      -1.591  12.870  17.946  0.00  0.00    +0.000 N 
ATOM     23  C   UNL     1      -2.328  11.643  17.805  0.00  0.00    +0.000 C 
ATOM     24  C   UNL     1      -3.725  11.646  18.426  0.00  0.00    +0.000 C 
ATOM     25  C   UNL     1      -4.673  11.307  17.274  0.00  0.00    +0.000 C 
ATOM     26  C   UNL     1      -3.816  10.500  16.313  0.00  0.00    +0.000 C 
ATOM     27  C   UNL     1      -2.511  11.280  16.331  0.00  0.00    +0.000 C 
ATOM     28  C   UNL     1      -1.366  10.682  18.533  0.00  0.00    +0.000 C 
ATOM     29  O   UNL     1      -1.608   9.520  18.804  0.00  0.00    +0.000 OA
ATOM     30  H   UNL     1      -1.852  13.767  17.556  0.00  0.00    +0.000 HD
ENDBRANCH  18  19
ENDBRANCH   3  18
TORSDOF 5
ENDMDL
MODEL 4
REMARK VINA RESULT:      -7.2      4.446      7.060
REMARK  Name = 
REMARK  8 active torsions:
REMARK  status: ('A' for Active; 'I' for Inactive)
REMARK    1  A    between atoms: C_1  and  C_2
REMARK    2  A    between atoms: C_6  and  C_7
REMARK    3  A    between atoms: C_8  and  N_9
REMARK    4  A    between atoms: C_10  and  C_12
REMARK    5  A    between atoms: C_12  and  N_13
REMARK    6  A    between atoms: N_13  and  C_14
REMARK    7  A    between atoms: C_15  and  C_17
REMARK    8  A    between atoms: C_17  and  N_18
REMARK                            x       y       z     vdW  Elec       q    Type
REMARK                         _______ _______ _______ _____ _____    ______ ____
ROOT
ATOM      1  N   UNL     1       1.909   7.525  19.309  0.00  0.00    +0.000 N 
ATOM      2  C   UNL     1       2.014   8.209  18.030  0.00  0.00    +0.000 C 
ATOM      3  C   UNL     1       1.736   6.153  19.434  0.00  0.00    +0.000 C 
ATOM      4  O   UNL     1       1.576   5.640  20.544  0.00  0.00    +0.000 OA
ENDROOT
BRANCH   1   5
ATOM      5  C   UNL     1       1.703   8.369  20.503  0.00  0.00    +0.000 C 
BRANCH   5   7
ATOM      6  N   UNL     1       0.203  10.184  19.792  0.00  0.00    +0.000 N 
ATOM      7  C   UNL     1       0.341   9.083  20.619  0.00  0.00    +0.000 C 
ATOM      8  O   UNL     1      -0.499   8.693  21.427  0.00  0.00    +0.000 OA
ATOM      9  H   UNL     1       1.096  10.603  19.572  0.00  0.00    +0.000 HD
BRANCH   6  17
ATOM     10  C   UNL     1      -0.174  12.176  22.004  0.00  0.00    +0.000 C 
ATOM     11  C   UNL     1      -1.138  11.970  20.866  0.00  0.00    +0.000 A 
ATOM     12  C   UNL     1      -2.319  12.733  20.872  0.00  0.00    +0.000 A 
ATOM     13  C   UNL     1      -3.284  12.570  19.885  0.00  0.00    +0.000 A 
ATOM     14  C   UNL     1      -3.070  11.671  18.852  0.00  0.00    +0.000 A 
ATOM     15  C   UNL     1      -1.888  10.912  18.795  0.00  0.00    +0.000 A 
ATOM     16  C   UNL     1      -1.620  10.121  17.540  0.00  0.00    +0.000 C 
ATOM     17  C   UNL     1      -0.919  11.049  19.816  0.00  0.00    +0.000 A 
ENDBRANCH   6  17
ENDBRANCH   5   7
ENDBRANCH   1   5
BRANCH   3  18
ATOM     18  C   UNL     1       1.827   5.267  18.186  0.00  0.00    +0.000 C 
BRANCH  18  19
ATOM     19  N   UNL     1       3.128   4.634  18.095  0.00  0.00    +0.000 N 
ATOM     20  C   UNL     1       3.455   3.466  18.704  0.00  0.00    +0.000 C 
ATOM     21  O   UNL     1       2.708   2.709  19.298  0.00  0.00    +0.000 OA
ATOM     22  N   UNL     1       4.805   3.250  18.564  0.00  0.00    +0.000 N 
ATOM     23  C   UNL     1       5.433   4.251  17.746  0.00  0.00    +0.000 C 
ATOM     24  C   UNL     1       6.665   4.917  18.360  0.00  0.00    +0.000 C 
ATOM     25  C   UNL     1       7.795   4.666  17.359  0.00  0.00    +0.000 C 
ATOM     26  C   UNL     1       7.081   4.517  16.025  0.00  0.00    +0.000 C 
ATOM     27  C   UNL     1       5.882   3.665  16.408  0.00  0.00    +0.000 C 
ATOM     28  C   UNL     1       4.254   5.233  17.592  0.00  0.00    +0.000 C 
ATOM     29  O   UNL     1       4.321   6.336  17.081  0.00  0.00    +0.000 OA
ATOM     30  H   UNL     1       5.225   2.380  18.866  0.00  0.00    +0.000 HD
ENDBRANCH  18  19
ENDBRANCH   3  18
TORSDOF 5
ENDMDL
MODEL 5
REMARK VINA RESULT:      -7.2      4.636      8.540
REMARK  Name = 
REMARK  8 active torsions:
REMARK  status: ('A' for Active; 'I' for Inactive)
REMARK    1  A    between atoms: C_1  and  C_2
REMARK    2  A    between atoms: C_6  and  C_7
REMARK    3  A    between atoms: C_8  and  N_9
REMARK    4  A    between atoms: C_10  and  C_12
REMARK    5  A    between atoms: C_12  and  N_13
REMARK    6  A    between atoms: N_13  and  C_14
REMARK    7  A    between atoms: C_15  and  C_17
REMARK    8  A    between atoms: C_17  and  N_18
REMARK                            x       y       z     vdW  Elec       q    Type
REMARK                         _______ _______ _______ _____ _____    ______ ____
ROOT
ATOM      1  N   UNL     1       7.862   7.022  18.246  0.00  0.00    +0.000 N 
ATOM      2  C   UNL     1       7.655   7.612  16.933  0.00  0.00    +0.000 C 
ATOM      3  C   UNL     1       7.185   5.897  18.697  0.00  0.00    +0.000 C 
ATOM      4  O   UNL     1       7.348   5.488  19.850  0.00  0.00    +0.000 OA
ENDROOT
BRANCH   1   5
ATOM      5  C   UNL     1       8.621   7.823  19.226  0.00  0.00    +0.000 C 
BRANCH   5   7
ATOM      6  N   UNL     1       9.603  10.010  19.778  0.00  0.00    +0.000 N 
ATOM      7  C   UNL     1       8.709   9.341  18.960  0.00  0.00    +0.000 C 
ATOM      8  O   UNL     1       7.992   9.867  18.112  0.00  0.00    +0.000 OA
ATOM      9  H   UNL     1       9.733   9.536  20.660  0.00  0.00    +0.000 HD
BRANCH   6  17
ATOM     10  C   UNL     1      10.926  11.427  17.488  0.00  0.00    +0.000 C 
ATOM     11  C   UNL     1      10.414  12.105  18.731  0.00  0.00    +0.000 A 
ATOM     12  C   UNL     1      10.618  13.491  18.843  0.00  0.00    +0.000 A 
ATOM     13  C   UNL     1      10.219  14.186  19.979  0.00  0.00    +0.000 A 
ATOM     14  C   UNL     1       9.575  13.516  21.008  0.00  0.00    +0.000 A 
ATOM     15  C   UNL     1       9.327  12.135  20.919  0.00  0.00    +0.000 A 
ATOM     16  C   UNL     1       8.436  11.513  21.963  0.00  0.00    +0.000 C 
ATOM     17  C   UNL     1       9.762  11.418  19.780  0.00  0.00    +0.000 A 
ENDBRANCH   6  17
ENDBRANCH   5   7
ENDBRANCH   1   5
BRANCH   3  18
ATOM     18  C   UNL     1       6.295   5.114  17.724  0.00  0.00    +0.000 C 
BRANCH  18  19
ATOM     19  N   UNL     1       4.911   5.138  18.156  0.00  0.00    +0.000 N 
ATOM     20  C   UNL     1       4.074   6.191  17.983  0.00  0.00    +0.000 C 
ATOM     21  O   UNL     1       4.286   7.207  17.344  0.00  0.00    +0.000 OA
ATOM     22  N   UNL     1       2.905   5.952  18.665  0.00  0.00    +0.000 N 
ATOM     23  C   UNL     1       2.882   4.644  19.261  0.00  0.00    +0.000 C 
ATOM     24  C   UNL     1       2.532   4.611  20.749  0.00  0.00    +0.000 C 
ATOM     25  C   UNL     1       1.306   3.702  20.850  0.00  0.00    +0.000 C 
ATOM     26  C   UNL     1       1.430   2.776  19.651  0.00  0.00    +0.000 C 
ATOM     27  C   UNL     1       1.869   3.739  18.559  0.00  0.00    +0.000 C 
ATOM     28  C   UNL     1       4.339   4.215  18.993  0.00  0.00    +0.000 C 
ATOM     29  O   UNL     1       4.867   3.210  19.433  0.00  0.00    +0.000 OA
ATOM     30  H   UNL     1       2.115   6.579  18.578  0.00  0.00    +0.000 HD
ENDBRANCH  18  19
ENDBRANCH   3  18
TORSDOF 5
ENDMDL
MODEL 6
REMARK VINA RESULT:      -7.2      4.493      8.332
REMARK  Name = 
REMARK  8 active torsions:
REMARK  status: ('A' for Active; 'I' for Inactive)
REMARK    1  A    between atoms: C_1  and  C_2
REMARK    2  A    between atoms: C_6  and  C_7
REMARK    3  A    between atoms: C_8  and  N_9
REMARK    4  A    between atoms: C_10  and  C_12
REMARK    5  A    between atoms: C_12  and  N_13
REMARK    6  A    between atoms: N_13  and  C_14
REMARK    7  A    between atoms: C_15  and  C_17
REMARK    8  A    between atoms: C_17  and  N_18
REMARK                            x       y       z     vdW  Elec       q    Type
REMARK                         _______ _______ _______ _____ _____    ______ ____
ROOT
ATOM      1  N   UNL     1       7.773   6.922  18.137  0.00  0.00    +0.000 N 
ATOM      2  C   UNL     1       7.603   7.470  16.800  0.00  0.00    +0.000 C 
ATOM      3  C   UNL     1       7.035   5.852  18.628  0.00  0.00    +0.000 C 
ATOM      4  O   UNL     1       7.171   5.482  19.797  0.00  0.00    +0.000 OA
ENDROOT
BRANCH   1   5
ATOM      5  C   UNL     1       8.569   7.720  19.090  0.00  0.00    +0.000 C 
BRANCH   5   7
ATOM      6  N   UNL     1       9.503   9.923  19.661  0.00  0.00    +0.000 N 
ATOM      7  C   UNL     1       8.604   9.244  18.857  0.00  0.00    +0.000 C 
ATOM      8  O   UNL     1       7.844   9.767  18.044  0.00  0.00    +0.000 OA
ATOM      9  H   UNL     1       9.675   9.433  20.528  0.00  0.00    +0.000 HD
BRANCH   6  17
ATOM     10  C   UNL     1       8.454  11.516  21.977  0.00  0.00    +0.000 C 
ATOM     11  C   UNL     1       9.100  12.110  20.753  0.00  0.00    +0.000 A 
ATOM     12  C   UNL     1       9.171  13.512  20.675  0.00  0.00    +0.000 A 
ATOM     13  C   UNL     1       9.709  14.142  19.559  0.00  0.00    +0.000 A 
ATOM     14  C   UNL     1      10.222  13.384  18.518  0.00  0.00    +0.000 A 
ATOM     15  C   UNL     1      10.198  11.980  18.574  0.00  0.00    +0.000 A 
ATOM     16  C   UNL     1      10.963  11.220  17.521  0.00  0.00    +0.000 C 
ATOM     17  C   UNL     1       9.619  11.335  19.692  0.00  0.00    +0.000 A 
ENDBRANCH   6  17
ENDBRANCH   5   7
ENDBRANCH   1   5
BRANCH   3  18
ATOM     18  C   UNL     1       6.109   5.080  17.681  0.00  0.00    +0.000 C 
BRANCH  18  19
ATOM     19  N   UNL     1       4.735   5.138  18.139  0.00  0.00    +0.000 N 
ATOM     20  C   UNL     1       3.945   6.238  18.048  0.00  0.00    +0.000 C 
ATOM     21  O   UNL     1       4.194   7.281  17.471  0.00  0.00    +0.000 OA
ATOM     22  N   UNL     1       2.777   6.009  18.737  0.00  0.00    +0.000 N 
ATOM     23  C   UNL     1       2.703   4.668  19.249  0.00  0.00    +0.000 C 
ATOM     24  C   UNL     1       2.376   4.555  20.739  0.00  0.00    +0.000 C 
ATOM     25  C   UNL     1       1.111   3.698  20.805  0.00  0.00    +0.000 C 
ATOM     26  C   UNL     1       1.173   2.846  19.548  0.00  0.00    +0.000 C 
ATOM     27  C   UNL     1       1.639   3.856  18.511  0.00  0.00    +0.000 C 
ATOM     28  C   UNL     1       4.134   4.192  18.927  0.00  0.00    +0.000 C 
ATOM     29  O   UNL     1       4.622   3.138  19.292  0.00  0.00    +0.000 OA
ATOM     30  H   UNL     1       2.016   6.675  18.704  0.00  0.00    +0.000 HD
ENDBRANCH  18  19
ENDBRANCH   3  18
TORSDOF 5
ENDMDL
MODEL 7
REMARK VINA RESULT:      -7.1      4.905      7.365
REMARK  Name = 
REMARK  8 active torsions:
REMARK  status: ('A' for Active; 'I' for Inactive)
REMARK    1  A    between atoms: C_1  and  C_2
REMARK    2  A    between atoms: C_6  and  C_7
REMARK    3  A    between atoms: C_8  and  N_9
REMARK    4  A    between atoms: C_10  and  C_12
REMARK    5  A    between atoms: C_12  and  N_13
REMARK    6  A    between atoms: N_13  and  C_14
REMARK    7  A    between atoms: C_15  and  C_17
REMARK    8  A    between atoms: C_17  and  N_18
REMARK                            x       y       z     vdW  Elec       q    Type
REMARK                         _______ _______ _______ _____ _____    ______ ____
ROOT
ATOM      1  N   UNL     1       1.574   8.586  19.542  0.00  0.00    +0.000 N 
ATOM      2  C   UNL     1       1.361   8.307  20.954  0.00  0.00    +0.000 C 
ATOM      3  C   UNL     1       2.344   7.785  18.709  0.00  0.00    +0.000 C 
ATOM      4  O   UNL     1       2.550   8.115  17.538  0.00  0.00    +0.000 OA
ENDROOT
BRANCH   1   5
ATOM      5  C   UNL     1       1.177   9.923  19.058  0.00  0.00    +0.000 C 
BRANCH   5   7
ATOM      6  N   UNL     1       0.108  11.479  20.635  0.00  0.00    +0.000 N 
ATOM      7  C   UNL     1      -0.111  10.523  19.659  0.00  0.00    +0.000 C 
ATOM      8  O   UNL     1      -1.214  10.118  19.297  0.00  0.00    +0.000 OA
ATOM      9  H   UNL     1       0.995  11.344  21.101  0.00  0.00    +0.000 HD
BRANCH   6  17
ATOM     10  C   UNL     1      -0.860  10.237  23.188  0.00  0.00    +0.000 C 
ATOM     11  C   UNL     1      -1.426  11.493  22.580  0.00  0.00    +0.000 A 
ATOM     12  C   UNL     1      -2.516  12.094  23.234  0.00  0.00    +0.000 A 
ATOM     13  C   UNL     1      -3.128  13.229  22.714  0.00  0.00    +0.000 A 
ATOM     14  C   UNL     1      -2.638  13.807  21.553  0.00  0.00    +0.000 A 
ATOM     15  C   UNL     1      -1.531  13.252  20.888  0.00  0.00    +0.000 A 
ATOM     16  C   UNL     1      -0.916  14.046  19.764  0.00  0.00    +0.000 C 
ATOM     17  C   UNL     1      -0.927  12.078  21.395  0.00  0.00    +0.000 A 
ENDBRANCH   6  17
ENDBRANCH   5   7
ENDBRANCH   1   5
BRANCH   3  18
ATOM     18  C   UNL     1       2.868   6.442  19.231  0.00  0.00    +0.000 C 
BRANCH  18  19
ATOM     19  N   UNL     1       3.455   5.664  18.159  0.00  0.00    +0.000 N 
ATOM     20  C   UNL     1       2.899   4.542  17.634  0.00  0.00    +0.000 C 
ATOM     21  O   UNL     1       1.794   4.086  17.869  0.00  0.00    +0.000 OA
ATOM     22  N   UNL     1       3.797   3.957  16.773  0.00  0.00    +0.000 N 
ATOM     23  C   UNL     1       4.988   4.746  16.612  0.00  0.00    +0.000 C 
ATOM     24  C   UNL     1       6.302   3.995  16.827  0.00  0.00    +0.000 C 
ATOM     25  C   UNL     1       7.081   4.172  15.523  0.00  0.00    +0.000 C 
ATOM     26  C   UNL     1       6.553   5.478  14.950  0.00  0.00    +0.000 C 
ATOM     27  C   UNL     1       5.061   5.350  15.210  0.00  0.00    +0.000 C 
ATOM     28  C   UNL     1       4.738   5.811  17.699  0.00  0.00    +0.000 C 
ATOM     29  O   UNL     1       5.543   6.652  18.056  0.00  0.00    +0.000 OA
ATOM     30  H   UNL     1       3.530   3.162  16.206  0.00  0.00    +0.000 HD
ENDBRANCH  18  19
ENDBRANCH   3  18
TORSDOF 5
ENDMDL
MODEL 8
REMARK VINA RESULT:      -7.1      0.201      1.658
REMARK  Name = 
REMARK  8 active torsions:
REMARK  status: ('A' for Active; 'I' for Inactive)
REMARK    1  A    between atoms: C_1  and  C_2
REMARK    2  A    between atoms: C_6  and  C_7
REMARK    3  A    between atoms: C_8  and  N_9
REMARK    4  A    between atoms: C_10  and  C_12
REMARK    5  A    between atoms: C_12  and  N_13
REMARK    6  A    between atoms: N_13  and  C_14
REMARK    7  A    between atoms: C_15  and  C_17
REMARK    8  A    between atoms: C_17  and  N_18
REMARK                            x       y       z     vdW  Elec       q    Type
REMARK                         _______ _______ _______ _____ _____    ______ ____
ROOT
ATOM      1  N   UNL     1       6.262   6.209  17.308  0.00  0.00    +0.000 N 
ATOM      2  C   UNL     1       7.377   6.007  18.220  0.00  0.00    +0.000 C 
ATOM      3  C   UNL     1       6.308   5.887  15.958  0.00  0.00    +0.000 C 
ATOM      4  O   UNL     1       5.357   6.153  15.218  0.00  0.00    +0.000 OA
ENDROOT
BRANCH   1   5
ATOM      5  C   UNL     1       5.146   7.044  17.791  0.00  0.00    +0.000 C 
BRANCH   5   7
ATOM      6  N   UNL     1       3.969   5.174  18.872  0.00  0.00    +0.000 N 
ATOM      7  C   UNL     1       3.822   6.317  18.105  0.00  0.00    +0.000 C 
ATOM      8  O   UNL     1       2.759   6.733  17.649  0.00  0.00    +0.000 OA
ATOM      9  H   UNL     1       4.883   4.759  18.756  0.00  0.00    +0.000 HD
BRANCH   6  17
ATOM     10  C   UNL     1       3.757   2.474  17.583  0.00  0.00    +0.000 C 
ATOM     11  C   UNL     1       2.760   3.034  18.563  0.00  0.00    +0.000 A 
ATOM     12  C   UNL     1       1.629   2.251  18.853  0.00  0.00    +0.000 A 
ATOM     13  C   UNL     1       0.637   2.714  19.711  0.00  0.00    +0.000 A 
ATOM     14  C   UNL     1       0.776   3.949  20.325  0.00  0.00    +0.000 A 
ATOM     15  C   UNL     1       1.908   4.747  20.083  0.00  0.00    +0.000 A 
ATOM     16  C   UNL     1       2.103   5.969  20.943  0.00  0.00    +0.000 C 
ATOM     17  C   UNL     1       2.902   4.295  19.184  0.00  0.00    +0.000 A 
ENDBRANCH   6  17
ENDBRANCH   5   7
ENDBRANCH   1   5
BRANCH   3  18
ATOM     18  C   UNL     1       7.517   5.121  15.408  0.00  0.00    +0.000 C 
BRANCH  18  19
ATOM     19  N   UNL     1       7.265   4.657  14.058  0.00  0.00    +0.000 N 
ATOM     20  C   UNL     1       7.758   5.250  12.941  0.00  0.00    +0.000 C 
ATOM     21  O   UNL     1       8.570   6.157  12.883  0.00  0.00    +0.000 OA
ATOM     22  N   UNL     1       7.182   4.673  11.835  0.00  0.00    +0.000 N 
ATOM     23  C   UNL     1       6.326   3.571  12.181  0.00  0.00    +0.000 C 
ATOM     24  C   UNL     1       4.917   3.627  11.591  0.00  0.00    +0.000 C 
ATOM     25  C   UNL     1       4.768   2.332  10.790  0.00  0.00    +0.000 C 
ATOM     26  C   UNL     1       5.718   1.362  11.474  0.00  0.00    +0.000 C 
ATOM     27  C   UNL     1       6.931   2.242  11.728  0.00  0.00    +0.000 C 
ATOM     28  C   UNL     1       6.324   3.722  13.716  0.00  0.00    +0.000 C 
ATOM     29  O   UNL     1       5.620   3.089  14.482  0.00  0.00    +0.000 OA
ATOM     30  H   UNL     1       7.493   4.912  10.902  0.00  0.00    +0.000 HD
ENDBRANCH  18  19
ENDBRANCH   3  18
TORSDOF 5
ENDMDL
MODEL 9
REMARK VINA RESULT:      -7.1      5.432      9.564
REMARK  Name = 
REMARK  8 active torsions:
REMARK  status: ('A' for Active; 'I' for Inactive)
REMARK    1  A    between atoms: C_1  and  C_2
REMARK    2  A    between atoms: C_6  and  C_7
REMARK    3  A    between atoms: C_8  and  N_9
REMARK    4  A    between atoms: C_10  and  C_12
REMARK    5  A    between atoms: C_12  and  N_13
REMARK    6  A    between atoms: N_13  and  C_14
REMARK    7  A    between atoms: C_15  and  C_17
REMARK    8  A    between atoms: C_17  and  N_18
REMARK                            x       y       z     vdW  Elec       q    Type
REMARK                         _______ _______ _______ _____ _____    ______ ____
ROOT
ATOM      1  N   UNL     1       1.809   8.530  19.114  0.00  0.00    +0.000 N 
ATOM      2  C   UNL     1       1.593   7.876  20.396  0.00  0.00    +0.000 C 
ATOM      3  C   UNL     1       0.945   9.477  18.581  0.00  0.00    +0.000 C 
ATOM      4  O   UNL     1       1.142   9.940  17.454  0.00  0.00    +0.000 OA
ENDROOT
BRANCH   1   5
ATOM      5  C   UNL     1       2.843   7.950  18.235  0.00  0.00    +0.000 C 
BRANCH   5   7
ATOM      6  N   UNL     1       2.451   5.531  18.028  0.00  0.00    +0.000 N 
ATOM      7  C   UNL     1       3.286   6.505  18.545  0.00  0.00    +0.000 C 
ATOM      8  O   UNL     1       4.280   6.294  19.237  0.00  0.00    +0.000 OA
ATOM      9  H   UNL     1       1.506   5.869  17.911  0.00  0.00    +0.000 HD
BRANCH   6  17
ATOM     10  C   UNL     1       4.446   3.885  16.506  0.00  0.00    +0.000 C 
ATOM     11  C   UNL     1       3.512   3.342  17.555  0.00  0.00    +0.000 A 
ATOM     12  C   UNL     1       3.550   1.958  17.800  0.00  0.00    +0.000 A 
ATOM     13  C   UNL     1       2.689   1.368  18.719  0.00  0.00    +0.000 A 
ATOM     14  C   UNL     1       1.802   2.155  19.438  0.00  0.00    +0.000 A 
ATOM     15  C   UNL     1       1.757   3.546  19.243  0.00  0.00    +0.000 A 
ATOM     16  C   UNL     1       0.934   4.365  20.204  0.00  0.00    +0.000 C 
ATOM     17  C   UNL     1       2.607   4.146  18.284  0.00  0.00    +0.000 A 
ENDBRANCH   6  17
ENDBRANCH   5   7
ENDBRANCH   1   5
BRANCH   3  18
ATOM     18  C   UNL     1      -0.211  10.008  19.437  0.00  0.00    +0.000 C 
BRANCH  18  19
ATOM     19  N   UNL     1       0.027  11.382  19.832  0.00  0.00    +0.000 N 
ATOM     20  C   UNL     1       0.655  11.751  20.978  0.00  0.00    +0.000 C 
ATOM     21  O   UNL     1       1.222  11.026  21.776  0.00  0.00    +0.000 OA
ATOM     22  N   UNL     1       0.548  13.113  21.129  0.00  0.00    +0.000 N 
ATOM     23  C   UNL     1      -0.093  13.736  20.003  0.00  0.00    +0.000 C 
ATOM     24  C   UNL     1      -1.263  14.658  20.346  0.00  0.00    +0.000 C 
ATOM     25  C   UNL     1      -0.889  16.016  19.749  0.00  0.00    +0.000 C 
ATOM     26  C   UNL     1       0.036  15.671  18.593  0.00  0.00    +0.000 C 
ATOM     27  C   UNL     1       0.899  14.578  19.202  0.00  0.00    +0.000 C 
ATOM     28  C   UNL     1      -0.547  12.476  19.238  0.00  0.00    +0.000 C 
ATOM     29  O   UNL     1      -1.268  12.472  18.257  0.00  0.00    +0.000 OA
ATOM     30  H   UNL     1       1.038  13.593  21.873  0.00  0.00    +0.000 HD
ENDBRANCH  18  19
ENDBRANCH   3  18
TORSDOF 5
ENDMDL
