MODEL 1
REMARK VINA RESULT:      -6.5      0.000      0.000
REMARK  Name = 
REMARK  7 active torsions:
REMARK  status: ('A' for Active; 'I' for Inactive)
REMARK    1  A    between atoms: C_1  and  O_2
REMARK    2  A    between atoms: O_2  and  C_3
REMARK    3  A    between atoms: C_3  and  C_5
REMARK    4  A    between atoms: C_5  and  C_7
REMARK    5  A    between atoms: C_8  and  O_9
REMARK    6  A    between atoms: C_8  and  C_10
REMARK    7  A    between atoms: C_13  and  C_14
REMARK                            x       y       z     vdW  Elec       q    Type
REMARK                         _______ _______ _______ _____ _____    ______ ____
ROOT
ATOM      1  C   UNL     1       4.958   6.190  16.641  0.00  0.00    +0.000 C 
ATOM      2  C   UNL     1       3.934   6.460  17.466  0.00  0.00    +0.000 C 
ENDROOT
BRANCH   2   3
ATOM      3  C   UNL     1       3.234   5.505  18.337  0.00  0.00    +0.000 A 
ATOM      4  C   UNL     1       3.527   5.438  19.704  0.00  0.00    +0.000 A 
ATOM      5  C   UNL     1       2.799   4.590  20.546  0.00  0.00    +0.000 A 
ATOM      6  C   UNL     1       1.767   3.797  20.032  0.00  0.00    +0.000 A 
ATOM      7  C   UNL     1       0.949   2.911  20.927  0.00  0.00    +0.000 C 
ATOM      8  C   UNL     1       1.477   3.863  18.665  0.00  0.00    +0.000 A 
ATOM      9  C   UNL     1       2.205   4.708  17.822  0.00  0.00    +0.000 A 
ENDBRANCH   2   3
BRANCH   1  10
ATOM     10  C   UNL     1       5.600   4.859  16.431  0.00  0.00    +0.000 C 
ATOM     11  O   UNL     1       5.151   3.987  15.706  0.00  0.00    +0.000 OA
BRANCH  10  12
ATOM     12  C   UNL     1       6.925   4.640  17.193  0.00  0.00    +0.000 C 
ATOM     13  O   UNL     1       7.997   4.515  16.625  0.00  0.00    +0.000 OA
BRANCH  12  15
ATOM     14  C   UNL     1       7.360   5.602  19.281  0.00  0.00    +0.000 C 
ATOM     15  O   UNL     1       6.700   4.589  18.522  0.00  0.00    +0.000 OA
ENDBRANCH  12  15
ENDBRANCH  10  12
ENDBRANCH   1  10
BRANCH   2  16
ATOM     16  O   UNL     1       3.399   7.734  17.559  0.00  0.00    +0.000 OA
ATOM     17  H   UNL     1       2.574   7.707  18.070  0.00  0.00    +0.000 HD
ENDBRANCH   2  16
TORSDOF 5
ENDMDL
MODEL 2
REMARK VINA RESULT:      -6.3      3.073      5.455
REMARK  Name = 
REMARK  7 active torsions:
REMARK  status: ('A' for Active; 'I' for Inactive)
REMARK    1  A    between atoms: C_1  and  O_2
REMARK    2  A    between atoms: O_2  and  C_3
REMARK    3  A    between atoms: C_3  and  C_5
REMARK    4  A    between atoms: C_5  and  C_7
REMARK    5  A    between atoms: C_8  and  O_9
REMARK    6  A    between atoms: C_8  and  C_10
REMARK    7  A    between atoms: C_13  and  C_14
REMARK                            x       y       z     vdW  Elec       q    Type
REMARK                         _______ _______ _______ _____ _____    ______ ____
ROOT
ATOM      1  C   UNL     1       2.197   1.787  18.772  0.00  0.00    +0.000 C 
ATOM      2  C   UNL     1       3.483   1.928  18.414  0.00  0.00    +0.000 C 
ENDROOT
BRANCH   2   3
ATOM      3  C   UNL     1       4.191   3.192  18.170  0.00  0.00    +0.000 A 
ATOM      4  C   UNL     1       4.913   3.816  19.194  0.00  0.00    +0.000 A 
ATOM      5  C   UNL     1       5.658   4.973  18.937  0.00  0.00    +0.000 A 
ATOM      6  C   UNL     1       5.691   5.522  17.649  0.00  0.00    +0.000 A 
ATOM      7  C   UNL     1       6.515   6.740  17.346  0.00  0.00    +0.000 C 
ATOM      8  C   UNL     1       4.966   4.899  16.627  0.00  0.00    +0.000 A 
ATOM      9  C   UNL     1       4.221   3.745  16.884  0.00  0.00    +0.000 A 
ENDBRANCH   2   3
BRANCH   1  10
ATOM     10  C   UNL     1       1.212   2.886  18.994  0.00  0.00    +0.000 C 
ATOM     11  O   UNL     1       0.535   3.390  18.113  0.00  0.00    +0.000 OA
BRANCH  10  12
ATOM     12  C   UNL     1       1.075   3.361  20.457  0.00  0.00    +0.000 C 
ATOM     13  O   UNL     1       1.190   2.605  21.407  0.00  0.00    +0.000 OA
BRANCH  12  15
ATOM     14  C   UNL     1       1.937   5.535  20.498  0.00  0.00    +0.000 C 
ATOM     15  O   UNL     1       0.795   4.679  20.499  0.00  0.00    +0.000 OA
ENDBRANCH  12  15
ENDBRANCH  10  12
ENDBRANCH   1  10
BRANCH   2  16
ATOM     16  O   UNL     1       4.300   0.829  18.209  0.00  0.00    +0.000 OA
ATOM     17  H   UNL     1       3.882   0.223  17.576  0.00  0.00    +0.000 HD
ENDBRANCH   2  16
TORSDOF 5
ENDMDL
MODEL 3
REMARK VINA RESULT:      -6.3      2.020      3.146
REMARK  Name = 
REMARK  7 active torsions:
REMARK  status: ('A' for Active; 'I' for Inactive)
REMARK    1  A    between atoms: C_1  and  O_2
REMARK    2  A    between atoms: O_2  and  C_3
REMARK    3  A    between atoms: C_3  and  C_5
REMARK    4  A    between atoms: C_5  and  C_7
REMARK    5  A    between atoms: C_8  and  O_9
REMARK    6  A    between atoms: C_8  and  C_10
REMARK    7  A    between atoms: C_13  and  C_14
REMARK                            x       y       z     vdW  Elec       q    Type
REMARK                         _______ _______ _______ _____ _____    ______ ____
ROOT
ATOM      1  C   UNL     1       7.211   4.705  17.123  0.00  0.00    +0.000 C 
ATOM      2  C   UNL     1       6.008   4.124  16.988  0.00  0.00    +0.000 C 
ENDROOT
BRANCH   2   3
ATOM      3  C   UNL     1       4.838   4.319  17.855  0.00  0.00    +0.000 A 
ATOM      4  C   UNL     1       3.825   5.216  17.496  0.00  0.00    +0.000 A 
ATOM      5  C   UNL     1       2.672   5.337  18.279  0.00  0.00    +0.000 A 
ATOM      6  C   UNL     1       2.514   4.560  19.433  0.00  0.00    +0.000 A 
ATOM      7  C   UNL     1       1.267   4.646  20.264  0.00  0.00    +0.000 C 
ATOM      8  C   UNL     1       3.528   3.665  19.792  0.00  0.00    +0.000 A 
ATOM      9  C   UNL     1       4.682   3.546  19.011  0.00  0.00    +0.000 A 
ENDBRANCH   2   3
BRANCH   1  10
ATOM     10  C   UNL     1       7.615   5.671  18.187  0.00  0.00    +0.000 C 
ATOM     11  O   UNL     1       7.978   5.347  19.306  0.00  0.00    +0.000 OA
BRANCH  10  12
ATOM     12  C   UNL     1       7.566   7.159  17.778  0.00  0.00    +0.000 C 
ATOM     13  O   UNL     1       6.859   7.568  16.872  0.00  0.00    +0.000 OA
BRANCH  12  15
ATOM     14  C   UNL     1       8.443   9.278  18.238  0.00  0.00    +0.000 C 
ATOM     15  O   UNL     1       8.412   7.883  18.538  0.00  0.00    +0.000 OA
ENDBRANCH  12  15
ENDBRANCH  10  12
ENDBRANCH   1  10
BRANCH   2  16
ATOM     16  O   UNL     1       5.755   3.218  15.972  0.00  0.00    +0.000 OA
ATOM     17  H   UNL     1       4.797   3.149  15.825  0.00  0.00    +0.000 HD
ENDBRANCH   2  16
TORSDOF 5
ENDMDL
MODEL 4
REMARK VINA RESULT:      -6.3      2.811      5.434
REMARK  Name = 
REMARK  7 active torsions:
REMARK  status: ('A' for Active; 'I' for Inactive)
REMARK    1  A    between atoms: C_1  and  O_2
REMARK    2  A    between atoms: O_2  and  C_3
REMARK    3  A    between atoms: C_3  and  C_5
REMARK    4  A    between atoms: C_5  and  C_7
REMARK    5  A    between atoms: C_8  and  O_9
REMARK    6  A    between atoms: C_8  and  C_10
REMARK    7  A    between atoms: C_13  and  C_14
REMARK                            x       y       z     vdW  Elec       q    Type
REMARK                         _______ _______ _______ _____ _____    ______ ____
ROOT
ATOM      1  C   UNL     1       2.241   2.184  18.340  0.00  0.00    +0.000 C 
ATOM      2  C   UNL     1       3.571   2.159  18.156  0.00  0.00    +0.000 C 
ENDROOT
BRANCH   2   3
ATOM      3  C   UNL     1       4.459   3.321  18.021  0.00  0.00    +0.000 A 
ATOM      4  C   UNL     1       4.987   3.952  19.153  0.00  0.00    +0.000 A 
ATOM      5  C   UNL     1       5.901   5.003  19.021  0.00  0.00    +0.000 A 
ATOM      6  C   UNL     1       6.301   5.439  17.752  0.00  0.00    +0.000 A 
ATOM      7  C   UNL     1       7.310   6.539  17.590  0.00  0.00    +0.000 C 
ATOM      8  C   UNL     1       5.770   4.809  16.620  0.00  0.00    +0.000 A 
ATOM      9  C   UNL     1       4.855   3.760  16.752  0.00  0.00    +0.000 A 
ENDBRANCH   2   3
BRANCH   1  10
ATOM     10  C   UNL     1       1.383   3.401  18.443  0.00  0.00    +0.000 C 
ATOM     11  O   UNL     1       0.831   3.934  17.495  0.00  0.00    +0.000 OA
BRANCH  10  12
ATOM     12  C   UNL     1       1.207   3.963  19.870  0.00  0.00    +0.000 C 
ATOM     13  O   UNL     1       1.462   5.121  20.157  0.00  0.00    +0.000 OA
BRANCH  12  15
ATOM     14  C   UNL     1       1.676   2.659  21.755  0.00  0.00    +0.000 C 
ATOM     15  O   UNL     1       0.771   2.999  20.705  0.00  0.00    +0.000 OA
ENDBRANCH  12  15
ENDBRANCH  10  12
ENDBRANCH   1  10
BRANCH   2  16
ATOM     16  O   UNL     1       4.261   0.964  18.048  0.00  0.00    +0.000 OA
ATOM     17  H   UNL     1       5.205   1.113  18.221  0.00  0.00    +0.000 HD
ENDBRANCH   2  16
TORSDOF 5
ENDMDL
MODEL 5
REMARK VINA RESULT:      -6.3      1.901      2.790
REMARK  Name = 
REMARK  7 active torsions:
REMARK  status: ('A' for Active; 'I' for Inactive)
REMARK    1  A    between atoms: C_1  and  O_2
REMARK    2  A    between atoms: O_2  and  C_3
REMARK    3  A    between atoms: C_3  and  C_5
REMARK    4  A    between atoms: C_5  and  C_7
REMARK    5  A    between atoms: C_8  and  O_9
REMARK    6  A    between atoms: C_8  and  C_10
REMARK    7  A    between atoms: C_13  and  C_14
REMARK                            x       y       z     vdW  Elec       q    Type
REMARK                         _______ _______ _______ _____ _____    ______ ____
ROOT
ATOM      1  C   UNL     1       4.696   3.811  17.216  0.00  0.00    +0.000 C 
ATOM      2  C   UNL     1       3.420   4.131  17.483  0.00  0.00    +0.000 C 
ENDROOT
BRANCH   2   3
ATOM      3  C   UNL     1       2.952   5.163  18.419  0.00  0.00    +0.000 A 
ATOM      4  C   UNL     1       2.958   6.514  18.054  0.00  0.00    +0.000 A 
ATOM      5  C   UNL     1       2.431   7.485  18.913  0.00  0.00    +0.000 A 
ATOM      6  C   UNL     1       1.890   7.117  20.151  0.00  0.00    +0.000 A 
ATOM      7  C   UNL     1       1.286   8.140  21.069  0.00  0.00    +0.000 C 
ATOM      8  C   UNL     1       1.887   5.767  20.516  0.00  0.00    +0.000 A 
ATOM      9  C   UNL     1       2.416   4.796  19.659  0.00  0.00    +0.000 A 
ENDBRANCH   2   3
BRANCH   1  10
ATOM     10  C   UNL     1       5.912   4.434  17.820  0.00  0.00    +0.000 C 
ATOM     11  O   UNL     1       6.165   4.429  19.013  0.00  0.00    +0.000 OA
BRANCH  10  12
ATOM     12  C   UNL     1       6.879   5.095  16.815  0.00  0.00    +0.000 C 
ATOM     13  O   UNL     1       7.820   4.499  16.319  0.00  0.00    +0.000 OA
BRANCH  12  15
ATOM     14  C   UNL     1       7.259   7.328  17.400  0.00  0.00    +0.000 C 
ATOM     15  O   UNL     1       6.538   6.384  16.611  0.00  0.00    +0.000 OA
ENDBRANCH  12  15
ENDBRANCH  10  12
ENDBRANCH   1  10
BRANCH   2  16
ATOM     16  O   UNL     1       2.368   3.463  16.880  0.00  0.00    +0.000 OA
ATOM     17  H   UNL     1       1.608   4.061  16.789  0.00  0.00    +0.000 HD
ENDBRANCH   2  16
TORSDOF 5
ENDMDL
MODEL 6
REMARK VINA RESULT:      -6.3      2.681      5.465
REMARK  Name = 
REMARK  7 active torsions:
REMARK  status: ('A' for Active; 'I' for Inactive)
REMARK    1  A    between atoms: C_1  and  O_2
REMARK    2  A    between atoms: O_2  and  C_3
REMARK    3  A    between atoms: C_3  and  C_5
REMARK    4  A    between atoms: C_5  and  C_7
REMARK    5  A    between atoms: C_8  and  O_9
REMARK    6  A    between atoms: C_8  and  C_10
REMARK    7  A    between atoms: C_13  and  C_14
REMARK                            x       y       z     vdW  Elec       q    Type
REMARK                         _______ _______ _______ _____ _____    ______ ____
ROOT
ATOM      1  C   UNL     1       2.293   2.428  18.178  0.00  0.00    +0.000 C 
ATOM      2  C   UNL     1       3.614   2.340  17.959  0.00  0.00    +0.000 C 
ENDROOT
BRANCH   2   3
ATOM      3  C   UNL     1       4.555   3.460  17.817  0.00  0.00    +0.000 A 
ATOM      4  C   UNL     1       4.823   4.011  16.558  0.00  0.00    +0.000 A 
ATOM      5  C   UNL     1       5.652   5.133  16.435  0.00  0.00    +0.000 A 
ATOM      6  C   UNL     1       6.223   5.720  17.570  0.00  0.00    +0.000 A 
ATOM      7  C   UNL     1       7.082   6.946  17.461  0.00  0.00    +0.000 C 
ATOM      8  C   UNL     1       5.956   5.167  18.827  0.00  0.00    +0.000 A 
ATOM      9  C   UNL     1       5.130   4.045  18.951  0.00  0.00    +0.000 A 
ENDBRANCH   2   3
BRANCH   1  10
ATOM     10  C   UNL     1       1.497   3.683  18.318  0.00  0.00    +0.000 C 
ATOM     11  O   UNL     1       0.978   4.274  17.385  0.00  0.00    +0.000 OA
BRANCH  10  12
ATOM     12  C   UNL     1       1.343   4.207  19.762  0.00  0.00    +0.000 C 
ATOM     13  O   UNL     1       1.707   5.322  20.098  0.00  0.00    +0.000 OA
BRANCH  12  15
ATOM     14  C   UNL     1       1.592   2.863  21.660  0.00  0.00    +0.000 C 
ATOM     15  O   UNL     1       0.791   3.262  20.549  0.00  0.00    +0.000 OA
ENDBRANCH  12  15
ENDBRANCH  10  12
ENDBRANCH   1  10
BRANCH   2  16
ATOM     16  O   UNL     1       4.243   1.115  17.819  0.00  0.00    +0.000 OA
ATOM     17  H   UNL     1       5.181   1.250  17.608  0.00  0.00    +0.000 HD
ENDBRANCH   2  16
TORSDOF 5
ENDMDL
MODEL 7
REMARK VINA RESULT:      -6.2      2.748      4.792
REMARK  Name = 
REMARK  7 active torsions:
REMARK  status: ('A' for Active; 'I' for Inactive)
REMARK    1  A    between atoms: C_1  and  O_2
REMARK    2  A    between atoms: O_2  and  C_3
REMARK    3  A    between atoms: C_3  and  C_5
REMARK    4  A    between atoms: C_5  and  C_7
REMARK    5  A    between atoms: C_8  and  O_9
REMARK    6  A    between atoms: C_8  and  C_10
REMARK    7  A    between atoms: C_13  and  C_14
REMARK                            x       y       z     vdW  Elec       q    Type
REMARK                         _______ _______ _______ _____ _____    ______ ____
ROOT
ATOM      1  C   UNL     1       3.967   2.889  18.700  0.00  0.00    +0.000 C 
ATOM      2  C   UNL     1       4.475   4.116  18.895  0.00  0.00    +0.000 C 
ENDROOT
BRANCH   2   3
ATOM      3  C   UNL     1       3.802   5.395  18.631  0.00  0.00    +0.000 A 
ATOM      4  C   UNL     1       2.897   5.930  19.554  0.00  0.00    +0.000 A 
ATOM      5  C   UNL     1       2.323   7.189  19.341  0.00  0.00    +0.000 A 
ATOM      6  C   UNL     1       2.648   7.931  18.199  0.00  0.00    +0.000 A 
ATOM      7  C   UNL     1       2.074   9.300  17.973  0.00  0.00    +0.000 C 
ATOM      8  C   UNL     1       3.551   7.394  17.275  0.00  0.00    +0.000 A 
ATOM      9  C   UNL     1       4.123   6.135  17.487  0.00  0.00    +0.000 A 
ENDBRANCH   2   3
BRANCH   1  10
ATOM     10  C   UNL     1       2.611   2.564  18.169  0.00  0.00    +0.000 C 
ATOM     11  O   UNL     1       2.346   2.453  16.983  0.00  0.00    +0.000 OA
BRANCH  10  12
ATOM     12  C   UNL     1       1.519   2.349  19.239  0.00  0.00    +0.000 C 
ATOM     13  O   UNL     1       0.330   2.327  18.970  0.00  0.00    +0.000 OA
BRANCH  12  15
ATOM     14  C   UNL     1       1.335   2.820  21.524  0.00  0.00    +0.000 C 
ATOM     15  O   UNL     1       2.076   2.222  20.461  0.00  0.00    +0.000 OA
ENDBRANCH  12  15
ENDBRANCH  10  12
ENDBRANCH   1  10
BRANCH   2  16
ATOM     16  O   UNL     1       5.763   4.297  19.370  0.00  0.00    +0.000 OA
ATOM     17  H   UNL     1       5.894   3.767  20.173  0.00  0.00    +0.000 HD
ENDBRANCH   2  16
TORSDOF 5
ENDMDL
MODEL 8
REMARK VINA RESULT:      -6.2      1.906      3.052
REMARK  Name = 
REMARK  7 active torsions:
REMARK  status: ('A' for Active; 'I' for Inactive)
REMARK    1  A    between atoms: C_1  and  O_2
REMARK    2  A    between atoms: O_2  and  C_3
REMARK    3  A    between atoms: C_3  and  C_5
REMARK    4  A    between atoms: C_5  and  C_7
REMARK    5  A    between atoms: C_8  and  O_9
REMARK    6  A    between atoms: C_8  and  C_10
REMARK    7  A    between atoms: C_13  and  C_14
REMARK                            x       y       z     vdW  Elec       q    Type
REMARK                         _______ _______ _______ _____ _____    ______ ____
ROOT
ATOM      1  C   UNL     1       4.719   3.844  17.118  0.00  0.00    +0.000 C 
ATOM      2  C   UNL     1       3.444   4.106  17.446  0.00  0.00    +0.000 C 
ENDROOT
BRANCH   2   3
ATOM      3  C   UNL     1       2.974   5.131  18.388  0.00  0.00    +0.000 A 
ATOM      4  C   UNL     1       2.894   6.474  18.000  0.00  0.00    +0.000 A 
ATOM      5  C   UNL     1       2.365   7.435  18.868  0.00  0.00    +0.000 A 
ATOM      6  C   UNL     1       1.906   7.066  20.139  0.00  0.00    +0.000 A 
ATOM      7  C   UNL     1       1.300   8.076  21.069  0.00  0.00    +0.000 C 
ATOM      8  C   UNL     1       1.989   5.724  20.526  0.00  0.00    +0.000 A 
ATOM      9  C   UNL     1       2.520   4.764  19.660  0.00  0.00    +0.000 A 
ENDBRANCH   2   3
BRANCH   1  10
ATOM     10  C   UNL     1       5.931   4.538  17.645  0.00  0.00    +0.000 C 
ATOM     11  O   UNL     1       6.344   4.426  18.788  0.00  0.00    +0.000 OA
BRANCH  10  12
ATOM     12  C   UNL     1       6.677   5.425  16.625  0.00  0.00    +0.000 C 
ATOM     13  O   UNL     1       6.605   6.642  16.637  0.00  0.00    +0.000 OA
BRANCH  12  15
ATOM     14  C   UNL     1       6.974   4.814  14.387  0.00  0.00    +0.000 C 
ATOM     15  O   UNL     1       7.363   4.662  15.751  0.00  0.00    +0.000 OA
ENDBRANCH  12  15
ENDBRANCH  10  12
ENDBRANCH   1  10
BRANCH   2  16
ATOM     16  O   UNL     1       2.397   3.375  16.911  0.00  0.00    +0.000 OA
ATOM     17  H   UNL     1       2.549   2.427  17.060  0.00  0.00    +0.000 HD
ENDBRANCH   2  16
TORSDOF 5
ENDMDL
MODEL 9
REMARK VINA RESULT:      -6.2      1.844      2.909
REMARK  Name = 
REMARK  7 active torsions:
REMARK  status: ('A' for Active; 'I' for Inactive)
REMARK    1  A    between atoms: C_1  and  O_2
REMARK    2  A    between atoms: O_2  and  C_3
REMARK    3  A    between atoms: C_3  and  C_5
REMARK    4  A    between atoms: C_5  and  C_7
REMARK    5  A    between atoms: C_8  and  O_9
REMARK    6  A    between atoms: C_8  and  C_10
REMARK    7  A    between atoms: C_13  and  C_14
REMARK                            x       y       z     vdW  Elec       q    Type
REMARK                         _______ _______ _______ _____ _____    ______ ____
ROOT
ATOM      1  C   UNL     1       6.627   5.839  17.444  0.00  0.00    +0.000 C 
ATOM      2  C   UNL     1       5.988   5.280  18.484  0.00  0.00    +0.000 C 
ENDROOT
BRANCH   2   3
ATOM      3  C   UNL     1       4.669   4.633  18.458  0.00  0.00    +0.000 A 
ATOM      4  C   UNL     1       4.560   3.238  18.410  0.00  0.00    +0.000 A 
ATOM      5  C   UNL     1       3.305   2.621  18.472  0.00  0.00    +0.000 A 
ATOM      6  C   UNL     1       2.141   3.391  18.584  0.00  0.00    +0.000 A 
ATOM      7  C   UNL     1       0.790   2.746  18.691  0.00  0.00    +0.000 C 
ATOM      8  C   UNL     1       2.252   4.786  18.629  0.00  0.00    +0.000 A 
ATOM      9  C   UNL     1       3.505   5.403  18.564  0.00  0.00    +0.000 A 
ENDBRANCH   2   3
BRANCH   1  10
ATOM     10  C   UNL     1       6.130   5.924  16.039  0.00  0.00    +0.000 C 
ATOM     11  O   UNL     1       5.197   6.626  15.682  0.00  0.00    +0.000 OA
BRANCH  10  12
ATOM     12  C   UNL     1       6.897   5.059  15.016  0.00  0.00    +0.000 C 
ATOM     13  O   UNL     1       7.955   5.410  14.521  0.00  0.00    +0.000 OA
BRANCH  12  15
ATOM     14  C   UNL     1       5.929   3.693  13.382  0.00  0.00    +0.000 C 
ATOM     15  O   UNL     1       6.220   3.922  14.760  0.00  0.00    +0.000 OA
ENDBRANCH  12  15
ENDBRANCH  10  12
ENDBRANCH   1  10
BRANCH   2  16
ATOM     16  O   UNL     1       6.538   5.284  19.755  0.00  0.00    +0.000 OA
ATOM     17  H   UNL     1       6.845   4.391  19.982  0.00  0.00    +0.000 HD
ENDBRANCH   2  16
TORSDOF 5
ENDMDL
