MODEL 1
REMARK VINA RESULT:      -7.5      0.000      0.000
REMARK  Name = 
REMARK  11 active torsions:
REMARK  status: ('A' for Active; 'I' for Inactive)
REMARK    1  A    between atoms: C_1  and  C_2
REMARK    2  A    between atoms: C_2  and  O_3
REMARK    3  A    between atoms: O_3  and  C_4
REMARK    4  A    between atoms: C_4  and  C_6
REMARK    5  A    between atoms: C_6  and  N_7
REMARK    6  A    between atoms: N_10  and  C_11
REMARK    7  A    between atoms: C_11  and  C_12
REMARK    8  A    between atoms: C_19  and  C_20
REMARK    9  A    between atoms: C_25  and  O_26
REMARK   10  A    between atoms: O_26  and  C_27
REMARK   11  A    between atoms: C_29  and  C_30
REMARK                            x       y       z     vdW  Elec       q    Type
REMARK                         _______ _______ _______ _____ _____    ______ ____
ROOT
ATOM      1  N   UNL     1       5.030   4.253  17.160  0.00  0.00    +0.000 N 
ATOM      2  C   UNL     1       4.103   3.219  17.333  0.00  0.00    +0.000 A 
ATOM      3  O   UNL     1       4.329   2.022  17.239  0.00  0.00    +0.000 OA
ATOM      4  N   UNL     1       2.881   3.820  17.636  0.00  0.00    +0.000 N 
ATOM      5  C   UNL     1       3.084   5.205  17.800  0.00  0.00    +0.000 A 
ATOM      6  N   UNL     1       2.178   6.110  18.183  0.00  0.00    +0.000 NA
ATOM      7  C   UNL     1       2.650   7.354  18.373  0.00  0.00    +0.000 A 
ATOM      8  N   UNL     1       3.940   7.714  18.129  0.00  0.00    +0.000 NA
ATOM      9  C   UNL     1       4.817   6.761  17.715  0.00  0.00    +0.000 A 
ATOM     10  C   UNL     1       4.424   5.464  17.541  0.00  0.00    +0.000 A 
ENDROOT
BRANCH   7  11
ATOM     11  C   UNL     1       1.741   8.462  18.748  0.00  0.00    +0.000 A 
ATOM     12  C   UNL     1       1.162   9.195  17.674  0.00  0.00    +0.000 A 
ATOM     13  C   UNL     1       0.199  10.198  17.833  0.00  0.00    +0.000 A 
ATOM     14  C   UNL     1      -0.214  10.519  19.113  0.00  0.00    +0.000 A 
ATOM     15  C   UNL     1       0.348   9.850  20.201  0.00  0.00    +0.000 A 
ATOM     16  C   UNL     1       1.325   8.842  20.045  0.00  0.00    +0.000 A 
BRANCH  16  17
ATOM     17  O   UNL     1       1.659   8.275  21.246  0.00  0.00    +0.000 OA
ATOM     18  C   UNL     1       1.368   8.988  22.442  0.00  0.00    +0.000 C 
ENDBRANCH  16  17
ENDBRANCH   7  11
BRANCH   9  19
ATOM     19  C   UNL     1       6.198   7.281  17.449  0.00  0.00    +0.000 C 
ATOM     20  N   UNL     1       7.215   6.741  18.195  0.00  0.00    +0.000 N 
ATOM     21  O   UNL     1       6.455   8.158  16.637  0.00  0.00    +0.000 OA
ATOM     22  H   UNL     1       7.048   6.077  18.937  0.00  0.00    +0.000 HD
ATOM     23  H   UNL     1       8.154   7.084  18.032  0.00  0.00    +0.000 HD
ENDBRANCH   9  19
BRANCH   1  24
ATOM     24  C   UNL     1       6.425   3.976  16.949  0.00  0.00    +0.000 C 
BRANCH  24  25
ATOM     25  C   UNL     1       6.804   4.338  15.523  0.00  0.00    +0.000 C 
ATOM     26  O   UNL     1       7.498   5.301  15.205  0.00  0.00    +0.000 OA
BRANCH  25  27
ATOM     27  O   UNL     1       6.241   3.455  14.657  0.00  0.00    +0.000 OA
BRANCH  27  29
ATOM     28  C   UNL     1       6.072   3.323  12.256  0.00  0.00    +0.000 C 
ATOM     29  C   UNL     1       5.649   4.069  13.511  0.00  0.00    +0.000 C 
ENDBRANCH  27  29
ENDBRANCH  25  27
ENDBRANCH  24  25
ENDBRANCH   1  24
BRANCH   4  30
ATOM     30  C   UNL     1       1.656   3.083  17.840  0.00  0.00    +0.000 C 
BRANCH  30  31
ATOM     31  C   UNL     1       1.401   2.616  19.290  0.00  0.00    +0.000 C 
ATOM     32  C   UNL     1       0.836   3.639  20.270  0.00  0.00    +0.000 C 
ATOM     33  C   UNL     1       1.583   3.393  21.558  0.00  0.00    +0.000 C 
ATOM     34  C   UNL     1       2.819   2.630  21.150  0.00  0.00    +0.000 C 
ATOM     35  O   UNL     1       2.605   2.081  19.853  0.00  0.00    +0.000 OA
ENDBRANCH  30  31
ENDBRANCH   4  30
TORSDOF 9
ENDMDL
MODEL 2
REMARK VINA RESULT:      -7.5      0.979      1.583
REMARK  Name = 
REMARK  11 active torsions:
REMARK  status: ('A' for Active; 'I' for Inactive)
REMARK    1  A    between atoms: C_1  and  C_2
REMARK    2  A    between atoms: C_2  and  O_3
REMARK    3  A    between atoms: O_3  and  C_4
REMARK    4  A    between atoms: C_4  and  C_6
REMARK    5  A    between atoms: C_6  and  N_7
REMARK    6  A    between atoms: N_10  and  C_11
REMARK    7  A    between atoms: C_11  and  C_12
REMARK    8  A    between atoms: C_19  and  C_20
REMARK    9  A    between atoms: C_25  and  O_26
REMARK   10  A    between atoms: O_26  and  C_27
REMARK   11  A    between atoms: C_29  and  C_30
REMARK                            x       y       z     vdW  Elec       q    Type
REMARK                         _______ _______ _______ _____ _____    ______ ____
ROOT
ATOM      1  N   UNL     1       5.111   4.147  16.931  0.00  0.00    +0.000 N 
ATOM      2  C   UNL     1       4.226   3.072  17.065  0.00  0.00    +0.000 A 
ATOM      3  O   UNL     1       4.461   1.903  16.796  0.00  0.00    +0.000 OA
ATOM      4  N   UNL     1       3.032   3.592  17.566  0.00  0.00    +0.000 N 
ATOM      5  C   UNL     1       3.227   4.951  17.884  0.00  0.00    +0.000 A 
ATOM      6  N   UNL     1       2.351   5.773  18.470  0.00  0.00    +0.000 NA
ATOM      7  C   UNL     1       2.819   6.998  18.768  0.00  0.00    +0.000 A 
ATOM      8  N   UNL     1       4.070   7.425  18.441  0.00  0.00    +0.000 NA
ATOM      9  C   UNL     1       4.914   6.557  17.821  0.00  0.00    +0.000 A 
ATOM     10  C   UNL     1       4.528   5.282  17.524  0.00  0.00    +0.000 A 
ENDROOT
BRANCH   7  11
ATOM     11  C   UNL     1       1.936   8.021  19.373  0.00  0.00    +0.000 A 
ATOM     12  C   UNL     1       1.409   7.719  20.661  0.00  0.00    +0.000 A 
ATOM     13  C   UNL     1       0.651   8.608  21.430  0.00  0.00    +0.000 A 
ATOM     14  C   UNL     1       0.374   9.860  20.911  0.00  0.00    +0.000 A 
ATOM     15  C   UNL     1       0.842  10.191  19.639  0.00  0.00    +0.000 A 
ATOM     16  C   UNL     1       1.602   9.295  18.857  0.00  0.00    +0.000 A 
BRANCH  16  17
ATOM     17  O   UNL     1       2.019   9.875  17.688  0.00  0.00    +0.000 OA
ATOM     18  C   UNL     1       2.430  11.237  17.710  0.00  0.00    +0.000 C 
ENDBRANCH  16  17
ENDBRANCH   7  11
BRANCH   9  19
ATOM     19  C   UNL     1       6.251   7.149  17.483  0.00  0.00    +0.000 C 
ATOM     20  N   UNL     1       7.319   6.729  18.234  0.00  0.00    +0.000 N 
ATOM     21  O   UNL     1       6.429   7.984  16.609  0.00  0.00    +0.000 OA
ATOM     22  H   UNL     1       7.214   6.106  19.022  0.00  0.00    +0.000 HD
ATOM     23  H   UNL     1       8.228   7.121  18.024  0.00  0.00    +0.000 HD
ENDBRANCH   9  19
BRANCH   1  24
ATOM     24  C   UNL     1       6.481   3.941  16.544  0.00  0.00    +0.000 C 
BRANCH  24  25
ATOM     25  C   UNL     1       6.675   4.391  15.106  0.00  0.00    +0.000 C 
ATOM     26  O   UNL     1       7.347   5.359  14.759  0.00  0.00    +0.000 OA
BRANCH  25  27
ATOM     27  O   UNL     1       5.976   3.578  14.270  0.00  0.00    +0.000 OA
BRANCH  27  29
ATOM     28  C   UNL     1       5.150   3.298  12.023  0.00  0.00    +0.000 C 
ATOM     29  C   UNL     1       6.317   3.740  12.892  0.00  0.00    +0.000 C 
ENDBRANCH  27  29
ENDBRANCH  25  27
ENDBRANCH  24  25
ENDBRANCH   1  24
BRANCH   4  30
ATOM     30  C   UNL     1       1.848   2.798  17.799  0.00  0.00    +0.000 C 
BRANCH  30  31
ATOM     31  C   UNL     1       1.669   2.290  19.246  0.00  0.00    +0.000 C 
ATOM     32  C   UNL     1       0.798   3.123  20.181  0.00  0.00    +0.000 C 
ATOM     33  C   UNL     1       1.525   3.105  21.503  0.00  0.00    +0.000 C 
ATOM     34  C   UNL     1       2.942   2.715  21.162  0.00  0.00    +0.000 C 
ATOM     35  O   UNL     1       2.948   2.118  19.868  0.00  0.00    +0.000 OA
ENDBRANCH  30  31
ENDBRANCH   4  30
TORSDOF 9
ENDMDL
MODEL 3
REMARK VINA RESULT:      -7.3      1.904      5.001
REMARK  Name = 
REMARK  11 active torsions:
REMARK  status: ('A' for Active; 'I' for Inactive)
REMARK    1  A    between atoms: C_1  and  C_2
REMARK    2  A    between atoms: C_2  and  O_3
REMARK    3  A    between atoms: O_3  and  C_4
REMARK    4  A    between atoms: C_4  and  C_6
REMARK    5  A    between atoms: C_6  and  N_7
REMARK    6  A    between atoms: N_10  and  C_11
REMARK    7  A    between atoms: C_11  and  C_12
REMARK    8  A    between atoms: C_19  and  C_20
REMARK    9  A    between atoms: C_25  and  O_26
REMARK   10  A    between atoms: O_26  and  C_27
REMARK   11  A    between atoms: C_29  and  C_30
REMARK                            x       y       z     vdW  Elec       q    Type
REMARK                         _______ _______ _______ _____ _____    ______ ____
ROOT
ATOM      1  N   UNL     1       4.630   3.853  19.669  0.00  0.00    +0.000 N 
ATOM      2  C   UNL     1       5.588   4.436  18.832  0.00  0.00    +0.000 A 
ATOM      3  O   UNL     1       6.519   3.861  18.289  0.00  0.00    +0.000 OA
ATOM      4  N   UNL     1       5.270   5.791  18.738  0.00  0.00    +0.000 N 
ATOM      5  C   UNL     1       4.039   6.015  19.386  0.00  0.00    +0.000 A 
ATOM      6  N   UNL     1       3.353   7.161  19.436  0.00  0.00    +0.000 NA
ATOM      7  C   UNL     1       2.146   7.087  20.023  0.00  0.00    +0.000 A 
ATOM      8  N   UNL     1       1.660   5.955  20.602  0.00  0.00    +0.000 NA
ATOM      9  C   UNL     1       2.409   4.821  20.547  0.00  0.00    +0.000 A 
ATOM     10  C   UNL     1       3.627   4.805  19.930  0.00  0.00    +0.000 A 
ENDROOT
BRANCH   7  11
ATOM     11  C   UNL     1       1.307   8.296  20.189  0.00  0.00    +0.000 A 
ATOM     12  C   UNL     1       0.511   8.355  21.369  0.00  0.00    +0.000 A 
ATOM     13  C   UNL     1      -0.255   9.463  21.747  0.00  0.00    +0.000 A 
ATOM     14  C   UNL     1      -0.262  10.573  20.923  0.00  0.00    +0.000 A 
ATOM     15  C   UNL     1       0.478  10.552  19.740  0.00  0.00    +0.000 A 
ATOM     16  C   UNL     1       1.247   9.433  19.352  0.00  0.00    +0.000 A 
BRANCH  16  17
ATOM     17  O   UNL     1       1.950   9.681  18.202  0.00  0.00    +0.000 OA
ATOM     18  C   UNL     1       2.261  11.028  17.868  0.00  0.00    +0.000 C 
ENDBRANCH  16  17
ENDBRANCH   7  11
BRANCH   9  19
ATOM     19  C   UNL     1       1.786   3.648  21.245  0.00  0.00    +0.000 C 
ATOM     20  N   UNL     1       0.699   3.075  20.637  0.00  0.00    +0.000 N 
ATOM     21  O   UNL     1       2.174   3.202  22.315  0.00  0.00    +0.000 OA
ATOM     22  H   UNL     1       0.285   3.456  19.797  0.00  0.00    +0.000 HD
ATOM     23  H   UNL     1       0.262   2.286  21.096  0.00  0.00    +0.000 HD
ENDBRANCH   9  19
BRANCH   1  24
ATOM     24  C   UNL     1       4.598   2.432  19.889  0.00  0.00    +0.000 C 
BRANCH  24  25
ATOM     25  C   UNL     1       3.554   1.803  18.982  0.00  0.00    +0.000 C 
ATOM     26  O   UNL     1       2.767   0.924  19.324  0.00  0.00    +0.000 OA
BRANCH  25  27
ATOM     27  O   UNL     1       3.640   2.340  17.736  0.00  0.00    +0.000 OA
BRANCH  27  29
ATOM     28  C   UNL     1       1.898   3.935  17.256  0.00  0.00    +0.000 C 
ATOM     29  C   UNL     1       2.376   2.501  17.090  0.00  0.00    +0.000 C 
ENDBRANCH  27  29
ENDBRANCH  25  27
ENDBRANCH  24  25
ENDBRANCH   1  24
BRANCH   4  30
ATOM     30  C   UNL     1       6.057   6.749  17.995  0.00  0.00    +0.000 C 
BRANCH  30  31
ATOM     31  C   UNL     1       6.046   6.562  16.462  0.00  0.00    +0.000 C 
ATOM     32  C   UNL     1       4.945   5.692  15.866  0.00  0.00    +0.000 C 
ATOM     33  C   UNL     1       5.629   4.886  14.791  0.00  0.00    +0.000 C 
ATOM     34  C   UNL     1       7.098   4.952  15.132  0.00  0.00    +0.000 C 
ATOM     35  O   UNL     1       7.307   6.045  16.021  0.00  0.00    +0.000 OA
ENDBRANCH  30  31
ENDBRANCH   4  30
TORSDOF 9
ENDMDL
MODEL 4
REMARK VINA RESULT:      -7.3      1.770      4.721
REMARK  Name = 
REMARK  11 active torsions:
REMARK  status: ('A' for Active; 'I' for Inactive)
REMARK    1  A    between atoms: C_1  and  C_2
REMARK    2  A    between atoms: C_2  and  O_3
REMARK    3  A    between atoms: O_3  and  C_4
REMARK    4  A    between atoms: C_4  and  C_6
REMARK    5  A    between atoms: C_6  and  N_7
REMARK    6  A    between atoms: N_10  and  C_11
REMARK    7  A    between atoms: C_11  and  C_12
REMARK    8  A    between atoms: C_19  and  C_20
REMARK    9  A    between atoms: C_25  and  O_26
REMARK   10  A    between atoms: O_26  and  C_27
REMARK   11  A    between atoms: C_29  and  C_30
REMARK                            x       y       z     vdW  Elec       q    Type
REMARK                         _______ _______ _______ _____ _____    ______ ____
ROOT
ATOM      1  N   UNL     1       4.506   3.843  19.653  0.00  0.00    +0.000 N 
ATOM      2  C   UNL     1       5.534   4.320  18.832  0.00  0.00    +0.000 A 
ATOM      3  O   UNL     1       6.450   3.661  18.364  0.00  0.00    +0.000 OA
ATOM      4  N   UNL     1       5.305   5.685  18.652  0.00  0.00    +0.000 N 
ATOM      5  C   UNL     1       4.064   6.018  19.229  0.00  0.00    +0.000 A 
ATOM      6  N   UNL     1       3.451   7.204  19.186  0.00  0.00    +0.000 NA
ATOM      7  C   UNL     1       2.217   7.236  19.720  0.00  0.00    +0.000 A 
ATOM      8  N   UNL     1       1.636   6.169  20.334  0.00  0.00    +0.000 NA
ATOM      9  C   UNL     1       2.314   4.991  20.374  0.00  0.00    +0.000 A 
ATOM     10  C   UNL     1       3.554   4.867  19.816  0.00  0.00    +0.000 A 
ENDROOT
BRANCH   7  11
ATOM     11  C   UNL     1       1.449   8.501  19.783  0.00  0.00    +0.000 A 
ATOM     12  C   UNL     1       1.110   9.096  18.535  0.00  0.00    +0.000 A 
ATOM     13  C   UNL     1       0.297  10.226  18.396  0.00  0.00    +0.000 A 
ATOM     14  C   UNL     1      -0.202  10.824  19.538  0.00  0.00    +0.000 A 
ATOM     15  C   UNL     1       0.128  10.296  20.787  0.00  0.00    +0.000 A 
ATOM     16  C   UNL     1       0.953   9.160  20.931  0.00  0.00    +0.000 A 
BRANCH  16  17
ATOM     17  O   UNL     1       1.063   8.781  22.243  0.00  0.00    +0.000 OA
ATOM     18  C   UNL     1       0.190   9.370  23.199  0.00  0.00    +0.000 C 
ENDBRANCH  16  17
ENDBRANCH   7  11
BRANCH   9  19
ATOM     19  C   UNL     1       1.589   3.898  21.103  0.00  0.00    +0.000 C 
ATOM     20  N   UNL     1       2.173   3.430  22.252  0.00  0.00    +0.000 N 
ATOM     21  O   UNL     1       0.540   3.399  20.721  0.00  0.00    +0.000 OA
ATOM     22  H   UNL     1       3.079   3.747  22.566  0.00  0.00    +0.000 HD
ATOM     23  H   UNL     1       1.701   2.688  22.754  0.00  0.00    +0.000 HD
ENDBRANCH   9  19
BRANCH   1  24
ATOM     24  C   UNL     1       4.375   2.441  19.945  0.00  0.00    +0.000 C 
BRANCH  24  25
ATOM     25  C   UNL     1       3.777   1.727  18.745  0.00  0.00    +0.000 C 
ATOM     26  O   UNL     1       4.352   0.868  18.082  0.00  0.00    +0.000 OA
BRANCH  25  27
ATOM     27  O   UNL     1       2.525   2.198  18.504  0.00  0.00    +0.000 OA
BRANCH  27  29
ATOM     28  C   UNL     1       1.457   4.006  17.320  0.00  0.00    +0.000 C 
ATOM     29  C   UNL     1       2.374   2.798  17.215  0.00  0.00    +0.000 C 
ENDBRANCH  27  29
ENDBRANCH  25  27
ENDBRANCH  24  25
ENDBRANCH   1  24
BRANCH   4  30
ATOM     30  C   UNL     1       6.183   6.550  17.897  0.00  0.00    +0.000 C 
BRANCH  30  31
ATOM     31  C   UNL     1       6.132   6.365  16.365  0.00  0.00    +0.000 C 
ATOM     32  C   UNL     1       4.975   5.554  15.792  0.00  0.00    +0.000 C 
ATOM     33  C   UNL     1       5.595   4.714  14.703  0.00  0.00    +0.000 C 
ATOM     34  C   UNL     1       7.072   4.702  15.015  0.00  0.00    +0.000 C 
ATOM     35  O   UNL     1       7.355   5.782  15.900  0.00  0.00    +0.000 OA
ENDBRANCH  30  31
ENDBRANCH   4  30
TORSDOF 9
ENDMDL
MODEL 5
REMARK VINA RESULT:      -7.3      2.242      5.543
REMARK  Name = 
REMARK  11 active torsions:
REMARK  status: ('A' for Active; 'I' for Inactive)
REMARK    1  A    between atoms: C_1  and  C_2
REMARK    2  A    between atoms: C_2  and  O_3
REMARK    3  A    between atoms: O_3  and  C_4
REMARK    4  A    between atoms: C_4  and  C_6
REMARK    5  A    between atoms: C_6  and  N_7
REMARK    6  A    between atoms: N_10  and  C_11
REMARK    7  A    between atoms: C_11  and  C_12
REMARK    8  A    between atoms: C_19  and  C_20
REMARK    9  A    between atoms: C_25  and  O_26
REMARK   10  A    between atoms: O_26  and  C_27
REMARK   11  A    between atoms: C_29  and  C_30
REMARK                            x       y       z     vdW  Elec       q    Type
REMARK                         _______ _______ _______ _____ _____    ______ ____
ROOT
ATOM      1  N   UNL     1       4.269   3.544  19.491  0.00  0.00    +0.000 N 
ATOM      2  C   UNL     1       5.343   4.131  18.812  0.00  0.00    +0.000 A 
ATOM      3  O   UNL     1       6.262   3.541  18.265  0.00  0.00    +0.000 OA
ATOM      4  N   UNL     1       5.154   5.512  18.878  0.00  0.00    +0.000 N 
ATOM      5  C   UNL     1       3.897   5.771  19.459  0.00  0.00    +0.000 A 
ATOM      6  N   UNL     1       3.314   6.964  19.614  0.00  0.00    +0.000 NA
ATOM      7  C   UNL     1       2.060   6.935  20.097  0.00  0.00    +0.000 A 
ATOM      8  N   UNL     1       1.428   5.792  20.481  0.00  0.00    +0.000 NA
ATOM      9  C   UNL     1       2.075   4.606  20.328  0.00  0.00    +0.000 A 
ATOM     10  C   UNL     1       3.335   4.549  19.804  0.00  0.00    +0.000 A 
ENDROOT
BRANCH   7  11
ATOM     11  C   UNL     1       1.319   8.190  20.363  0.00  0.00    +0.000 A 
ATOM     12  C   UNL     1       0.775   8.337  21.671  0.00  0.00    +0.000 A 
ATOM     13  C   UNL     1       0.144   9.496  22.136  0.00  0.00    +0.000 A 
ATOM     14  C   UNL     1       0.020  10.571  21.275  0.00  0.00    +0.000 A 
ATOM     15  C   UNL     1       0.510  10.464  19.972  0.00  0.00    +0.000 A 
ATOM     16  C   UNL     1       1.141   9.294  19.498  0.00  0.00    +0.000 A 
BRANCH  16  17
ATOM     17  O   UNL     1       1.612   9.459  18.221  0.00  0.00    +0.000 OA
ATOM     18  C   UNL     1       2.179  10.712  17.860  0.00  0.00    +0.000 C 
ENDBRANCH  16  17
ENDBRANCH   7  11
BRANCH   9  19
ATOM     19  C   UNL     1       1.295   3.422  20.814  0.00  0.00    +0.000 C 
ATOM     20  N   UNL     1       0.492   2.793  19.897  0.00  0.00    +0.000 N 
ATOM     21  O   UNL     1       1.318   3.011  21.965  0.00  0.00    +0.000 OA
ATOM     22  H   UNL     1       0.370   3.141  18.956  0.00  0.00    +0.000 HD
ATOM     23  H   UNL     1      -0.047   1.995  20.208  0.00  0.00    +0.000 HD
ENDBRANCH   9  19
BRANCH   1  24
ATOM     24  C   UNL     1       4.093   2.117  19.514  0.00  0.00    +0.000 C 
BRANCH  24  25
ATOM     25  C   UNL     1       4.486   1.579  20.879  0.00  0.00    +0.000 C 
ATOM     26  O   UNL     1       3.843   1.748  21.911  0.00  0.00    +0.000 OA
BRANCH  25  27
ATOM     27  O   UNL     1       5.664   0.907  20.788  0.00  0.00    +0.000 OA
BRANCH  27  29
ATOM     28  C   UNL     1       6.586  -1.099  21.756  0.00  0.00    +0.000 C 
ATOM     29  C   UNL     1       6.084   0.312  22.017  0.00  0.00    +0.000 C 
ENDBRANCH  27  29
ENDBRANCH  25  27
ENDBRANCH  24  25
ENDBRANCH   1  24
BRANCH   4  30
ATOM     30  C   UNL     1       6.083   6.474  18.330  0.00  0.00    +0.000 C 
BRANCH  30  31
ATOM     31  C   UNL     1       6.135   6.535  16.788  0.00  0.00    +0.000 C 
ATOM     32  C   UNL     1       4.979   5.902  16.019  0.00  0.00    +0.000 C 
ATOM     33  C   UNL     1       5.630   5.203  14.852  0.00  0.00    +0.000 C 
ATOM     34  C   UNL     1       7.077   5.046  15.251  0.00  0.00    +0.000 C 
ATOM     35  O   UNL     1       7.354   5.952  16.314  0.00  0.00    +0.000 OA
ENDBRANCH  30  31
ENDBRANCH   4  30
TORSDOF 9
ENDMDL
MODEL 6
REMARK VINA RESULT:      -7.2      1.402      1.845
REMARK  Name = 
REMARK  11 active torsions:
REMARK  status: ('A' for Active; 'I' for Inactive)
REMARK    1  A    between atoms: C_1  and  C_2
REMARK    2  A    between atoms: C_2  and  O_3
REMARK    3  A    between atoms: O_3  and  C_4
REMARK    4  A    between atoms: C_4  and  C_6
REMARK    5  A    between atoms: C_6  and  N_7
REMARK    6  A    between atoms: N_10  and  C_11
REMARK    7  A    between atoms: C_11  and  C_12
REMARK    8  A    between atoms: C_19  and  C_20
REMARK    9  A    between atoms: C_25  and  O_26
REMARK   10  A    between atoms: O_26  and  C_27
REMARK   11  A    between atoms: C_29  and  C_30
REMARK                            x       y       z     vdW  Elec       q    Type
REMARK                         _______ _______ _______ _____ _____    ______ ____
ROOT
ATOM      1  N   UNL     1       5.160   4.544  18.354  0.00  0.00    +0.000 N 
ATOM      2  C   UNL     1       4.744   3.760  19.436  0.00  0.00    +0.000 A 
ATOM      3  O   UNL     1       5.291   2.749  19.849  0.00  0.00    +0.000 OA
ATOM      4  N   UNL     1       3.593   4.360  19.949  0.00  0.00    +0.000 N 
ATOM      5  C   UNL     1       3.386   5.586  19.288  0.00  0.00    +0.000 A 
ATOM      6  N   UNL     1       2.443   6.495  19.555  0.00  0.00    +0.000 NA
ATOM      7  C   UNL     1       2.526   7.637  18.852  0.00  0.00    +0.000 A 
ATOM      8  N   UNL     1       3.449   7.854  17.876  0.00  0.00    +0.000 NA
ATOM      9  C   UNL     1       4.371   6.886  17.623  0.00  0.00    +0.000 A 
ATOM     10  C   UNL     1       4.380   5.715  18.325  0.00  0.00    +0.000 A 
ENDROOT
BRANCH   7  11
ATOM     11  C   UNL     1       1.513   8.705  19.016  0.00  0.00    +0.000 A 
ATOM     12  C   UNL     1       0.895   9.178  17.823  0.00  0.00    +0.000 A 
ATOM     13  C   UNL     1      -0.158  10.099  17.794  0.00  0.00    +0.000 A 
ATOM     14  C   UNL     1      -0.627  10.604  18.992  0.00  0.00    +0.000 A 
ATOM     15  C   UNL     1      -0.033  10.194  20.187  0.00  0.00    +0.000 A 
ATOM     16  C   UNL     1       1.033   9.270  20.220  0.00  0.00    +0.000 A 
BRANCH  16  17
ATOM     17  O   UNL     1       1.390   8.960  21.506  0.00  0.00    +0.000 OA
ATOM     18  C   UNL     1       0.493   9.286  22.561  0.00  0.00    +0.000 C 
ENDBRANCH  16  17
ENDBRANCH   7  11
BRANCH   9  19
ATOM     19  C   UNL     1       5.315   7.224  16.508  0.00  0.00    +0.000 C 
ATOM     20  N   UNL     1       6.591   7.578  16.865  0.00  0.00    +0.000 N 
ATOM     21  O   UNL     1       5.006   7.223  15.325  0.00  0.00    +0.000 OA
ATOM     22  H   UNL     1       6.875   7.677  17.830  0.00  0.00    +0.000 HD
ATOM     23  H   UNL     1       7.241   7.814  16.126  0.00  0.00    +0.000 HD
ENDBRANCH   9  19
BRANCH   1  24
ATOM     24  C   UNL     1       6.392   4.270  17.665  0.00  0.00    +0.000 C 
BRANCH  24  25
ATOM     25  C   UNL     1       6.100   3.978  16.203  0.00  0.00    +0.000 C 
ATOM     26  O   UNL     1       5.164   3.293  15.798  0.00  0.00    +0.000 OA
BRANCH  25  27
ATOM     27  O   UNL     1       7.042   4.565  15.418  0.00  0.00    +0.000 OA
BRANCH  27  29
ATOM     28  C   UNL     1       7.835   5.219  13.238  0.00  0.00    +0.000 C 
ATOM     29  C   UNL     1       6.763   4.477  14.019  0.00  0.00    +0.000 C 
ENDBRANCH  27  29
ENDBRANCH  25  27
ENDBRANCH  24  25
ENDBRANCH   1  24
BRANCH   4  30
ATOM     30  C   UNL     1       2.832   3.818  21.052  0.00  0.00    +0.000 C 
BRANCH  30  31
ATOM     31  C   UNL     1       1.631   2.934  20.651  0.00  0.00    +0.000 C 
ATOM     32  C   UNL     1       1.897   1.775  19.696  0.00  0.00    +0.000 C 
ATOM     33  C   UNL     1       0.720   1.775  18.752  0.00  0.00    +0.000 C 
ATOM     34  C   UNL     1       0.120   3.155  18.879  0.00  0.00    +0.000 C 
ATOM     35  O   UNL     1       0.591   3.743  20.088  0.00  0.00    +0.000 OA
ENDBRANCH  30  31
ENDBRANCH   4  30
TORSDOF 9
ENDMDL
MODEL 7
REMARK VINA RESULT:      -7.2      2.029      5.301
REMARK  Name = 
REMARK  11 active torsions:
REMARK  status: ('A' for Active; 'I' for Inactive)
REMARK    1  A    between atoms: C_1  and  C_2
REMARK    2  A    between atoms: C_2  and  O_3
REMARK    3  A    between atoms: O_3  and  C_4
REMARK    4  A    between atoms: C_4  and  C_6
REMARK    5  A    between atoms: C_6  and  N_7
REMARK    6  A    between atoms: N_10  and  C_11
REMARK    7  A    between atoms: C_11  and  C_12
REMARK    8  A    between atoms: C_19  and  C_20
REMARK    9  A    between atoms: C_25  and  O_26
REMARK   10  A    between atoms: O_26  and  C_27
REMARK   11  A    between atoms: C_29  and  C_30
REMARK                            x       y       z     vdW  Elec       q    Type
REMARK                         _______ _______ _______ _____ _____    ______ ____
ROOT
ATOM      1  N   UNL     1       4.315   3.660  19.320  0.00  0.00    +0.000 N 
ATOM      2  C   UNL     1       5.450   4.172  18.680  0.00  0.00    +0.000 A 
ATOM      3  O   UNL     1       6.388   3.523  18.244  0.00  0.00    +0.000 OA
ATOM      4  N   UNL     1       5.295   5.558  18.634  0.00  0.00    +0.000 N 
ATOM      5  C   UNL     1       4.008   5.887  19.104  0.00  0.00    +0.000 A 
ATOM      6  N   UNL     1       3.449   7.101  19.131  0.00  0.00    +0.000 NA
ATOM      7  C   UNL     1       2.163   7.136  19.524  0.00  0.00    +0.000 A 
ATOM      8  N   UNL     1       1.475   6.038  19.941  0.00  0.00    +0.000 NA
ATOM      9  C   UNL     1       2.099   4.830  19.920  0.00  0.00    +0.000 A 
ATOM     10  C   UNL     1       3.390   4.706  19.493  0.00  0.00    +0.000 A 
ENDROOT
BRANCH   7  11
ATOM     11  C   UNL     1       1.442   8.423  19.647  0.00  0.00    +0.000 A 
ATOM     12  C   UNL     1       1.118   9.084  18.427  0.00  0.00    +0.000 A 
ATOM     13  C   UNL     1       0.345  10.248  18.343  0.00  0.00    +0.000 A 
ATOM     14  C   UNL     1      -0.127  10.812  19.514  0.00  0.00    +0.000 A 
ATOM     15  C   UNL     1       0.190  10.219  20.736  0.00  0.00    +0.000 A 
ATOM     16  C   UNL     1       0.975   9.048  20.825  0.00  0.00    +0.000 A 
BRANCH  16  17
ATOM     17  O   UNL     1       1.078   8.609  22.119  0.00  0.00    +0.000 OA
ATOM     18  C   UNL     1       0.371   9.309  23.136  0.00  0.00    +0.000 C 
ENDBRANCH  16  17
ENDBRANCH   7  11
BRANCH   9  19
ATOM     19  C   UNL     1       1.253   3.701  20.431  0.00  0.00    +0.000 C 
ATOM     20  N   UNL     1       0.494   3.031  19.506  0.00  0.00    +0.000 N 
ATOM     21  O   UNL     1       1.188   3.372  21.607  0.00  0.00    +0.000 OA
ATOM     22  H   UNL     1       0.445   3.315  18.538  0.00  0.00    +0.000 HD
ATOM     23  H   UNL     1      -0.087   2.269  19.834  0.00  0.00    +0.000 HD
ENDBRANCH   9  19
BRANCH   1  24
ATOM     24  C   UNL     1       4.098   2.243  19.431  0.00  0.00    +0.000 C 
BRANCH  24  25
ATOM     25  C   UNL     1       4.438   1.786  20.840  0.00  0.00    +0.000 C 
ATOM     26  O   UNL     1       3.793   2.075  21.845  0.00  0.00    +0.000 OA
BRANCH  25  27
ATOM     27  O   UNL     1       5.571   1.036  20.821  0.00  0.00    +0.000 OA
BRANCH  27  29
ATOM     28  C   UNL     1       6.643  -0.831  21.905  0.00  0.00    +0.000 C 
ATOM     29  C   UNL     1       5.924   0.495  22.096  0.00  0.00    +0.000 C 
ENDBRANCH  27  29
ENDBRANCH  25  27
ENDBRANCH  24  25
ENDBRANCH   1  24
BRANCH   4  30
ATOM     30  C   UNL     1       6.286   6.456  18.088  0.00  0.00    +0.000 C 
BRANCH  30  31
ATOM     31  C   UNL     1       6.356   6.501  16.546  0.00  0.00    +0.000 C 
ATOM     32  C   UNL     1       5.130   6.028  15.772  0.00  0.00    +0.000 C 
ATOM     33  C   UNL     1       5.687   5.239  14.612  0.00  0.00    +0.000 C 
ATOM     34  C   UNL     1       7.096   4.888  15.023  0.00  0.00    +0.000 C 
ATOM     35  O   UNL     1       7.488   5.754  16.083  0.00  0.00    +0.000 OA
ENDBRANCH  30  31
ENDBRANCH   4  30
TORSDOF 9
ENDMDL
MODEL 8
REMARK VINA RESULT:      -7.0      2.055      5.079
REMARK  Name = 
REMARK  11 active torsions:
REMARK  status: ('A' for Active; 'I' for Inactive)
REMARK    1  A    between atoms: C_1  and  C_2
REMARK    2  A    between atoms: C_2  and  O_3
REMARK    3  A    between atoms: O_3  and  C_4
REMARK    4  A    between atoms: C_4  and  C_6
REMARK    5  A    between atoms: C_6  and  N_7
REMARK    6  A    between atoms: N_10  and  C_11
REMARK    7  A    between atoms: C_11  and  C_12
REMARK    8  A    between atoms: C_19  and  C_20
REMARK    9  A    between atoms: C_25  and  O_26
REMARK   10  A    between atoms: O_26  and  C_27
REMARK   11  A    between atoms: C_29  and  C_30
REMARK                            x       y       z     vdW  Elec       q    Type
REMARK                         _______ _______ _______ _____ _____    ______ ____
ROOT
ATOM      1  N   UNL     1       3.966   3.249  18.715  0.00  0.00    +0.000 N 
ATOM      2  C   UNL     1       4.750   3.521  17.587  0.00  0.00    +0.000 A 
ATOM      3  O   UNL     1       5.375   2.705  16.928  0.00  0.00    +0.000 OA
ATOM      4  N   UNL     1       4.671   4.896  17.364  0.00  0.00    +0.000 N 
ATOM      5  C   UNL     1       3.726   5.447  18.252  0.00  0.00    +0.000 A 
ATOM      6  N   UNL     1       3.302   6.714  18.290  0.00  0.00    +0.000 NA
ATOM      7  C   UNL     1       2.309   6.965  19.161  0.00  0.00    +0.000 A 
ATOM      8  N   UNL     1       1.801   6.031  20.011  0.00  0.00    +0.000 NA
ATOM      9  C   UNL     1       2.285   4.761  19.951  0.00  0.00    +0.000 A 
ATOM     10  C   UNL     1       3.264   4.417  19.063  0.00  0.00    +0.000 A 
ENDROOT
BRANCH   7  11
ATOM     11  C   UNL     1       1.784   8.338  19.338  0.00  0.00    +0.000 A 
ATOM     12  C   UNL     1       1.713   9.143  18.166  0.00  0.00    +0.000 A 
ATOM     13  C   UNL     1       1.143  10.420  18.120  0.00  0.00    +0.000 A 
ATOM     14  C   UNL     1       0.626  10.954  19.286  0.00  0.00    +0.000 A 
ATOM     15  C   UNL     1       0.701  10.216  20.468  0.00  0.00    +0.000 A 
ATOM     16  C   UNL     1       1.280   8.930  20.519  0.00  0.00    +0.000 A 
BRANCH  16  17
ATOM     17  O   UNL     1       1.159   8.373  21.765  0.00  0.00    +0.000 OA
ATOM     18  C   UNL     1       0.674   9.181  22.830  0.00  0.00    +0.000 C 
ENDBRANCH  16  17
ENDBRANCH   7  11
BRANCH   9  19
ATOM     19  C   UNL     1       1.673   3.830  20.954  0.00  0.00    +0.000 C 
ATOM     20  N   UNL     1       0.526   3.181  20.574  0.00  0.00    +0.000 N 
ATOM     21  O   UNL     1       2.119   3.642  22.077  0.00  0.00    +0.000 OA
ATOM     22  H   UNL     1       0.068   3.364  19.692  0.00  0.00    +0.000 HD
ATOM     23  H   UNL     1       0.095   2.552  21.241  0.00  0.00    +0.000 HD
ENDBRANCH   9  19
BRANCH   1  24
ATOM     24  C   UNL     1       3.735   1.899  19.154  0.00  0.00    +0.000 C 
BRANCH  24  25
ATOM     25  C   UNL     1       4.684   1.567  20.293  0.00  0.00    +0.000 C 
ATOM     26  O   UNL     1       4.831   2.249  21.304  0.00  0.00    +0.000 OA
BRANCH  25  27
ATOM     27  O   UNL     1       5.358   0.421  20.013  0.00  0.00    +0.000 OA
BRANCH  27  29
ATOM     28  C   UNL     1       6.348  -1.616  20.840  0.00  0.00    +0.000 C 
ATOM     29  C   UNL     1       5.982  -0.174  21.153  0.00  0.00    +0.000 C 
ENDBRANCH  27  29
ENDBRANCH  25  27
ENDBRANCH  24  25
ENDBRANCH   1  24
BRANCH   4  30
ATOM     30  C   UNL     1       5.387   5.578  16.311  0.00  0.00    +0.000 C 
BRANCH  30  31
ATOM     31  C   UNL     1       6.822   6.021  16.670  0.00  0.00    +0.000 C 
ATOM     32  C   UNL     1       7.373   5.589  18.025  0.00  0.00    +0.000 C 
ATOM     33  C   UNL     1       8.122   6.794  18.538  0.00  0.00    +0.000 C 
ATOM     34  C   UNL     1       7.579   7.956  17.742  0.00  0.00    +0.000 C 
ATOM     35  O   UNL     1       6.934   7.446  16.579  0.00  0.00    +0.000 OA
ENDBRANCH  30  31
ENDBRANCH   4  30
TORSDOF 9
ENDMDL
MODEL 9
REMARK VINA RESULT:      -6.9      1.746      6.907
REMARK  Name = 
REMARK  11 active torsions:
REMARK  status: ('A' for Active; 'I' for Inactive)
REMARK    1  A    between atoms: C_1  and  C_2
REMARK    2  A    between atoms: C_2  and  O_3
REMARK    3  A    between atoms: O_3  and  C_4
REMARK    4  A    between atoms: C_4  and  C_6
REMARK    5  A    between atoms: C_6  and  N_7
REMARK    6  A    between atoms: N_10  and  C_11
REMARK    7  A    between atoms: C_11  and  C_12
REMARK    8  A    between atoms: C_19  and  C_20
REMARK    9  A    between atoms: C_25  and  O_26
REMARK   10  A    between atoms: O_26  and  C_27
REMARK   11  A    between atoms: C_29  and  C_30
REMARK                            x       y       z     vdW  Elec       q    Type
REMARK                         _______ _______ _______ _____ _____    ______ ____
ROOT
ATOM      1  N   UNL     1       2.650   5.132  20.316  0.00  0.00    +0.000 N 
ATOM      2  C   UNL     1       2.226   6.455  20.146  0.00  0.00    +0.000 A 
ATOM      3  O   UNL     1       1.587   7.117  20.949  0.00  0.00    +0.000 OA
ATOM      4  N   UNL     1       2.677   6.864  18.891  0.00  0.00    +0.000 N 
ATOM      5  C   UNL     1       3.503   5.857  18.354  0.00  0.00    +0.000 A 
ATOM      6  N   UNL     1       4.197   5.910  17.213  0.00  0.00    +0.000 NA
ATOM      7  C   UNL     1       5.001   4.859  16.977  0.00  0.00    +0.000 A 
ATOM      8  N   UNL     1       5.069   3.768  17.787  0.00  0.00    +0.000 NA
ATOM      9  C   UNL     1       4.323   3.752  18.924  0.00  0.00    +0.000 A 
ATOM     10  C   UNL     1       3.514   4.801  19.256  0.00  0.00    +0.000 A 
ENDROOT
BRANCH   7  11
ATOM     11  C   UNL     1       5.785   4.770  15.723  0.00  0.00    +0.000 A 
ATOM     12  C   UNL     1       5.184   4.049  14.652  0.00  0.00    +0.000 A 
ATOM     13  C   UNL     1       5.724   3.955  13.365  0.00  0.00    +0.000 A 
ATOM     14  C   UNL     1       6.928   4.584  13.107  0.00  0.00    +0.000 A 
ATOM     15  C   UNL     1       7.572   5.277  14.133  0.00  0.00    +0.000 A 
ATOM     16  C   UNL     1       7.033   5.369  15.435  0.00  0.00    +0.000 A 
BRANCH  16  17
ATOM     17  O   UNL     1       7.799   6.169  16.241  0.00  0.00    +0.000 OA
ATOM     18  C   UNL     1       7.163   7.213  16.969  0.00  0.00    +0.000 C 
ENDBRANCH  16  17
ENDBRANCH   7  11
BRANCH   9  19
ATOM     19  C   UNL     1       4.457   2.487  19.719  0.00  0.00    +0.000 C 
ATOM     20  N   UNL     1       4.020   1.333  19.121  0.00  0.00    +0.000 N 
ATOM     21  O   UNL     1       4.902   2.437  20.857  0.00  0.00    +0.000 OA
ATOM     22  H   UNL     1       3.567   1.329  18.219  0.00  0.00    +0.000 HD
ATOM     23  H   UNL     1       4.098   0.470  19.645  0.00  0.00    +0.000 HD
ENDBRANCH   9  19
BRANCH   1  24
ATOM     24  C   UNL     1       2.449   4.438  21.560  0.00  0.00    +0.000 C 
BRANCH  24  25
ATOM     25  C   UNL     1       1.505   3.269  21.342  0.00  0.00    +0.000 C 
ATOM     26  O   UNL     1       1.517   2.227  21.993  0.00  0.00    +0.000 OA
BRANCH  25  27
ATOM     27  O   UNL     1       0.667   3.538  20.306  0.00  0.00    +0.000 OA
BRANCH  27  29
ATOM     28  C   UNL     1       1.002   3.062  17.967  0.00  0.00    +0.000 C 
ATOM     29  C   UNL     1       0.612   2.501  19.325  0.00  0.00    +0.000 C 
ENDBRANCH  27  29
ENDBRANCH  25  27
ENDBRANCH  24  25
ENDBRANCH   1  24
BRANCH   4  30
ATOM     30  C   UNL     1       2.397   8.164  18.326  0.00  0.00    +0.000 C 
BRANCH  30  31
ATOM     31  C   UNL     1       1.145   8.872  18.888  0.00  0.00    +0.000 C 
ATOM     32  C   UNL     1       0.129   9.407  17.884  0.00  0.00    +0.000 C 
ATOM     33  C   UNL     1      -0.297  10.742  18.442  0.00  0.00    +0.000 C 
ATOM     34  C   UNL     1       0.794  11.123  19.414  0.00  0.00    +0.000 C 
ATOM     35  O   UNL     1       1.534   9.952  19.745  0.00  0.00    +0.000 OA
ENDBRANCH  30  31
ENDBRANCH   4  30
TORSDOF 9
ENDMDL
