MODEL 1
REMARK VINA RESULT:      -8.1      0.000      0.000
REMARK  Name = 
REMARK  4 active torsions:
REMARK  status: ('A' for Active; 'I' for Inactive)
REMARK    1  A    between atoms: C_2  and  C_11
REMARK    2  A    between atoms: N_3  and  C_4
REMARK    3  A    between atoms: N_13  and  C_14
REMARK    4  A    between atoms: C_14  and  C_15
REMARK                            x       y       z     vdW  Elec       q    Type
REMARK                         _______ _______ _______ _____ _____    ______ ____
ROOT
ATOM      1  C   UNL     1       2.371   6.623  19.225  0.00  0.00    +0.000 A 
ATOM      2  N   UNL     1       3.285   7.031  18.388  0.00  0.00    +0.000 NA
ATOM      3  N   UNL     1       3.912   6.106  17.574  0.00  0.00    +0.000 N 
ATOM      4  C   UNL     1       3.687   4.732  17.628  0.00  0.00    +0.000 A 
ATOM      5  O   UNL     1       4.232   3.910  16.899  0.00  0.00    +0.000 OA
ATOM      6  C   UNL     1       2.701   4.270  18.629  0.00  0.00    +0.000 A 
ATOM      7  C   UNL     1       2.494   2.895  18.818  0.00  0.00    +0.000 A 
ATOM      8  C   UNL     1       1.548   2.449  19.738  0.00  0.00    +0.000 A 
ATOM      9  C   UNL     1       0.773   3.376  20.428  0.00  0.00    +0.000 A 
ATOM     10  C   UNL     1       0.982   4.749  20.243  0.00  0.00    +0.000 A 
ATOM     11  C   UNL     1       1.980   5.205  19.372  0.00  0.00    +0.000 A 
ENDROOT
BRANCH   1  13
ATOM     12  O   UNL     1       1.790   7.646  21.336  0.00  0.00    +0.000 OA
ATOM     13  C   UNL     1       1.763   7.726  20.115  0.00  0.00    +0.000 C 
ATOM     14  N   UNL     1       1.187   8.761  19.404  0.00  0.00    +0.000 N 
ATOM     15  H   UNL     1       1.070   8.585  18.411  0.00  0.00    +0.000 HD
BRANCH  14  16
ATOM     16  C   UNL     1       0.462   9.873  20.038  0.00  0.00    +0.000 C 
ATOM     17  C   UNL     1       1.355  11.117  20.126  0.00  0.00    +0.000 C 
ATOM     18  C   UNL     1       1.605  11.784  18.773  0.00  0.00    +0.000 C 
ATOM     19  C   UNL     1       0.611  12.900  18.471  0.00  0.00    +0.000 C 
ATOM     20  C   UNL     1      -0.837  12.453  18.283  0.00  0.00    +0.000 C 
ATOM     21  C   UNL     1      -1.423  11.562  19.383  0.00  0.00    +0.000 C 
ATOM     22  C   UNL     1      -0.898  10.120  19.354  0.00  0.00    +0.000 C 
ENDBRANCH  14  16
ENDBRANCH   1  13
BRANCH   3  23
ATOM     23  C   UNL     1       4.892   6.639  16.626  0.00  0.00    +0.000 C 
BRANCH  23  24
ATOM     24  C   UNL     1       6.201   6.999  17.295  0.00  0.00    +0.000 A 
ATOM     25  C   UNL     1       6.844   6.076  18.133  0.00  0.00    +0.000 A 
ATOM     26  C   UNL     1       8.011   6.427  18.813  0.00  0.00    +0.000 A 
ATOM     27  C   UNL     1       8.552   7.701  18.657  0.00  0.00    +0.000 A 
ATOM     28  C   UNL     1       7.935   8.620  17.809  0.00  0.00    +0.000 A 
ATOM     29  C   UNL     1       6.763   8.272  17.133  0.00  0.00    +0.000 A 
ENDBRANCH  23  24
ENDBRANCH   3  23
TORSDOF 4
ENDMDL
MODEL 2
REMARK VINA RESULT:      -7.6      3.077      8.233
REMARK  Name = 
REMARK  4 active torsions:
REMARK  status: ('A' for Active; 'I' for Inactive)
REMARK    1  A    between atoms: C_2  and  C_11
REMARK    2  A    between atoms: N_3  and  C_4
REMARK    3  A    between atoms: N_13  and  C_14
REMARK    4  A    between atoms: C_14  and  C_15
REMARK                            x       y       z     vdW  Elec       q    Type
REMARK                         _______ _______ _______ _____ _____    ______ ____
ROOT
ATOM      1  C   UNL     1       0.936   9.596  19.470  0.00  0.00    +0.000 A 
ATOM      2  N   UNL     1       0.371  10.349  18.566  0.00  0.00    +0.000 NA
ATOM      3  N   UNL     1      -0.537  11.313  18.967  0.00  0.00    +0.000 N 
ATOM      4  C   UNL     1      -0.954  11.500  20.283  0.00  0.00    +0.000 A 
ATOM      5  O   UNL     1      -1.749  12.362  20.643  0.00  0.00    +0.000 OA
ATOM      6  C   UNL     1      -0.362  10.596  21.291  0.00  0.00    +0.000 A 
ATOM      7  C   UNL     1      -0.807  10.650  22.621  0.00  0.00    +0.000 A 
ATOM      8  C   UNL     1      -0.236   9.822  23.586  0.00  0.00    +0.000 A 
ATOM      9  C   UNL     1       0.814   8.980  23.231  0.00  0.00    +0.000 A 
ATOM     10  C   UNL     1       1.256   8.922  21.903  0.00  0.00    +0.000 A 
ATOM     11  C   UNL     1       0.639   9.700  20.915  0.00  0.00    +0.000 A 
ENDROOT
BRANCH   1  13
ATOM     12  O   UNL     1       2.640   8.766  17.971  0.00  0.00    +0.000 OA
ATOM     13  C   UNL     1       1.900   8.527  18.916  0.00  0.00    +0.000 C 
ATOM     14  N   UNL     1       1.818   7.312  19.568  0.00  0.00    +0.000 N 
ATOM     15  H   UNL     1       1.024   7.214  20.192  0.00  0.00    +0.000 HD
BRANCH  14  16
ATOM     16  C   UNL     1       2.570   6.118  19.152  0.00  0.00    +0.000 C 
ATOM     17  C   UNL     1       2.743   5.153  20.332  0.00  0.00    +0.000 C 
ATOM     18  C   UNL     1       1.448   4.446  20.735  0.00  0.00    +0.000 C 
ATOM     19  C   UNL     1       1.277   3.092  20.053  0.00  0.00    +0.000 C 
ATOM     20  C   UNL     1       1.092   3.141  18.538  0.00  0.00    +0.000 C 
ATOM     21  C   UNL     1       2.124   3.955  17.753  0.00  0.00    +0.000 C 
ATOM     22  C   UNL     1       1.951   5.473  17.895  0.00  0.00    +0.000 C 
ENDBRANCH  14  16
ENDBRANCH   1  13
BRANCH   3  23
ATOM     23  C   UNL     1      -1.097  12.152  17.906  0.00  0.00    +0.000 C 
BRANCH  23  24
ATOM     24  C   UNL     1      -2.314  11.527  17.261  0.00  0.00    +0.000 A 
ATOM     25  C   UNL     1      -2.187  10.803  16.066  0.00  0.00    +0.000 A 
ATOM     26  C   UNL     1      -3.315  10.287  15.425  0.00  0.00    +0.000 A 
ATOM     27  C   UNL     1      -4.580  10.484  15.974  0.00  0.00    +0.000 A 
ATOM     28  C   UNL     1      -4.717  11.183  17.173  0.00  0.00    +0.000 A 
ATOM     29  C   UNL     1      -3.590  11.705  17.812  0.00  0.00    +0.000 A 
ENDBRANCH  23  24
ENDBRANCH   3  23
TORSDOF 4
ENDMDL
MODEL 3
REMARK VINA RESULT:      -7.3      3.039      7.750
REMARK  Name = 
REMARK  4 active torsions:
REMARK  status: ('A' for Active; 'I' for Inactive)
REMARK    1  A    between atoms: C_2  and  C_11
REMARK    2  A    between atoms: N_3  and  C_4
REMARK    3  A    between atoms: N_13  and  C_14
REMARK    4  A    between atoms: C_14  and  C_15
REMARK                            x       y       z     vdW  Elec       q    Type
REMARK                         _______ _______ _______ _____ _____    ______ ____
ROOT
ATOM      1  C   UNL     1       1.078  10.292  18.570  0.00  0.00    +0.000 A 
ATOM      2  N   UNL     1       1.737  11.208  19.225  0.00  0.00    +0.000 NA
ATOM      3  N   UNL     1       1.070  12.344  19.648  0.00  0.00    +0.000 N 
ATOM      4  C   UNL     1      -0.266  12.621  19.363  0.00  0.00    +0.000 A 
ATOM      5  O   UNL     1      -0.864  13.621  19.747  0.00  0.00    +0.000 OA
ATOM      6  C   UNL     1      -0.986  11.612  18.559  0.00  0.00    +0.000 A 
ATOM      7  C   UNL     1      -2.302  11.865  18.142  0.00  0.00    +0.000 A 
ATOM      8  C   UNL     1      -3.001  10.908  17.408  0.00  0.00    +0.000 A 
ATOM      9  C   UNL     1      -2.403   9.680  17.139  0.00  0.00    +0.000 A 
ATOM     10  C   UNL     1      -1.089   9.428  17.552  0.00  0.00    +0.000 A 
ATOM     11  C   UNL     1      -0.356  10.412  18.228  0.00  0.00    +0.000 A 
ENDROOT
BRANCH   1  13
ATOM     12  O   UNL     1       2.505   9.094  17.032  0.00  0.00    +0.000 OA
ATOM     13  C   UNL     1       1.922   9.088  18.108  0.00  0.00    +0.000 C 
ATOM     14  N   UNL     1       1.925   8.033  19.001  0.00  0.00    +0.000 N 
ATOM     15  H   UNL     1       1.239   8.102  19.746  0.00  0.00    +0.000 HD
BRANCH  14  16
ATOM     16  C   UNL     1       2.580   6.744  18.730  0.00  0.00    +0.000 C 
ATOM     17  C   UNL     1       2.969   6.053  20.043  0.00  0.00    +0.000 C 
ATOM     18  C   UNL     1       1.772   5.511  20.823  0.00  0.00    +0.000 C 
ATOM     19  C   UNL     1       1.469   4.050  20.503  0.00  0.00    +0.000 C 
ATOM     20  C   UNL     1       1.002   3.776  19.076  0.00  0.00    +0.000 C 
ATOM     21  C   UNL     1       1.870   4.352  17.953  0.00  0.00    +0.000 C 
ATOM     22  C   UNL     1       1.732   5.871  17.784  0.00  0.00    +0.000 C 
ENDBRANCH  14  16
ENDBRANCH   1  13
BRANCH   3  23
ATOM     23  C   UNL     1       1.859  13.307  20.418  0.00  0.00    +0.000 C 
BRANCH  23  24
ATOM     24  C   UNL     1       2.393  14.430  19.556  0.00  0.00    +0.000 A 
ATOM     25  C   UNL     1       1.888  15.731  19.695  0.00  0.00    +0.000 A 
ATOM     26  C   UNL     1       2.322  16.755  18.853  0.00  0.00    +0.000 A 
ATOM     27  C   UNL     1       3.271  16.493  17.868  0.00  0.00    +0.000 A 
ATOM     28  C   UNL     1       3.798  15.209  17.734  0.00  0.00    +0.000 A 
ATOM     29  C   UNL     1       3.360  14.181  18.572  0.00  0.00    +0.000 A 
ENDBRANCH  23  24
ENDBRANCH   3  23
TORSDOF 4
ENDMDL
MODEL 4
REMARK VINA RESULT:      -7.2      3.096      7.908
REMARK  Name = 
REMARK  4 active torsions:
REMARK  status: ('A' for Active; 'I' for Inactive)
REMARK    1  A    between atoms: C_2  and  C_11
REMARK    2  A    between atoms: N_3  and  C_4
REMARK    3  A    between atoms: N_13  and  C_14
REMARK    4  A    between atoms: C_14  and  C_15
REMARK                            x       y       z     vdW  Elec       q    Type
REMARK                         _______ _______ _______ _____ _____    ______ ____
ROOT
ATOM      1  C   UNL     1       0.539  10.350  18.852  0.00  0.00    +0.000 A 
ATOM      2  N   UNL     1       0.952  11.180  19.769  0.00  0.00    +0.000 NA
ATOM      3  N   UNL     1       0.095  12.170  20.215  0.00  0.00    +0.000 N 
ATOM      4  C   UNL     1      -1.180  12.396  19.700  0.00  0.00    +0.000 A 
ATOM      5  O   UNL     1      -1.947  13.264  20.102  0.00  0.00    +0.000 OA
ATOM      6  C   UNL     1      -1.613  11.495  18.611  0.00  0.00    +0.000 A 
ATOM      7  C   UNL     1      -2.840  11.722  17.968  0.00  0.00    +0.000 A 
ATOM      8  C   UNL     1      -3.272  10.863  16.959  0.00  0.00    +0.000 A 
ATOM      9  C   UNL     1      -2.503   9.750  16.632  0.00  0.00    +0.000 A 
ATOM     10  C   UNL     1      -1.276   9.525  17.270  0.00  0.00    +0.000 A 
ATOM     11  C   UNL     1      -0.803  10.423  18.235  0.00  0.00    +0.000 A 
ENDROOT
BRANCH   1  13
ATOM     12  O   UNL     1       2.214   9.458  17.356  0.00  0.00    +0.000 OA
ATOM     13  C   UNL     1       1.584   9.312  18.395  0.00  0.00    +0.000 C 
ATOM     14  N   UNL     1       1.704   8.230  19.246  0.00  0.00    +0.000 N 
ATOM     15  H   UNL     1       0.978   8.158  19.952  0.00  0.00    +0.000 HD
BRANCH  14  16
ATOM     16  C   UNL     1       2.565   7.071  18.965  0.00  0.00    +0.000 C 
ATOM     17  C   UNL     1       2.783   6.242  20.238  0.00  0.00    +0.000 C 
ATOM     18  C   UNL     1       1.540   5.469  20.679  0.00  0.00    +0.000 C 
ATOM     19  C   UNL     1       1.503   4.046  20.130  0.00  0.00    +0.000 C 
ATOM     20  C   UNL     1       1.361   3.933  18.614  0.00  0.00    +0.000 C 
ATOM     21  C   UNL     1       2.345   4.754  17.776  0.00  0.00    +0.000 C 
ATOM     22  C   UNL     1       2.041   6.259  17.765  0.00  0.00    +0.000 C 
ENDBRANCH  14  16
ENDBRANCH   1  13
BRANCH   3  23
ATOM     23  C   UNL     1       0.606  13.036  21.279  0.00  0.00    +0.000 C 
BRANCH  23  24
ATOM     24  C   UNL     1       1.497  14.136  20.746  0.00  0.00    +0.000 A 
ATOM     25  C   UNL     1       2.433  14.758  21.585  0.00  0.00    +0.000 A 
ATOM     26  C   UNL     1       3.205  15.824  21.121  0.00  0.00    +0.000 A 
ATOM     27  C   UNL     1       3.055  16.275  19.812  0.00  0.00    +0.000 A 
ATOM     28  C   UNL     1       2.144  15.651  18.960  0.00  0.00    +0.000 A 
ATOM     29  C   UNL     1       1.367  14.588  19.425  0.00  0.00    +0.000 A 
ENDBRANCH  23  24
ENDBRANCH   3  23
TORSDOF 4
ENDMDL
MODEL 5
REMARK VINA RESULT:      -7.2      3.006      7.451
REMARK  Name = 
REMARK  4 active torsions:
REMARK  status: ('A' for Active; 'I' for Inactive)
REMARK    1  A    between atoms: C_2  and  C_11
REMARK    2  A    between atoms: N_3  and  C_4
REMARK    3  A    between atoms: N_13  and  C_14
REMARK    4  A    between atoms: C_14  and  C_15
REMARK                            x       y       z     vdW  Elec       q    Type
REMARK                         _______ _______ _______ _____ _____    ______ ____
ROOT
ATOM      1  C   UNL     1       1.236   9.946  19.253  0.00  0.00    +0.000 A 
ATOM      2  N   UNL     1       1.126  11.032  18.539  0.00  0.00    +0.000 NA
ATOM      3  N   UNL     1       0.500  12.136  19.087  0.00  0.00    +0.000 N 
ATOM      4  C   UNL     1      -0.096  12.156  20.347  0.00  0.00    +0.000 A 
ATOM      5  O   UNL     1      -0.640  13.138  20.841  0.00  0.00    +0.000 OA
ATOM      6  C   UNL     1      -0.029  10.899  21.122  0.00  0.00    +0.000 A 
ATOM      7  C   UNL     1      -0.694  10.806  22.354  0.00  0.00    +0.000 A 
ATOM      8  C   UNL     1      -0.614   9.635  23.106  0.00  0.00    +0.000 A 
ATOM      9  C   UNL     1       0.173   8.581  22.652  0.00  0.00    +0.000 A 
ATOM     10  C   UNL     1       0.834   8.672  21.420  0.00  0.00    +0.000 A 
ATOM     11  C   UNL     1       0.701   9.818  20.626  0.00  0.00    +0.000 A 
ENDROOT
BRANCH   1  13
ATOM     12  O   UNL     1       2.166   8.801  17.339  0.00  0.00    +0.000 OA
ATOM     13  C   UNL     1       1.913   8.760  18.536  0.00  0.00    +0.000 C 
ATOM     14  N   UNL     1       2.169   7.681  19.360  0.00  0.00    +0.000 N 
ATOM     15  H   UNL     1       1.723   7.724  20.271  0.00  0.00    +0.000 HD
BRANCH  14  16
ATOM     16  C   UNL     1       2.718   6.405  18.877  0.00  0.00    +0.000 C 
ATOM     17  C   UNL     1       3.171   5.534  20.056  0.00  0.00    +0.000 C 
ATOM     18  C   UNL     1       2.011   4.960  20.869  0.00  0.00    +0.000 C 
ATOM     19  C   UNL     1       1.593   3.569  20.402  0.00  0.00    +0.000 C 
ATOM     20  C   UNL     1       0.993   3.501  19.000  0.00  0.00    +0.000 C 
ATOM     21  C   UNL     1       1.800   4.170  17.882  0.00  0.00    +0.000 C 
ATOM     22  C   UNL     1       1.742   5.703  17.912  0.00  0.00    +0.000 C 
ENDBRANCH  14  16
ENDBRANCH   1  13
BRANCH   3  23
ATOM     23  C   UNL     1       0.454  13.335  18.248  0.00  0.00    +0.000 C 
BRANCH  23  24
ATOM     24  C   UNL     1       1.620  14.262  18.507  0.00  0.00    +0.000 A 
ATOM     25  C   UNL     1       1.400  15.561  18.990  0.00  0.00    +0.000 A 
ATOM     26  C   UNL     1       2.464  16.446  19.159  0.00  0.00    +0.000 A 
ATOM     27  C   UNL     1       3.762  16.043  18.855  0.00  0.00    +0.000 A 
ATOM     28  C   UNL     1       3.998  14.747  18.396  0.00  0.00    +0.000 A 
ATOM     29  C   UNL     1       2.933  13.862  18.220  0.00  0.00    +0.000 A 
ENDBRANCH  23  24
ENDBRANCH   3  23
TORSDOF 4
ENDMDL
MODEL 6
REMARK VINA RESULT:      -7.2      0.798      1.369
REMARK  Name = 
REMARK  4 active torsions:
REMARK  status: ('A' for Active; 'I' for Inactive)
REMARK    1  A    between atoms: C_2  and  C_11
REMARK    2  A    between atoms: N_3  and  C_4
REMARK    3  A    between atoms: N_13  and  C_14
REMARK    4  A    between atoms: C_14  and  C_15
REMARK                            x       y       z     vdW  Elec       q    Type
REMARK                         _______ _______ _______ _____ _____    ______ ____
ROOT
ATOM      1  C   UNL     1       2.566   6.132  19.139  0.00  0.00    +0.000 A 
ATOM      2  N   UNL     1       3.550   6.441  18.340  0.00  0.00    +0.000 NA
ATOM      3  N   UNL     1       4.114   5.451  17.555  0.00  0.00    +0.000 N 
ATOM      4  C   UNL     1       3.749   4.107  17.604  0.00  0.00    +0.000 A 
ATOM      5  O   UNL     1       4.238   3.229  16.901  0.00  0.00    +0.000 OA
ATOM      6  C   UNL     1       2.682   3.754  18.564  0.00  0.00    +0.000 A 
ATOM      7  C   UNL     1       2.330   2.408  18.748  0.00  0.00    +0.000 A 
ATOM      8  C   UNL     1       1.306   2.066  19.629  0.00  0.00    +0.000 A 
ATOM      9  C   UNL     1       0.601   3.071  20.283  0.00  0.00    +0.000 A 
ATOM     10  C   UNL     1       0.954   4.415  20.103  0.00  0.00    +0.000 A 
ATOM     11  C   UNL     1       2.028   4.761  19.274  0.00  0.00    +0.000 A 
ENDROOT
BRANCH   1  13
ATOM     12  O   UNL     1       1.724   7.132  21.171  0.00  0.00    +0.000 OA
ATOM     13  C   UNL     1       2.036   7.297  19.999  0.00  0.00    +0.000 C 
ATOM     14  N   UNL     1       1.935   8.494  19.316  0.00  0.00    +0.000 N 
ATOM     15  H   UNL     1       2.041   8.422  18.309  0.00  0.00    +0.000 HD
BRANCH  14  16
ATOM     16  C   UNL     1       1.365   9.716  19.903  0.00  0.00    +0.000 C 
ATOM     17  C   UNL     1       1.282  10.830  18.851  0.00  0.00    +0.000 C 
ATOM     18  C   UNL     1       0.202  10.590  17.796  0.00  0.00    +0.000 C 
ATOM     19  C   UNL     1      -1.128  11.249  18.149  0.00  0.00    +0.000 C 
ATOM     20  C   UNL     1      -1.831  10.684  19.381  0.00  0.00    +0.000 C 
ATOM     21  C   UNL     1      -0.988  10.572  20.655  0.00  0.00    +0.000 C 
ATOM     22  C   UNL     1       0.032   9.425  20.621  0.00  0.00    +0.000 C 
ENDBRANCH  14  16
ENDBRANCH   1  13
BRANCH   3  23
ATOM     23  C   UNL     1       5.181   5.876  16.648  0.00  0.00    +0.000 C 
BRANCH  23  24
ATOM     24  C   UNL     1       6.319   6.555  17.378  0.00  0.00    +0.000 A 
ATOM     25  C   UNL     1       6.680   7.872  17.056  0.00  0.00    +0.000 A 
ATOM     26  C   UNL     1       7.775   8.479  17.672  0.00  0.00    +0.000 A 
ATOM     27  C   UNL     1       8.518   7.779  18.620  0.00  0.00    +0.000 A 
ATOM     28  C   UNL     1       8.156   6.477  18.965  0.00  0.00    +0.000 A 
ATOM     29  C   UNL     1       7.064   5.867  18.345  0.00  0.00    +0.000 A 
ENDBRANCH  23  24
ENDBRANCH   3  23
TORSDOF 4
ENDMDL
MODEL 7
REMARK VINA RESULT:      -7.1      3.157      8.231
REMARK  Name = 
REMARK  4 active torsions:
REMARK  status: ('A' for Active; 'I' for Inactive)
REMARK    1  A    between atoms: C_2  and  C_11
REMARK    2  A    between atoms: N_3  and  C_4
REMARK    3  A    between atoms: N_13  and  C_14
REMARK    4  A    between atoms: C_14  and  C_15
REMARK                            x       y       z     vdW  Elec       q    Type
REMARK                         _______ _______ _______ _____ _____    ______ ____
ROOT
ATOM      1  C   UNL     1       0.225  10.242  19.084  0.00  0.00    +0.000 A 
ATOM      2  N   UNL     1       0.480  10.926  20.165  0.00  0.00    +0.000 NA
ATOM      3  N   UNL     1      -0.474  11.806  20.644  0.00  0.00    +0.000 N 
ATOM      4  C   UNL     1      -1.685  12.073  20.009  0.00  0.00    +0.000 A 
ATOM      5  O   UNL     1      -2.538  12.842  20.438  0.00  0.00    +0.000 OA
ATOM      6  C   UNL     1      -1.936  11.346  18.747  0.00  0.00    +0.000 A 
ATOM      7  C   UNL     1      -3.084  11.636  17.994  0.00  0.00    +0.000 A 
ATOM      8  C   UNL     1      -3.345  10.937  16.817  0.00  0.00    +0.000 A 
ATOM      9  C   UNL     1      -2.487   9.914  16.423  0.00  0.00    +0.000 A 
ATOM     10  C   UNL     1      -1.338   9.626  17.172  0.00  0.00    +0.000 A 
ATOM     11  C   UNL     1      -1.033  10.372  18.317  0.00  0.00    +0.000 A 
ENDROOT
BRANCH   1  13
ATOM     12  O   UNL     1       2.035   9.592  17.620  0.00  0.00    +0.000 OA
ATOM     13  C   UNL     1       1.369   9.322  18.611  0.00  0.00    +0.000 C 
ATOM     14  N   UNL     1       1.532   8.191  19.387  0.00  0.00    +0.000 N 
ATOM     15  H   UNL     1       0.781   8.012  20.046  0.00  0.00    +0.000 HD
BRANCH  14  16
ATOM     16  C   UNL     1       2.494   7.124  19.071  0.00  0.00    +0.000 C 
ATOM     17  C   UNL     1       2.725   6.228  20.295  0.00  0.00    +0.000 C 
ATOM     18  C   UNL     1       1.531   5.332  20.626  0.00  0.00    +0.000 C 
ATOM     19  C   UNL     1       1.630   3.952  19.983  0.00  0.00    +0.000 C 
ATOM     20  C   UNL     1       1.560   3.934  18.458  0.00  0.00    +0.000 C 
ATOM     21  C   UNL     1       2.509   4.885  17.722  0.00  0.00    +0.000 C 
ATOM     22  C   UNL     1       2.086   6.358  17.797  0.00  0.00    +0.000 C 
ENDBRANCH  14  16
ENDBRANCH   1  13
BRANCH   3  23
ATOM     23  C   UNL     1      -0.141  12.505  21.886  0.00  0.00    +0.000 C 
BRANCH  23  24
ATOM     24  C   UNL     1       0.455  13.872  21.634  0.00  0.00    +0.000 A 
ATOM     25  C   UNL     1       1.712  13.994  21.023  0.00  0.00    +0.000 A 
ATOM     26  C   UNL     1       2.302  15.248  20.855  0.00  0.00    +0.000 A 
ATOM     27  C   UNL     1       1.639  16.394  21.289  0.00  0.00    +0.000 A 
ATOM     28  C   UNL     1       0.379  16.288  21.877  0.00  0.00    +0.000 A 
ATOM     29  C   UNL     1      -0.209  15.033  22.052  0.00  0.00    +0.000 A 
ENDBRANCH  23  24
ENDBRANCH   3  23
TORSDOF 4
ENDMDL
MODEL 8
REMARK VINA RESULT:      -7.0      3.151      8.755
REMARK  Name = 
REMARK  4 active torsions:
REMARK  status: ('A' for Active; 'I' for Inactive)
REMARK    1  A    between atoms: C_2  and  C_11
REMARK    2  A    between atoms: N_3  and  C_4
REMARK    3  A    between atoms: N_13  and  C_14
REMARK    4  A    between atoms: C_14  and  C_15
REMARK                            x       y       z     vdW  Elec       q    Type
REMARK                         _______ _______ _______ _____ _____    ______ ____
ROOT
ATOM      1  C   UNL     1       0.327  10.314  18.991  0.00  0.00    +0.000 A 
ATOM      2  N   UNL     1       0.581  11.092  20.007  0.00  0.00    +0.000 NA
ATOM      3  N   UNL     1      -0.365  12.025  20.392  0.00  0.00    +0.000 N 
ATOM      4  C   UNL     1      -1.565  12.249  19.721  0.00  0.00    +0.000 A 
ATOM      5  O   UNL     1      -2.411  13.067  20.067  0.00  0.00    +0.000 OA
ATOM      6  C   UNL     1      -1.813  11.412  18.528  0.00  0.00    +0.000 A 
ATOM      7  C   UNL     1      -2.949  11.647  17.737  0.00  0.00    +0.000 A 
ATOM      8  C   UNL     1      -3.207  10.846  16.627  0.00  0.00    +0.000 A 
ATOM      9  C   UNL     1      -2.361   9.780  16.340  0.00  0.00    +0.000 A 
ATOM     10  C   UNL     1      -1.224   9.546  17.126  0.00  0.00    +0.000 A 
ATOM     11  C   UNL     1      -0.920  10.391  18.201  0.00  0.00    +0.000 A 
ENDROOT
BRANCH   1  13
ATOM     12  O   UNL     1       2.196   9.552  17.662  0.00  0.00    +0.000 OA
ATOM     13  C   UNL     1       1.462   9.339  18.618  0.00  0.00    +0.000 C 
ATOM     14  N   UNL     1       1.537   8.230  19.439  0.00  0.00    +0.000 N 
ATOM     15  H   UNL     1       0.741   8.100  20.056  0.00  0.00    +0.000 HD
BRANCH  14  16
ATOM     16  C   UNL     1       2.475   7.119  19.217  0.00  0.00    +0.000 C 
ATOM     17  C   UNL     1       2.507   6.190  20.437  0.00  0.00    +0.000 C 
ATOM     18  C   UNL     1       1.238   5.353  20.597  0.00  0.00    +0.000 C 
ATOM     19  C   UNL     1       1.347   3.982  19.937  0.00  0.00    +0.000 C 
ATOM     20  C   UNL     1       1.464   3.996  18.415  0.00  0.00    +0.000 C 
ATOM     21  C   UNL     1       2.544   4.908  17.825  0.00  0.00    +0.000 C 
ATOM     22  C   UNL     1       2.189   6.400  17.883  0.00  0.00    +0.000 C 
ENDBRANCH  14  16
ENDBRANCH   1  13
BRANCH   3  23
ATOM     23  C   UNL     1      -0.035  12.832  21.568  0.00  0.00    +0.000 C 
BRANCH  23  24
ATOM     24  C   UNL     1      -1.193  12.938  22.534  0.00  0.00    +0.000 A 
ATOM     25  C   UNL     1      -1.873  11.785  22.955  0.00  0.00    +0.000 A 
ATOM     26  C   UNL     1      -2.990  11.882  23.786  0.00  0.00    +0.000 A 
ATOM     27  C   UNL     1      -3.436  13.131  24.212  0.00  0.00    +0.000 A 
ATOM     28  C   UNL     1      -2.756  14.283  23.819  0.00  0.00    +0.000 A 
ATOM     29  C   UNL     1      -1.642  14.188  22.983  0.00  0.00    +0.000 A 
ENDBRANCH  23  24
ENDBRANCH   3  23
TORSDOF 4
ENDMDL
MODEL 9
REMARK VINA RESULT:      -6.9      3.759      9.154
REMARK  Name = 
REMARK  4 active torsions:
REMARK  status: ('A' for Active; 'I' for Inactive)
REMARK    1  A    between atoms: C_2  and  C_11
REMARK    2  A    between atoms: N_3  and  C_4
REMARK    3  A    between atoms: N_13  and  C_14
REMARK    4  A    between atoms: C_14  and  C_15
REMARK                            x       y       z     vdW  Elec       q    Type
REMARK                         _______ _______ _______ _____ _____    ______ ____
ROOT
ATOM      1  C   UNL     1      -1.580  11.311  19.050  0.00  0.00    +0.000 A 
ATOM      2  N   UNL     1      -2.062  11.940  20.088  0.00  0.00    +0.000 NA
ATOM      3  N   UNL     1      -3.401  12.284  20.103  0.00  0.00    +0.000 N 
ATOM      4  C   UNL     1      -4.280  12.066  19.044  0.00  0.00    +0.000 A 
ATOM      5  O   UNL     1      -5.471  12.358  19.060  0.00  0.00    +0.000 OA
ATOM      6  C   UNL     1      -3.710  11.418  17.845  0.00  0.00    +0.000 A 
ATOM      7  C   UNL     1      -4.502  11.258  16.697  0.00  0.00    +0.000 A 
ATOM      8  C   UNL     1      -3.984  10.624  15.570  0.00  0.00    +0.000 A 
ATOM      9  C   UNL     1      -2.695  10.102  15.610  0.00  0.00    +0.000 A 
ATOM     10  C   UNL     1      -1.901  10.264  16.753  0.00  0.00    +0.000 A 
ATOM     11  C   UNL     1      -2.391  10.963  17.864  0.00  0.00    +0.000 A 
ENDROOT
BRANCH   1  13
ATOM     12  O   UNL     1       0.763  11.891  18.932  0.00  0.00    +0.000 OA
ATOM     13  C   UNL     1      -0.069  11.011  19.114  0.00  0.00    +0.000 C 
ATOM     14  N   UNL     1       0.226   9.685  19.367  0.00  0.00    +0.000 N 
ATOM     15  H   UNL     1      -0.563   9.050  19.296  0.00  0.00    +0.000 HD
BRANCH  14  16
ATOM     16  C   UNL     1       1.595   9.148  19.376  0.00  0.00    +0.000 C 
ATOM     17  C   UNL     1       1.850   8.346  20.659  0.00  0.00    +0.000 C 
ATOM     18  C   UNL     1       1.108   7.010  20.698  0.00  0.00    +0.000 C 
ATOM     19  C   UNL     1       1.950   5.851  20.175  0.00  0.00    +0.000 C 
ATOM     20  C   UNL     1       2.302   5.915  18.690  0.00  0.00    +0.000 C 
ATOM     21  C   UNL     1       2.916   7.227  18.193  0.00  0.00    +0.000 C 
ATOM     22  C   UNL     1       1.905   8.376  18.078  0.00  0.00    +0.000 C 
ENDBRANCH  14  16
ENDBRANCH   1  13
BRANCH   3  23
ATOM     23  C   UNL     1      -3.884  12.944  21.318  0.00  0.00    +0.000 C 
BRANCH  23  24
ATOM     24  C   UNL     1      -2.838  13.844  21.936  0.00  0.00    +0.000 A 
ATOM     25  C   UNL     1      -2.424  15.008  21.271  0.00  0.00    +0.000 A 
ATOM     26  C   UNL     1      -1.407  15.804  21.799  0.00  0.00    +0.000 A 
ATOM     27  C   UNL     1      -0.796  15.450  22.999  0.00  0.00    +0.000 A 
ATOM     28  C   UNL     1      -1.213  14.307  23.681  0.00  0.00    +0.000 A 
ATOM     29  C   UNL     1      -2.227  13.506  23.152  0.00  0.00    +0.000 A 
ENDBRANCH  23  24
ENDBRANCH   3  23
TORSDOF 4
ENDMDL
