MODEL 1
REMARK VINA RESULT:      -7.9      0.000      0.000
REMARK  Name = 
REMARK  6 active torsions:
REMARK  status: ('A' for Active; 'I' for Inactive)
REMARK    1  A    between atoms: C_1  and  C_2
REMARK    2  A    between atoms: C_3  and  C_4
REMARK    3  A    between atoms: C_4  and  S_5
REMARK    4  A    between atoms: S_5  and  C_6
REMARK    5  A    between atoms: C_11  and  N_12
REMARK    6  A    between atoms: C_13  and  C_15
REMARK                            x       y       z     vdW  Elec       q    Type
REMARK                         _______ _______ _______ _____ _____    ______ ____
ROOT
ATOM      1  C   UNL     1       4.158   3.131  17.621  0.00  0.00    +0.000 C 
ATOM      2  C   UNL     1       3.865   4.537  18.086  0.00  0.00    +0.000 A 
ATOM      3  C   UNL     1       3.288   4.761  19.373  0.00  0.00    +0.000 A 
ATOM      4  C   UNL     1       2.876   6.060  19.723  0.00  0.00    +0.000 A 
ATOM      5  C   UNL     1       3.078   7.129  18.865  0.00  0.00    +0.000 A 
ATOM      6  C   UNL     1       3.713   6.923  17.647  0.00  0.00    +0.000 A 
ATOM      7  C   UNL     1       4.116   5.644  17.235  0.00  0.00    +0.000 A 
ENDROOT
BRANCH   7   8
ATOM      8  N   UNL     1       4.807   5.488  16.001  0.00  0.00    +0.000 N 
ATOM      9  C   UNL     1       6.160   5.198  15.867  0.00  0.00    +0.000 C 
ATOM     10  O   UNL     1       6.991   5.245  16.772  0.00  0.00    +0.000 OA
ATOM     11  H   UNL     1       4.296   5.597  15.129  0.00  0.00    +0.000 HD
BRANCH   9  12
ATOM     12  C   UNL     1       6.629   4.813  14.496  0.00  0.00    +0.000 A 
ATOM     13  C   UNL     1       5.921   3.825  13.821  0.00  0.00    +0.000 A 
ATOM     14  C   UNL     1       6.286   3.547  12.515  0.00  0.00    +0.000 A 
ATOM     15 CL   UNL     1       5.421   2.358  11.622  0.00  0.00    +0.000 Cl
ATOM     16  C   UNL     1       7.331   4.239  11.918  0.00  0.00    +0.000 A 
ATOM     17  C   UNL     1       7.987   5.193  12.680  0.00  0.00    +0.000 A 
ATOM     18  N   UNL     1       7.670   5.501  13.961  0.00  0.00    +0.000 NA
ENDBRANCH   9  12
ENDBRANCH   7   8
BRANCH   3  19
ATOM     19  C   UNL     1       3.031   3.678  20.404  0.00  0.00    +0.000 C 
BRANCH  19  20
ATOM     20  S   UNL     1       1.292   3.474  20.901  0.00  0.00    +0.000 S 
ATOM     21  C   UNL     1       0.699   2.579  19.448  0.00  0.00    +0.000 C 
ATOM     22  O   UNL     1       1.264   2.468  22.110  0.00  0.00    +0.000 OA
ENDBRANCH  19  20
ENDBRANCH   3  19
TORSDOF 4
ENDMDL
MODEL 2
REMARK VINA RESULT:      -7.6      0.868      1.130
REMARK  Name = 
REMARK  6 active torsions:
REMARK  status: ('A' for Active; 'I' for Inactive)
REMARK    1  A    between atoms: C_1  and  C_2
REMARK    2  A    between atoms: C_3  and  C_4
REMARK    3  A    between atoms: C_4  and  S_5
REMARK    4  A    between atoms: S_5  and  C_6
REMARK    5  A    between atoms: C_11  and  N_12
REMARK    6  A    between atoms: C_13  and  C_15
REMARK                            x       y       z     vdW  Elec       q    Type
REMARK                         _______ _______ _______ _____ _____    ______ ____
ROOT
ATOM      1  C   UNL     1       2.808   3.187  17.006  0.00  0.00    +0.000 C 
ATOM      2  C   UNL     1       2.927   4.420  17.869  0.00  0.00    +0.000 A 
ATOM      3  C   UNL     1       2.214   4.504  19.103  0.00  0.00    +0.000 A 
ATOM      4  C   UNL     1       2.212   5.719  19.813  0.00  0.00    +0.000 A 
ATOM      5  C   UNL     1       2.939   6.809  19.365  0.00  0.00    +0.000 A 
ATOM      6  C   UNL     1       3.698   6.701  18.207  0.00  0.00    +0.000 A 
ATOM      7  C   UNL     1       3.712   5.524  17.444  0.00  0.00    +0.000 A 
ENDROOT
BRANCH   7   8
ATOM      8  N   UNL     1       4.542   5.441  16.293  0.00  0.00    +0.000 N 
ATOM      9  C   UNL     1       5.815   4.881  16.255  0.00  0.00    +0.000 C 
ATOM     10  O   UNL     1       6.486   4.574  17.239  0.00  0.00    +0.000 OA
ATOM     11  H   UNL     1       4.207   5.820  15.411  0.00  0.00    +0.000 HD
BRANCH   9  12
ATOM     12  C   UNL     1       6.407   4.656  14.897  0.00  0.00    +0.000 A 
ATOM     13  C   UNL     1       5.773   3.749  14.054  0.00  0.00    +0.000 A 
ATOM     14  C   UNL     1       6.255   3.621  12.763  0.00  0.00    +0.000 A 
ATOM     15 CL   UNL     1       5.488   2.538  11.669  0.00  0.00    +0.000 Cl
ATOM     16  C   UNL     1       7.339   4.380  12.342  0.00  0.00    +0.000 A 
ATOM     17  C   UNL     1       7.913   5.243  13.263  0.00  0.00    +0.000 A 
ATOM     18  N   UNL     1       7.481   5.403  14.536  0.00  0.00    +0.000 NA
ENDBRANCH   9  12
ENDBRANCH   7   8
BRANCH   3  19
ATOM     19  C   UNL     1       1.395   3.377  19.705  0.00  0.00    +0.000 C 
BRANCH  19  20
ATOM     20  S   UNL     1       2.215   2.447  21.038  0.00  0.00    +0.000 S 
ATOM     21  C   UNL     1       3.899   2.466  20.384  0.00  0.00    +0.000 C 
ATOM     22  O   UNL     1       2.205   3.358  22.321  0.00  0.00    +0.000 OA
ENDBRANCH  19  20
ENDBRANCH   3  19
TORSDOF 4
ENDMDL
MODEL 3
REMARK VINA RESULT:      -7.1      1.082      1.089
REMARK  Name = 
REMARK  6 active torsions:
REMARK  status: ('A' for Active; 'I' for Inactive)
REMARK    1  A    between atoms: C_1  and  C_2
REMARK    2  A    between atoms: C_3  and  C_4
REMARK    3  A    between atoms: C_4  and  S_5
REMARK    4  A    between atoms: S_5  and  C_6
REMARK    5  A    between atoms: C_11  and  N_12
REMARK    6  A    between atoms: C_13  and  C_15
REMARK                            x       y       z     vdW  Elec       q    Type
REMARK                         _______ _______ _______ _____ _____    ______ ____
ROOT
ATOM      1  C   UNL     1       3.201   3.560  17.094  0.00  0.00    +0.000 C 
ATOM      2  C   UNL     1       3.212   4.935  17.718  0.00  0.00    +0.000 A 
ATOM      3  C   UNL     1       2.498   5.178  18.931  0.00  0.00    +0.000 A 
ATOM      4  C   UNL     1       2.389   6.496  19.411  0.00  0.00    +0.000 A 
ATOM      5  C   UNL     1       3.014   7.547  18.759  0.00  0.00    +0.000 A 
ATOM      6  C   UNL     1       3.776   7.297  17.625  0.00  0.00    +0.000 A 
ATOM      7  C   UNL     1       3.893   6.008  17.086  0.00  0.00    +0.000 A 
ENDROOT
BRANCH   7   8
ATOM      8  N   UNL     1       4.723   5.791  15.952  0.00  0.00    +0.000 N 
ATOM      9  C   UNL     1       5.956   5.147  15.967  0.00  0.00    +0.000 C 
ATOM     10  O   UNL     1       6.598   4.864  16.977  0.00  0.00    +0.000 OA
ATOM     11  H   UNL     1       4.420   6.130  15.043  0.00  0.00    +0.000 HD
BRANCH   9  12
ATOM     12  C   UNL     1       6.540   4.790  14.634  0.00  0.00    +0.000 A 
ATOM     13  C   UNL     1       5.894   3.814  13.882  0.00  0.00    +0.000 A 
ATOM     14  C   UNL     1       6.369   3.562  12.607  0.00  0.00    +0.000 A 
ATOM     15 CL   UNL     1       5.587   2.390  11.621  0.00  0.00    +0.000 Cl
ATOM     16  C   UNL     1       7.459   4.267  12.114  0.00  0.00    +0.000 A 
ATOM     17  C   UNL     1       8.045   5.206  12.947  0.00  0.00    +0.000 A 
ATOM     18  N   UNL     1       7.620   5.489  14.202  0.00  0.00    +0.000 NA
ENDBRANCH   9  12
ENDBRANCH   7   8
BRANCH   3  19
ATOM     19  C   UNL     1       1.787   4.111  19.742  0.00  0.00    +0.000 C 
BRANCH  19  20
ATOM     20  S   UNL     1       2.766   3.374  21.088  0.00  0.00    +0.000 S 
ATOM     21  C   UNL     1       1.452   2.430  21.892  0.00  0.00    +0.000 C 
ATOM     22  O   UNL     1       3.752   2.336  20.437  0.00  0.00    +0.000 OA
ENDBRANCH  19  20
ENDBRANCH   3  19
TORSDOF 4
ENDMDL
MODEL 4
REMARK VINA RESULT:      -6.6      4.841      7.955
REMARK  Name = 
REMARK  6 active torsions:
REMARK  status: ('A' for Active; 'I' for Inactive)
REMARK    1  A    between atoms: C_1  and  C_2
REMARK    2  A    between atoms: C_3  and  C_4
REMARK    3  A    between atoms: C_4  and  S_5
REMARK    4  A    between atoms: S_5  and  C_6
REMARK    5  A    between atoms: C_11  and  N_12
REMARK    6  A    between atoms: C_13  and  C_15
REMARK                            x       y       z     vdW  Elec       q    Type
REMARK                         _______ _______ _______ _____ _____    ______ ____
ROOT
ATOM      1  C   UNL     1       5.183   7.019  17.982  0.00  0.00    +0.000 C 
ATOM      2  C   UNL     1       4.211   5.872  17.849  0.00  0.00    +0.000 A 
ATOM      3  C   UNL     1       4.622   4.649  17.237  0.00  0.00    +0.000 A 
ATOM      4  C   UNL     1       3.662   3.654  16.979  0.00  0.00    +0.000 A 
ATOM      5  C   UNL     1       2.342   3.819  17.365  0.00  0.00    +0.000 A 
ATOM      6  C   UNL     1       1.959   4.975  18.033  0.00  0.00    +0.000 A 
ATOM      7  C   UNL     1       2.869   6.011  18.288  0.00  0.00    +0.000 A 
ENDROOT
BRANCH   7   8
ATOM      8  N   UNL     1       2.444   7.155  19.019  0.00  0.00    +0.000 N 
ATOM      9  C   UNL     1       2.023   8.357  18.459  0.00  0.00    +0.000 C 
ATOM     10  O   UNL     1       2.157   8.678  17.279  0.00  0.00    +0.000 OA
ATOM     11  H   UNL     1       2.444   7.125  20.034  0.00  0.00    +0.000 HD
BRANCH   9  12
ATOM     12  C   UNL     1       1.370   9.336  19.389  0.00  0.00    +0.000 A 
ATOM     13  C   UNL     1       1.030   8.893  20.663  0.00  0.00    +0.000 A 
ATOM     14  C   UNL     1       0.528   9.822  21.557  0.00  0.00    +0.000 A 
ATOM     15 CL   UNL     1       0.123   9.336  23.156  0.00  0.00    +0.000 Cl
ATOM     16  C   UNL     1       0.372  11.148  21.174  0.00  0.00    +0.000 A 
ATOM     17  C   UNL     1       0.722  11.486  19.877  0.00  0.00    +0.000 A 
ATOM     18  N   UNL     1       1.216  10.615  18.964  0.00  0.00    +0.000 NA
ENDBRANCH   9  12
ENDBRANCH   7   8
BRANCH   3  19
ATOM     19  C   UNL     1       6.039   4.345  16.785  0.00  0.00    +0.000 C 
BRANCH  19  20
ATOM     20  S   UNL     1       6.526   5.090  15.197  0.00  0.00    +0.000 S 
ATOM     21  C   UNL     1       6.156   3.689  14.117  0.00  0.00    +0.000 C 
ATOM     22  O   UNL     1       5.481   6.218  14.867  0.00  0.00    +0.000 OA
ENDBRANCH  19  20
ENDBRANCH   3  19
TORSDOF 4
ENDMDL
MODEL 5
REMARK VINA RESULT:      -6.6      4.821      7.591
REMARK  Name = 
REMARK  6 active torsions:
REMARK  status: ('A' for Active; 'I' for Inactive)
REMARK    1  A    between atoms: C_1  and  C_2
REMARK    2  A    between atoms: C_3  and  C_4
REMARK    3  A    between atoms: C_4  and  S_5
REMARK    4  A    between atoms: S_5  and  C_6
REMARK    5  A    between atoms: C_11  and  N_12
REMARK    6  A    between atoms: C_13  and  C_15
REMARK                            x       y       z     vdW  Elec       q    Type
REMARK                         _______ _______ _______ _____ _____    ______ ____
ROOT
ATOM      1  C   UNL     1       1.452   4.928  19.172  0.00  0.00    +0.000 C 
ATOM      2  C   UNL     1       2.593   5.348  18.278  0.00  0.00    +0.000 A 
ATOM      3  C   UNL     1       3.226   4.392  17.426  0.00  0.00    +0.000 A 
ATOM      4  C   UNL     1       4.386   4.763  16.721  0.00  0.00    +0.000 A 
ATOM      5  C   UNL     1       4.884   6.054  16.795  0.00  0.00    +0.000 A 
ATOM      6  C   UNL     1       4.220   7.004  17.559  0.00  0.00    +0.000 A 
ATOM      7  C   UNL     1       3.078   6.681  18.306  0.00  0.00    +0.000 A 
ENDROOT
BRANCH   7   8
ATOM      8  N   UNL     1       2.403   7.698  19.036  0.00  0.00    +0.000 N 
ATOM      9  C   UNL     1       1.806   8.826  18.482  0.00  0.00    +0.000 C 
ATOM     10  O   UNL     1       1.955   9.214  17.324  0.00  0.00    +0.000 OA
ATOM     11  H   UNL     1       2.342   7.626  20.048  0.00  0.00    +0.000 HD
BRANCH   9  12
ATOM     12  C   UNL     1       0.925   9.630  19.389  0.00  0.00    +0.000 A 
ATOM     13  C   UNL     1       0.780   9.198  20.704  0.00  0.00    +0.000 A 
ATOM     14  C   UNL     1       0.056   9.998  21.570  0.00  0.00    +0.000 A 
ATOM     15 CL   UNL     1      -0.126   9.530  23.215  0.00  0.00    +0.000 Cl
ATOM     16  C   UNL     1      -0.504  11.187  21.122  0.00  0.00    +0.000 A 
ATOM     17  C   UNL     1      -0.319  11.521  19.789  0.00  0.00    +0.000 A 
ATOM     18  N   UNL     1       0.379  10.773  18.902  0.00  0.00    +0.000 NA
ENDBRANCH   9  12
ENDBRANCH   7   8
BRANCH   3  19
ATOM     19  C   UNL     1       2.768   2.956  17.250  0.00  0.00    +0.000 C 
BRANCH  19  20
ATOM     20  S   UNL     1       3.266   1.812  18.575  0.00  0.00    +0.000 S 
ATOM     21  C   UNL     1       4.447   2.884  19.427  0.00  0.00    +0.000 C 
ATOM     22  O   UNL     1       2.030   1.633  19.531  0.00  0.00    +0.000 OA
ENDBRANCH  19  20
ENDBRANCH   3  19
TORSDOF 4
ENDMDL
MODEL 6
REMARK VINA RESULT:      -6.5      5.145      7.845
REMARK  Name = 
REMARK  6 active torsions:
REMARK  status: ('A' for Active; 'I' for Inactive)
REMARK    1  A    between atoms: C_1  and  C_2
REMARK    2  A    between atoms: C_3  and  C_4
REMARK    3  A    between atoms: C_4  and  S_5
REMARK    4  A    between atoms: S_5  and  C_6
REMARK    5  A    between atoms: C_11  and  N_12
REMARK    6  A    between atoms: C_13  and  C_15
REMARK                            x       y       z     vdW  Elec       q    Type
REMARK                         _______ _______ _______ _____ _____    ______ ____
ROOT
ATOM      1  C   UNL     1       2.235   5.470  20.372  0.00  0.00    +0.000 C 
ATOM      2  C   UNL     1       2.964   5.840  19.103  0.00  0.00    +0.000 A 
ATOM      3  C   UNL     1       3.707   4.853  18.387  0.00  0.00    +0.000 A 
ATOM      4  C   UNL     1       4.507   5.249  17.300  0.00  0.00    +0.000 A 
ATOM      5  C   UNL     1       4.536   6.569  16.880  0.00  0.00    +0.000 A 
ATOM      6  C   UNL     1       3.751   7.515  17.526  0.00  0.00    +0.000 A 
ATOM      7  C   UNL     1       2.959   7.180  18.633  0.00  0.00    +0.000 A 
ENDROOT
BRANCH   7   8
ATOM      8  N   UNL     1       2.133   8.170  19.234  0.00  0.00    +0.000 N 
ATOM      9  C   UNL     1       1.548   9.242  18.568  0.00  0.00    +0.000 C 
ATOM     10  O   UNL     1       1.825   9.608  17.427  0.00  0.00    +0.000 OA
ATOM     11  H   UNL     1       1.943   8.121  20.231  0.00  0.00    +0.000 HD
BRANCH   9  12
ATOM     12  C   UNL     1       0.507  10.012  19.324  0.00  0.00    +0.000 A 
ATOM     13  C   UNL     1       0.369   9.753  20.684  0.00  0.00    +0.000 A 
ATOM     14  C   UNL     1      -0.514  10.539  21.404  0.00  0.00    +0.000 A 
ATOM     15 CL   UNL     1      -0.698  10.285  23.095  0.00  0.00    +0.000 Cl
ATOM     16  C   UNL     1      -1.233  11.544  20.771  0.00  0.00    +0.000 A 
ATOM     17  C   UNL     1      -1.038  11.711  19.409  0.00  0.00    +0.000 A 
ATOM     18  N   UNL     1      -0.189  10.969  18.660  0.00  0.00    +0.000 NA
ENDBRANCH   9  12
ENDBRANCH   7   8
BRANCH   3  19
ATOM     19  C   UNL     1       3.743   3.377  18.740  0.00  0.00    +0.000 C 
BRANCH  19  20
ATOM     20  S   UNL     1       2.359   2.388  18.093  0.00  0.00    +0.000 S 
ATOM     21  C   UNL     1       1.552   1.995  19.661  0.00  0.00    +0.000 C 
ATOM     22  O   UNL     1       1.405   3.368  17.314  0.00  0.00    +0.000 OA
ENDBRANCH  19  20
ENDBRANCH   3  19
TORSDOF 4
ENDMDL
MODEL 7
REMARK VINA RESULT:      -6.5      4.788      6.804
REMARK  Name = 
REMARK  6 active torsions:
REMARK  status: ('A' for Active; 'I' for Inactive)
REMARK    1  A    between atoms: C_1  and  C_2
REMARK    2  A    between atoms: C_3  and  C_4
REMARK    3  A    between atoms: C_4  and  S_5
REMARK    4  A    between atoms: S_5  and  C_6
REMARK    5  A    between atoms: C_11  and  N_12
REMARK    6  A    between atoms: C_13  and  C_15
REMARK                            x       y       z     vdW  Elec       q    Type
REMARK                         _______ _______ _______ _____ _____    ______ ____
ROOT
ATOM      1  C   UNL     1       1.487   9.370  17.958  0.00  0.00    +0.000 C 
ATOM      2  C   UNL     1       0.981   9.351  19.380  0.00  0.00    +0.000 A 
ATOM      3  C   UNL     1      -0.010  10.288  19.802  0.00  0.00    +0.000 A 
ATOM      4  C   UNL     1      -0.351  10.359  21.165  0.00  0.00    +0.000 A 
ATOM      5  C   UNL     1       0.214   9.494  22.088  0.00  0.00    +0.000 A 
ATOM      6  C   UNL     1       1.117   8.529  21.664  0.00  0.00    +0.000 A 
ATOM      7  C   UNL     1       1.516   8.434  20.322  0.00  0.00    +0.000 A 
ENDROOT
BRANCH   7   8
ATOM      8  N   UNL     1       2.406   7.399  19.925  0.00  0.00    +0.000 N 
ATOM      9  C   UNL     1       2.140   6.035  19.997  0.00  0.00    +0.000 C 
ATOM     10  O   UNL     1       1.199   5.525  20.603  0.00  0.00    +0.000 OA
ATOM     11  H   UNL     1       3.322   7.644  19.559  0.00  0.00    +0.000 HD
BRANCH   9  12
ATOM     12  C   UNL     1       3.097   5.128  19.285  0.00  0.00    +0.000 A 
ATOM     13  C   UNL     1       3.579   5.537  18.045  0.00  0.00    +0.000 A 
ATOM     14  C   UNL     1       4.545   4.753  17.438  0.00  0.00    +0.000 A 
ATOM     15 CL   UNL     1       5.200   5.229  15.920  0.00  0.00    +0.000 Cl
ATOM     16  C   UNL     1       5.002   3.599  18.059  0.00  0.00    +0.000 A 
ATOM     17  C   UNL     1       4.446   3.267  19.285  0.00  0.00    +0.000 A 
ATOM     18  N   UNL     1       3.499   3.998  19.920  0.00  0.00    +0.000 NA
ENDBRANCH   9  12
ENDBRANCH   7   8
BRANCH   3  19
ATOM     19  C   UNL     1      -0.710  11.274  18.886  0.00  0.00    +0.000 C 
BRANCH  19  20
ATOM     20  S   UNL     1      -2.231  10.659  18.098  0.00  0.00    +0.000 S 
ATOM     21  C   UNL     1      -3.411  11.787  18.873  0.00  0.00    +0.000 C 
ATOM     22  O   UNL     1      -2.158  11.039  16.574  0.00  0.00    +0.000 OA
ENDBRANCH  19  20
ENDBRANCH   3  19
TORSDOF 4
ENDMDL
MODEL 8
REMARK VINA RESULT:      -6.5      4.932      6.960
REMARK  Name = 
REMARK  6 active torsions:
REMARK  status: ('A' for Active; 'I' for Inactive)
REMARK    1  A    between atoms: C_1  and  C_2
REMARK    2  A    between atoms: C_3  and  C_4
REMARK    3  A    between atoms: C_4  and  S_5
REMARK    4  A    between atoms: S_5  and  C_6
REMARK    5  A    between atoms: C_11  and  N_12
REMARK    6  A    between atoms: C_13  and  C_15
REMARK                            x       y       z     vdW  Elec       q    Type
REMARK                         _______ _______ _______ _____ _____    ______ ____
ROOT
ATOM      1  C   UNL     1       1.045   9.501  18.096  0.00  0.00    +0.000 C 
ATOM      2  C   UNL     1       0.712   9.424  19.566  0.00  0.00    +0.000 A 
ATOM      3  C   UNL     1      -0.321  10.245  20.112  0.00  0.00    +0.000 A 
ATOM      4  C   UNL     1      -0.509  10.275  21.506  0.00  0.00    +0.000 A 
ATOM      5  C   UNL     1       0.250   9.477  22.346  0.00  0.00    +0.000 A 
ATOM      6  C   UNL     1       1.199   8.618  21.807  0.00  0.00    +0.000 A 
ATOM      7  C   UNL     1       1.448   8.570  20.428  0.00  0.00    +0.000 A 
ENDROOT
BRANCH   7   8
ATOM      8  N   UNL     1       2.395   7.640  19.916  0.00  0.00    +0.000 N 
ATOM      9  C   UNL     1       2.265   6.255  19.954  0.00  0.00    +0.000 C 
ATOM     10  O   UNL     1       1.433   5.637  20.615  0.00  0.00    +0.000 OA
ATOM     11  H   UNL     1       3.248   7.985  19.486  0.00  0.00    +0.000 HD
BRANCH   9  12
ATOM     12  C   UNL     1       3.239   5.469  19.129  0.00  0.00    +0.000 A 
ATOM     13  C   UNL     1       3.652   6.015  17.917  0.00  0.00    +0.000 A 
ATOM     14  C   UNL     1       4.632   5.343  17.207  0.00  0.00    +0.000 A 
ATOM     15 CL   UNL     1       5.203   5.990  15.720  0.00  0.00    +0.000 Cl
ATOM     16  C   UNL     1       5.170   4.163  17.703  0.00  0.00    +0.000 A 
ATOM     17  C   UNL     1       4.679   3.691  18.910  0.00  0.00    +0.000 A 
ATOM     18  N   UNL     1       3.721   4.309  19.642  0.00  0.00    +0.000 NA
ENDBRANCH   9  12
ENDBRANCH   7   8
BRANCH   3  19
ATOM     19  C   UNL     1      -1.225  11.150  19.296  0.00  0.00    +0.000 C 
BRANCH  19  20
ATOM     20  S   UNL     1      -0.610  12.845  19.046  0.00  0.00    +0.000 S 
ATOM     21  C   UNL     1      -1.609  13.682  20.298  0.00  0.00    +0.000 C 
ATOM     22  O   UNL     1       0.882  12.881  19.542  0.00  0.00    +0.000 OA
ENDBRANCH  19  20
ENDBRANCH   3  19
TORSDOF 4
ENDMDL
MODEL 9
REMARK VINA RESULT:      -6.4      3.791      5.088
REMARK  Name = 
REMARK  6 active torsions:
REMARK  status: ('A' for Active; 'I' for Inactive)
REMARK    1  A    between atoms: C_1  and  C_2
REMARK    2  A    between atoms: C_3  and  C_4
REMARK    3  A    between atoms: C_4  and  S_5
REMARK    4  A    between atoms: S_5  and  C_6
REMARK    5  A    between atoms: C_11  and  N_12
REMARK    6  A    between atoms: C_13  and  C_15
REMARK                            x       y       z     vdW  Elec       q    Type
REMARK                         _______ _______ _______ _____ _____    ______ ____
ROOT
ATOM      1  C   UNL     1       1.767   6.980  20.898  0.00  0.00    +0.000 C 
ATOM      2  C   UNL     1       1.512   8.067  19.883  0.00  0.00    +0.000 A 
ATOM      3  C   UNL     1       0.470   9.020  20.097  0.00  0.00    +0.000 A 
ATOM      4  C   UNL     1       0.145   9.924  19.069  0.00  0.00    +0.000 A 
ATOM      5  C   UNL     1       0.859   9.943  17.883  0.00  0.00    +0.000 A 
ATOM      6  C   UNL     1       1.926   9.070  17.707  0.00  0.00    +0.000 A 
ATOM      7  C   UNL     1       2.273   8.128  18.686  0.00  0.00    +0.000 A 
ENDROOT
BRANCH   7   8
ATOM      8  N   UNL     1       3.403   7.288  18.484  0.00  0.00    +0.000 N 
ATOM      9  C   UNL     1       3.366   6.003  17.953  0.00  0.00    +0.000 C 
ATOM     10  O   UNL     1       2.349   5.332  17.783  0.00  0.00    +0.000 OA
ATOM     11  H   UNL     1       4.325   7.624  18.746  0.00  0.00    +0.000 HD
BRANCH   9  12
ATOM     12  C   UNL     1       4.684   5.395  17.579  0.00  0.00    +0.000 A 
ATOM     13  C   UNL     1       4.830   4.906  16.285  0.00  0.00    +0.000 A 
ATOM     14  C   UNL     1       6.078   4.445  15.906  0.00  0.00    +0.000 A 
ATOM     15 CL   UNL     1       6.323   3.860  14.307  0.00  0.00    +0.000 Cl
ATOM     16  C   UNL     1       7.138   4.474  16.804  0.00  0.00    +0.000 A 
ATOM     17  C   UNL     1       6.887   4.964  18.076  0.00  0.00    +0.000 A 
ATOM     18  N   UNL     1       5.684   5.425  18.496  0.00  0.00    +0.000 NA
ENDBRANCH   9  12
ENDBRANCH   7   8
BRANCH   3  19
ATOM     19  C   UNL     1      -0.371   9.109  21.356  0.00  0.00    +0.000 C 
BRANCH  19  20
ATOM     20  S   UNL     1       0.167  10.359  22.565  0.00  0.00    +0.000 S 
ATOM     21  C   UNL     1      -1.415  11.197  22.810  0.00  0.00    +0.000 C 
ATOM     22  O   UNL     1       0.505   9.604  23.903  0.00  0.00    +0.000 OA
ENDBRANCH  19  20
ENDBRANCH   3  19
TORSDOF 4
ENDMDL
