MODEL 1
REMARK VINA RESULT:      -6.6      0.000      0.000
REMARK  Name = 
REMARK  4 active torsions:
REMARK  status: ('A' for Active; 'I' for Inactive)
REMARK    1  A    between atoms: C_1  and  N_2
REMARK    2  A    between atoms: N_2  and  C_3
REMARK    3  A    between atoms: N_13  and  C_14
REMARK    4  A    between atoms: C_14  and  C_15
REMARK                            x       y       z     vdW  Elec       q    Type
REMARK                         _______ _______ _______ _____ _____    ______ ____
ROOT
ATOM      1  C   UNL     1       7.804   4.482  17.451  0.00  0.00    +0.000 C 
ATOM      2  N   UNL     1       6.375   4.207  17.426  0.00  0.00    +0.000 N 
ATOM      3  C   UNL     1       5.840   3.872  16.117  0.00  0.00    +0.000 C 
ATOM      4  C   UNL     1       5.670   4.611  18.552  0.00  0.00    +0.000 C 
ATOM      5  O   UNL     1       6.278   5.214  19.448  0.00  0.00    +0.000 OA
ATOM      6  N   UNL     1       4.323   4.362  18.691  0.00  0.00    +0.000 N 
ATOM      7  C   UNL     1       3.443   3.501  17.910  0.00  0.00    +0.000 C 
ATOM      8  C   UNL     1       2.326   4.341  17.301  0.00  0.00    +0.000 C 
ATOM      9  C   UNL     1       1.547   5.050  18.410  0.00  0.00    +0.000 C 
ATOM     10  C   UNL     1       2.455   5.873  19.364  0.00  0.00    +0.000 C 
ATOM     11  C   UNL     1       1.615   6.406  20.543  0.00  0.00    +0.000 C 
ATOM     12  C   UNL     1       1.686   7.930  20.466  0.00  0.00    +0.000 C 
ATOM     13  N   UNL     1       2.120   8.264  19.106  0.00  0.00    +0.000 NA
ATOM     14  C   UNL     1       3.018   7.160  18.733  0.00  0.00    +0.000 C 
ATOM     15  C   UNL     1       3.622   4.974  19.837  0.00  0.00    +0.000 C 
ENDROOT
BRANCH  13  16
ATOM     16  C   UNL     1       0.990   8.485  18.197  0.00  0.00    +0.000 C 
BRANCH  16  17
ATOM     17  C   UNL     1       0.392   9.870  18.313  0.00  0.00    +0.000 A 
ATOM     18  C   UNL     1      -0.954  10.108  18.017  0.00  0.00    +0.000 A 
ATOM     19  C   UNL     1      -1.439  11.403  18.119  0.00  0.00    +0.000 A 
ATOM     20  N   UNL     1      -0.690  12.461  18.493  0.00  0.00    +0.000 NA
ATOM     21  C   UNL     1       0.609  12.213  18.771  0.00  0.00    +0.000 A 
ATOM     22  C   UNL     1       1.186  10.954  18.699  0.00  0.00    +0.000 A 
ENDBRANCH  16  17
ENDBRANCH  13  16
TORSDOF 2
ENDMDL
MODEL 2
REMARK VINA RESULT:      -6.6      0.104      1.007
REMARK  Name = 
REMARK  4 active torsions:
REMARK  status: ('A' for Active; 'I' for Inactive)
REMARK    1  A    between atoms: C_1  and  N_2
REMARK    2  A    between atoms: N_2  and  C_3
REMARK    3  A    between atoms: N_13  and  C_14
REMARK    4  A    between atoms: C_14  and  C_15
REMARK                            x       y       z     vdW  Elec       q    Type
REMARK                         _______ _______ _______ _____ _____    ______ ____
ROOT
ATOM      1  C   UNL     1       7.752   4.551  17.434  0.00  0.00    +0.000 C 
ATOM      2  N   UNL     1       6.325   4.270  17.433  0.00  0.00    +0.000 N 
ATOM      3  C   UNL     1       5.775   3.904  16.138  0.00  0.00    +0.000 C 
ATOM      4  C   UNL     1       5.632   4.696  18.558  0.00  0.00    +0.000 C 
ATOM      5  O   UNL     1       6.247   5.322  19.432  0.00  0.00    +0.000 OA
ATOM      6  N   UNL     1       4.287   4.445  18.719  0.00  0.00    +0.000 N 
ATOM      7  C   UNL     1       3.402   3.563  17.968  0.00  0.00    +0.000 C 
ATOM      8  C   UNL     1       2.274   4.385  17.353  0.00  0.00    +0.000 C 
ATOM      9  C   UNL     1       1.505   5.116  18.456  0.00  0.00    +0.000 C 
ATOM     10  C   UNL     1       2.422   5.963  19.380  0.00  0.00    +0.000 C 
ATOM     11  C   UNL     1       1.593   6.520  20.557  0.00  0.00    +0.000 C 
ATOM     12  C   UNL     1       1.657   8.041  20.445  0.00  0.00    +0.000 C 
ATOM     13  N   UNL     1       2.073   8.346  19.073  0.00  0.00    +0.000 NA
ATOM     14  C   UNL     1       2.971   7.238  18.713  0.00  0.00    +0.000 C 
ATOM     15  C   UNL     1       3.598   5.080  19.860  0.00  0.00    +0.000 C 
ENDROOT
BRANCH  13  16
ATOM     16  C   UNL     1       0.931   8.543  18.173  0.00  0.00    +0.000 C 
BRANCH  16  17
ATOM     17  C   UNL     1       0.329   9.928  18.265  0.00  0.00    +0.000 A 
ATOM     18  C   UNL     1       1.086  11.023  18.692  0.00  0.00    +0.000 A 
ATOM     19  C   UNL     1       0.472  12.263  18.778  0.00  0.00    +0.000 A 
ATOM     20  N   UNL     1      -0.822  12.487  18.471  0.00  0.00    +0.000 NA
ATOM     21  C   UNL     1      -1.539  11.416  18.063  0.00  0.00    +0.000 A 
ATOM     22  C   UNL     1      -1.016  10.138  17.945  0.00  0.00    +0.000 A 
ENDBRANCH  16  17
ENDBRANCH  13  16
TORSDOF 2
ENDMDL
MODEL 3
REMARK VINA RESULT:      -6.5      3.667      7.501
REMARK  Name = 
REMARK  4 active torsions:
REMARK  status: ('A' for Active; 'I' for Inactive)
REMARK    1  A    between atoms: C_1  and  N_2
REMARK    2  A    between atoms: N_2  and  C_3
REMARK    3  A    between atoms: N_13  and  C_14
REMARK    4  A    between atoms: C_14  and  C_15
REMARK                            x       y       z     vdW  Elec       q    Type
REMARK                         _______ _______ _______ _____ _____    ______ ____
ROOT
ATOM      1  C   UNL     1       1.671   2.385  21.178  0.00  0.00    +0.000 C 
ATOM      2  N   UNL     1       1.981   3.633  20.496  0.00  0.00    +0.000 N 
ATOM      3  C   UNL     1       0.844   4.285  19.869  0.00  0.00    +0.000 C 
ATOM      4  C   UNL     1       3.329   3.860  20.254  0.00  0.00    +0.000 C 
ATOM      5  O   UNL     1       4.146   2.984  20.571  0.00  0.00    +0.000 OA
ATOM      6  N   UNL     1       3.773   5.026  19.669  0.00  0.00    +0.000 N 
ATOM      7  C   UNL     1       3.065   6.274  19.412  0.00  0.00    +0.000 C 
ATOM      8  C   UNL     1       3.074   6.559  17.914  0.00  0.00    +0.000 C 
ATOM      9  C   UNL     1       4.516   6.639  17.410  0.00  0.00    +0.000 C 
ATOM     10  C   UNL     1       5.363   5.391  17.782  0.00  0.00    +0.000 C 
ATOM     11  C   UNL     1       6.836   5.632  17.391  0.00  0.00    +0.000 C 
ATOM     12  C   UNL     1       7.185   4.564  16.357  0.00  0.00    +0.000 C 
ATOM     13  N   UNL     1       5.915   4.050  15.834  0.00  0.00    +0.000 NA
ATOM     14  C   UNL     1       4.996   4.128  16.980  0.00  0.00    +0.000 C 
ATOM     15  C   UNL     1       5.198   5.112  19.295  0.00  0.00    +0.000 C 
ENDROOT
BRANCH  13  16
ATOM     16  C   UNL     1       5.476   4.765  14.631  0.00  0.00    +0.000 C 
BRANCH  16  17
ATOM     17  C   UNL     1       5.671   3.970  13.358  0.00  0.00    +0.000 A 
ATOM     18  C   UNL     1       4.583   3.433  12.664  0.00  0.00    +0.000 A 
ATOM     19  C   UNL     1       4.826   2.693  11.516  0.00  0.00    +0.000 A 
ATOM     20  N   UNL     1       6.058   2.458  11.018  0.00  0.00    +0.000 NA
ATOM     21  C   UNL     1       7.097   2.982  11.705  0.00  0.00    +0.000 A 
ATOM     22  C   UNL     1       6.956   3.734  12.861  0.00  0.00    +0.000 A 
ENDBRANCH  16  17
ENDBRANCH  13  16
TORSDOF 2
ENDMDL
MODEL 4
REMARK VINA RESULT:      -6.5      3.732      7.564
REMARK  Name = 
REMARK  4 active torsions:
REMARK  status: ('A' for Active; 'I' for Inactive)
REMARK    1  A    between atoms: C_1  and  N_2
REMARK    2  A    between atoms: N_2  and  C_3
REMARK    3  A    between atoms: N_13  and  C_14
REMARK    4  A    between atoms: C_14  and  C_15
REMARK                            x       y       z     vdW  Elec       q    Type
REMARK                         _______ _______ _______ _____ _____    ______ ____
ROOT
ATOM      1  C   UNL     1       1.788   2.209  21.057  0.00  0.00    +0.000 C 
ATOM      2  N   UNL     1       2.075   3.471  20.393  0.00  0.00    +0.000 N 
ATOM      3  C   UNL     1       0.928   4.106  19.764  0.00  0.00    +0.000 C 
ATOM      4  C   UNL     1       3.419   3.733  20.166  0.00  0.00    +0.000 C 
ATOM      5  O   UNL     1       4.253   2.871  20.479  0.00  0.00    +0.000 OA
ATOM      6  N   UNL     1       3.841   4.915  19.599  0.00  0.00    +0.000 N 
ATOM      7  C   UNL     1       3.107   6.150  19.351  0.00  0.00    +0.000 C 
ATOM      8  C   UNL     1       3.122   6.454  17.857  0.00  0.00    +0.000 C 
ATOM      9  C   UNL     1       4.567   6.572  17.366  0.00  0.00    +0.000 C 
ATOM     10  C   UNL     1       5.438   5.339  17.731  0.00  0.00    +0.000 C 
ATOM     11  C   UNL     1       6.909   5.619  17.355  0.00  0.00    +0.000 C 
ATOM     12  C   UNL     1       7.292   4.572  16.312  0.00  0.00    +0.000 C 
ATOM     13  N   UNL     1       6.038   4.036  15.772  0.00  0.00    +0.000 NA
ATOM     14  C   UNL     1       5.108   4.078  16.911  0.00  0.00    +0.000 C 
ATOM     15  C   UNL     1       5.267   5.038  19.238  0.00  0.00    +0.000 C 
ENDROOT
BRANCH  13  16
ATOM     16  C   UNL     1       5.593   4.756  14.573  0.00  0.00    +0.000 C 
BRANCH  16  17
ATOM     17  C   UNL     1       5.677   3.925  13.311  0.00  0.00    +0.000 A 
ATOM     18  C   UNL     1       6.908   3.507  12.797  0.00  0.00    +0.000 A 
ATOM     19  C   UNL     1       6.923   2.768  11.624  0.00  0.00    +0.000 A 
ATOM     20  N   UNL     1       5.814   2.418  10.940  0.00  0.00    +0.000 NA
ATOM     21  C   UNL     1       4.634   2.834  11.450  0.00  0.00    +0.000 A 
ATOM     22  C   UNL     1       4.516   3.576  12.615  0.00  0.00    +0.000 A 
ENDBRANCH  16  17
ENDBRANCH  13  16
TORSDOF 2
ENDMDL
MODEL 5
REMARK VINA RESULT:      -6.4      3.706      7.289
REMARK  Name = 
REMARK  4 active torsions:
REMARK  status: ('A' for Active; 'I' for Inactive)
REMARK    1  A    between atoms: C_1  and  N_2
REMARK    2  A    between atoms: N_2  and  C_3
REMARK    3  A    between atoms: N_13  and  C_14
REMARK    4  A    between atoms: C_14  and  C_15
REMARK                            x       y       z     vdW  Elec       q    Type
REMARK                         _______ _______ _______ _____ _____    ______ ____
ROOT
ATOM      1  C   UNL     1       0.867   2.122  18.897  0.00  0.00    +0.000 C 
ATOM      2  N   UNL     1       1.439   3.446  18.705  0.00  0.00    +0.000 N 
ATOM      3  C   UNL     1       0.751   4.274  17.728  0.00  0.00    +0.000 C 
ATOM      4  C   UNL     1       2.719   3.622  19.215  0.00  0.00    +0.000 C 
ATOM      5  O   UNL     1       3.292   2.651  19.728  0.00  0.00    +0.000 OA
ATOM      6  N   UNL     1       3.360   4.840  19.157  0.00  0.00    +0.000 N 
ATOM      7  C   UNL     1       2.839   6.158  18.818  0.00  0.00    +0.000 C 
ATOM      8  C   UNL     1       3.590   6.701  17.607  0.00  0.00    +0.000 C 
ATOM      9  C   UNL     1       5.088   6.771  17.914  0.00  0.00    +0.000 C 
ATOM     10  C   UNL     1       5.671   5.423  18.420  0.00  0.00    +0.000 C 
ATOM     11  C   UNL     1       7.133   5.630  18.868  0.00  0.00    +0.000 C 
ATOM     12  C   UNL     1       7.987   4.739  17.969  0.00  0.00    +0.000 C 
ATOM     13  N   UNL     1       7.168   4.412  16.798  0.00  0.00    +0.000 NA
ATOM     14  C   UNL     1       5.796   4.348  17.324  0.00  0.00    +0.000 C 
ATOM     15  C   UNL     1       4.777   4.894  19.567  0.00  0.00    +0.000 C 
ENDROOT
BRANCH  13  16
ATOM     16  C   UNL     1       7.371   5.355  15.693  0.00  0.00    +0.000 C 
BRANCH  16  17
ATOM     17  C   UNL     1       7.046   4.766  14.337  0.00  0.00    +0.000 A 
ATOM     18  C   UNL     1       7.787   5.106  13.201  0.00  0.00    +0.000 A 
ATOM     19  C   UNL     1       7.426   4.552  11.982  0.00  0.00    +0.000 A 
ATOM     20  N   UNL     1       6.397   3.694  11.819  0.00  0.00    +0.000 NA
ATOM     21  C   UNL     1       5.691   3.381  12.927  0.00  0.00    +0.000 A 
ATOM     22  C   UNL     1       5.973   3.881  14.189  0.00  0.00    +0.000 A 
ENDBRANCH  16  17
ENDBRANCH  13  16
TORSDOF 2
ENDMDL
MODEL 6
REMARK VINA RESULT:      -6.3      3.761      7.235
REMARK  Name = 
REMARK  4 active torsions:
REMARK  status: ('A' for Active; 'I' for Inactive)
REMARK    1  A    between atoms: C_1  and  N_2
REMARK    2  A    between atoms: N_2  and  C_3
REMARK    3  A    between atoms: N_13  and  C_14
REMARK    4  A    between atoms: C_14  and  C_15
REMARK                            x       y       z     vdW  Elec       q    Type
REMARK                         _______ _______ _______ _____ _____    ______ ____
ROOT
ATOM      1  C   UNL     1       0.894   1.831  19.046  0.00  0.00    +0.000 C 
ATOM      2  N   UNL     1       1.414   3.180  18.879  0.00  0.00    +0.000 N 
ATOM      3  C   UNL     1       0.657   4.017  17.964  0.00  0.00    +0.000 C 
ATOM      4  C   UNL     1       2.708   3.381  19.340  0.00  0.00    +0.000 C 
ATOM      5  O   UNL     1       3.335   2.413  19.792  0.00  0.00    +0.000 OA
ATOM      6  N   UNL     1       3.306   4.621  19.300  0.00  0.00    +0.000 N 
ATOM      7  C   UNL     1       2.728   5.932  19.032  0.00  0.00    +0.000 C 
ATOM      8  C   UNL     1       3.407   6.543  17.811  0.00  0.00    +0.000 C 
ATOM      9  C   UNL     1       4.913   6.654  18.056  0.00  0.00    +0.000 C 
ATOM     10  C   UNL     1       5.562   5.309  18.487  0.00  0.00    +0.000 C 
ATOM     11  C   UNL     1       7.034   5.550  18.880  0.00  0.00    +0.000 C 
ATOM     12  C   UNL     1       7.877   4.722  17.913  0.00  0.00    +0.000 C 
ATOM     13  N   UNL     1       7.019   4.408  16.766  0.00  0.00    +0.000 NA
ATOM     14  C   UNL     1       5.673   4.279  17.348  0.00  0.00    +0.000 C 
ATOM     15  C   UNL     1       4.737   4.710  19.651  0.00  0.00    +0.000 C 
ENDROOT
BRANCH  13  16
ATOM     16  C   UNL     1       7.142   5.396  15.689  0.00  0.00    +0.000 C 
BRANCH  16  17
ATOM     17  C   UNL     1       6.924   4.809  14.311  0.00  0.00    +0.000 A 
ATOM     18  C   UNL     1       5.919   3.866  14.074  0.00  0.00    +0.000 A 
ATOM     19  C   UNL     1       5.783   3.346  12.796  0.00  0.00    +0.000 A 
ATOM     20  N   UNL     1       6.563   3.698  11.752  0.00  0.00    +0.000 NA
ATOM     21  C   UNL     1       7.530   4.607  12.002  0.00  0.00    +0.000 A 
ATOM     22  C   UNL     1       7.746   5.184  13.244  0.00  0.00    +0.000 A 
ENDBRANCH  16  17
ENDBRANCH  13  16
TORSDOF 2
ENDMDL
MODEL 7
REMARK VINA RESULT:      -5.6      3.600      7.398
REMARK  Name = 
REMARK  4 active torsions:
REMARK  status: ('A' for Active; 'I' for Inactive)
REMARK    1  A    between atoms: C_1  and  N_2
REMARK    2  A    between atoms: N_2  and  C_3
REMARK    3  A    between atoms: N_13  and  C_14
REMARK    4  A    between atoms: C_14  and  C_15
REMARK                            x       y       z     vdW  Elec       q    Type
REMARK                         _______ _______ _______ _____ _____    ______ ____
ROOT
ATOM      1  C   UNL     1       1.579   2.530  21.832  0.00  0.00    +0.000 C 
ATOM      2  N   UNL     1       1.813   3.712  21.016  0.00  0.00    +0.000 N 
ATOM      3  C   UNL     1       0.626   4.265  20.386  0.00  0.00    +0.000 C 
ATOM      4  C   UNL     1       3.140   3.953  20.684  0.00  0.00    +0.000 C 
ATOM      5  O   UNL     1       4.000   3.137  21.044  0.00  0.00    +0.000 OA
ATOM      6  N   UNL     1       3.516   5.066  19.966  0.00  0.00    +0.000 N 
ATOM      7  C   UNL     1       2.754   6.261  19.623  0.00  0.00    +0.000 C 
ATOM      8  C   UNL     1       2.682   6.395  18.106  0.00  0.00    +0.000 C 
ATOM      9  C   UNL     1       4.095   6.466  17.524  0.00  0.00    +0.000 C 
ATOM     10  C   UNL     1       5.001   5.287  17.974  0.00  0.00    +0.000 C 
ATOM     11  C   UNL     1       6.444   5.530  17.487  0.00  0.00    +0.000 C 
ATOM     12  C   UNL     1       6.780   4.374  16.547  0.00  0.00    +0.000 C 
ATOM     13  N   UNL     1       5.505   3.775  16.142  0.00  0.00    +0.000 NA
ATOM     14  C   UNL     1       4.639   3.940  17.320  0.00  0.00    +0.000 C 
ATOM     15  C   UNL     1       4.918   5.155  19.513  0.00  0.00    +0.000 C 
ENDROOT
BRANCH  13  16
ATOM     16  C   UNL     1       4.985   4.352  14.898  0.00  0.00    +0.000 C 
BRANCH  16  17
ATOM     17  C   UNL     1       5.979   4.311  13.758  0.00  0.00    +0.000 A 
ATOM     18  C   UNL     1       7.068   5.186  13.711  0.00  0.00    +0.000 A 
ATOM     19  C   UNL     1       7.932   5.117  12.629  0.00  0.00    +0.000 A 
ATOM     20  N   UNL     1       7.791   4.246  11.607  0.00  0.00    +0.000 NA
ATOM     21  C   UNL     1       6.732   3.411  11.668  0.00  0.00    +0.000 A 
ATOM     22  C   UNL     1       5.814   3.403  12.707  0.00  0.00    +0.000 A 
ENDBRANCH  16  17
ENDBRANCH  13  16
TORSDOF 2
ENDMDL
MODEL 8
REMARK VINA RESULT:      -5.5      8.202     11.442
REMARK  Name = 
REMARK  4 active torsions:
REMARK  status: ('A' for Active; 'I' for Inactive)
REMARK    1  A    between atoms: C_1  and  N_2
REMARK    2  A    between atoms: N_2  and  C_3
REMARK    3  A    between atoms: N_13  and  C_14
REMARK    4  A    between atoms: C_14  and  C_15
REMARK                            x       y       z     vdW  Elec       q    Type
REMARK                         _______ _______ _______ _____ _____    ______ ____
ROOT
ATOM      1  C   UNL     1      -7.631   8.552  20.494  0.00  0.00    +0.000 C 
ATOM      2  N   UNL     1      -7.396   9.913  20.034  0.00  0.00    +0.000 N 
ATOM      3  C   UNL     1      -6.656  10.017  18.787  0.00  0.00    +0.000 C 
ATOM      4  C   UNL     1      -7.610  10.907  20.979  0.00  0.00    +0.000 C 
ATOM      5  O   UNL     1      -7.917  10.574  22.132  0.00  0.00    +0.000 OA
ATOM      6  N   UNL     1      -7.483  12.243  20.667  0.00  0.00    +0.000 N 
ATOM      7  C   UNL     1      -7.354  12.893  19.369  0.00  0.00    +0.000 C 
ATOM      8  C   UNL     1      -6.039  13.664  19.320  0.00  0.00    +0.000 C 
ATOM      9  C   UNL     1      -6.000  14.695  20.450  0.00  0.00    +0.000 C 
ATOM     10  C   UNL     1      -6.274  14.077  21.849  0.00  0.00    +0.000 C 
ATOM     11  C   UNL     1      -6.388  15.204  22.897  0.00  0.00    +0.000 C 
ATOM     12  C   UNL     1      -5.264  14.969  23.903  0.00  0.00    +0.000 C 
ATOM     13  N   UNL     1      -4.294  14.084  23.253  0.00  0.00    +0.000 NA
ATOM     14  C   UNL     1      -5.115  13.220  22.390  0.00  0.00    +0.000 C 
ATOM     15  C   UNL     1      -7.560  13.220  21.770  0.00  0.00    +0.000 C 
ENDROOT
BRANCH  13  16
ATOM     16  C   UNL     1      -3.232  14.827  22.565  0.00  0.00    +0.000 C 
BRANCH  16  17
ATOM     17  C   UNL     1      -2.184  13.932  21.939  0.00  0.00    +0.000 A 
ATOM     18  C   UNL     1      -1.940  13.953  20.563  0.00  0.00    +0.000 A 
ATOM     19  C   UNL     1      -0.985  13.092  20.044  0.00  0.00    +0.000 A 
ATOM     20  N   UNL     1      -0.263  12.229  20.789  0.00  0.00    +0.000 NA
ATOM     21  C   UNL     1      -0.515  12.222  22.116  0.00  0.00    +0.000 A 
ATOM     22  C   UNL     1      -1.450  13.042  22.729  0.00  0.00    +0.000 A 
ENDBRANCH  16  17
ENDBRANCH  13  16
TORSDOF 2
ENDMDL
MODEL 9
REMARK VINA RESULT:      -5.5      2.259      3.958
REMARK  Name = 
REMARK  4 active torsions:
REMARK  status: ('A' for Active; 'I' for Inactive)
REMARK    1  A    between atoms: C_1  and  N_2
REMARK    2  A    between atoms: N_2  and  C_3
REMARK    3  A    between atoms: N_13  and  C_14
REMARK    4  A    between atoms: C_14  and  C_15
REMARK                            x       y       z     vdW  Elec       q    Type
REMARK                         _______ _______ _______ _____ _____    ______ ____
ROOT
ATOM      1  C   UNL     1       9.125   8.675  19.069  0.00  0.00    +0.000 C 
ATOM      2  N   UNL     1       8.145   8.085  18.170  0.00  0.00    +0.000 N 
ATOM      3  C   UNL     1       7.405   9.039  17.361  0.00  0.00    +0.000 C 
ATOM      4  C   UNL     1       7.818   6.760  18.432  0.00  0.00    +0.000 C 
ATOM      5  O   UNL     1       8.323   6.208  19.419  0.00  0.00    +0.000 OA
ATOM      6  N   UNL     1       6.949   6.057  17.627  0.00  0.00    +0.000 N 
ATOM      7  C   UNL     1       6.407   6.391  16.316  0.00  0.00    +0.000 C 
ATOM      8  C   UNL     1       4.885   6.451  16.401  0.00  0.00    +0.000 C 
ATOM      9  C   UNL     1       4.340   5.107  16.888  0.00  0.00    +0.000 C 
ATOM     10  C   UNL     1       4.990   4.629  18.215  0.00  0.00    +0.000 C 
ATOM     11  C   UNL     1       4.513   3.198  18.537  0.00  0.00    +0.000 C 
ATOM     12  C   UNL     1       3.770   3.282  19.869  0.00  0.00    +0.000 C 
ATOM     13  N   UNL     1       3.426   4.693  20.071  0.00  0.00    +0.000 NA
ATOM     14  C   UNL     1       4.540   5.428  19.452  0.00  0.00    +0.000 C 
ATOM     15  C   UNL     1       6.529   4.714  18.074  0.00  0.00    +0.000 C 
ENDROOT
BRANCH  13  16
ATOM     16  C   UNL     1       2.094   5.023  19.553  0.00  0.00    +0.000 C 
BRANCH  16  17
ATOM     17  C   UNL     1       1.808   6.509  19.541  0.00  0.00    +0.000 A 
ATOM     18  C   UNL     1       1.929   7.262  18.369  0.00  0.00    +0.000 A 
ATOM     19  C   UNL     1       1.677   8.625  18.425  0.00  0.00    +0.000 A 
ATOM     20  N   UNL     1       1.315   9.279  19.549  0.00  0.00    +0.000 NA
ATOM     21  C   UNL     1       1.207   8.535  20.671  0.00  0.00    +0.000 A 
ATOM     22  C   UNL     1       1.438   7.169  20.717  0.00  0.00    +0.000 A 
ENDBRANCH  16  17
ENDBRANCH  13  16
TORSDOF 2
ENDMDL
