MODEL 1
REMARK VINA RESULT:      -7.6      0.000      0.000
REMARK  Name = 
REMARK  5 active torsions:
REMARK  status: ('A' for Active; 'I' for Inactive)
REMARK    1  A    between atoms: C_1  and  C_2
REMARK    2  A    between atoms: N_11  and  C_12
REMARK    3  A    between atoms: C_12  and  C_13
REMARK    4  A    between atoms: C_13  and  O_14
REMARK    5  A    between atoms: C_13  and  C_15
REMARK                            x       y       z     vdW  Elec       q    Type
REMARK                         _______ _______ _______ _____ _____    ______ ____
ROOT
ATOM      1  C   UNL     1       2.965   6.375  18.639  0.00  0.00    +0.000 C 
ATOM      2  C   UNL     1       4.167   6.181  17.750  0.00  0.00    +0.000 A 
ATOM      3  C   UNL     1       5.140   7.116  17.782  0.00  0.00    +0.000 A 
ATOM      4  C   UNL     1       6.362   6.975  16.950  0.00  0.00    +0.000 A 
ATOM      5  O   UNL     1       7.277   7.786  16.945  0.00  0.00    +0.000 OA
ATOM      6  N   UNL     1       6.380   5.816  16.183  0.00  0.00    +0.000 N 
ATOM      7  N   UNL     1       7.399   5.450  15.364  0.00  0.00    +0.000 NA
ATOM      8  C   UNL     1       6.940   4.295  14.877  0.00  0.00    +0.000 A 
ATOM      9  N   UNL     1       5.706   3.905  15.323  0.00  0.00    +0.000 NA
ATOM     10  C   UNL     1       5.378   4.868  16.155  0.00  0.00    +0.000 A 
ATOM     11  N   UNL     1       4.263   5.039  16.931  0.00  0.00    +0.000 N 
ENDROOT
BRANCH  11  12
ATOM     12  C   UNL     1       3.246   3.959  16.830  0.00  0.00    +0.000 C 
BRANCH  12  13
ATOM     13  C   UNL     1       3.482   2.803  17.843  0.00  0.00    +0.000 C 
BRANCH  13  14
ATOM     14  C   UNL     1       2.654   2.827  19.122  0.00  0.00    +0.000 A 
ATOM     15  C   UNL     1       1.276   3.088  19.162  0.00  0.00    +0.000 A 
ATOM     16  C   UNL     1       0.589   3.133  20.383  0.00  0.00    +0.000 A 
ATOM     17  C   UNL     1       1.265   2.915  21.581  0.00  0.00    +0.000 A 
ATOM     18  C   UNL     1       2.628   2.645  21.564  0.00  0.00    +0.000 A 
ATOM     19  C   UNL     1       3.310   2.598  20.347  0.00  0.00    +0.000 A 
ENDBRANCH  13  14
BRANCH  13  20
ATOM     20  O   UNL     1       4.854   2.732  18.259  0.00  0.00    +0.000 OA
ATOM     21  H   UNL     1       4.862   2.749  19.235  0.00  0.00    +0.000 HD
ENDBRANCH  13  20
ENDBRANCH  12  13
ENDBRANCH  11  12
TORSDOF 4
ENDMDL
MODEL 2
REMARK VINA RESULT:      -7.6      0.143      1.085
REMARK  Name = 
REMARK  5 active torsions:
REMARK  status: ('A' for Active; 'I' for Inactive)
REMARK    1  A    between atoms: C_1  and  C_2
REMARK    2  A    between atoms: N_11  and  C_12
REMARK    3  A    between atoms: C_12  and  C_13
REMARK    4  A    between atoms: C_13  and  O_14
REMARK    5  A    between atoms: C_13  and  C_15
REMARK                            x       y       z     vdW  Elec       q    Type
REMARK                         _______ _______ _______ _____ _____    ______ ____
ROOT
ATOM      1  C   UNL     1       3.122   6.309  18.809  0.00  0.00    +0.000 C 
ATOM      2  C   UNL     1       4.261   6.123  17.839  0.00  0.00    +0.000 A 
ATOM      3  C   UNL     1       5.275   7.012  17.870  0.00  0.00    +0.000 A 
ATOM      4  C   UNL     1       6.439   6.876  16.959  0.00  0.00    +0.000 A 
ATOM      5  O   UNL     1       7.389   7.646  16.950  0.00  0.00    +0.000 OA
ATOM      6  N   UNL     1       6.360   5.769  16.120  0.00  0.00    +0.000 N 
ATOM      7  N   UNL     1       7.312   5.416  15.219  0.00  0.00    +0.000 NA
ATOM      8  C   UNL     1       6.773   4.316  14.689  0.00  0.00    +0.000 A 
ATOM      9  N   UNL     1       5.550   3.949  15.183  0.00  0.00    +0.000 NA
ATOM     10  C   UNL     1       5.316   4.868  16.093  0.00  0.00    +0.000 A 
ATOM     11  N   UNL     1       4.256   5.035  16.945  0.00  0.00    +0.000 N 
ENDROOT
BRANCH  11  12
ATOM     12  C   UNL     1       3.187   4.008  16.837  0.00  0.00    +0.000 C 
BRANCH  12  13
ATOM     13  C   UNL     1       3.409   2.796  17.787  0.00  0.00    +0.000 C 
BRANCH  13  14
ATOM     14  C   UNL     1       2.714   2.847  19.142  0.00  0.00    +0.000 A 
ATOM     15  C   UNL     1       3.355   2.602  20.365  0.00  0.00    +0.000 A 
ATOM     16  C   UNL     1       2.639   2.627  21.569  0.00  0.00    +0.000 A 
ATOM     17  C   UNL     1       1.273   2.899  21.573  0.00  0.00    +0.000 A 
ATOM     18  C   UNL     1       0.619   3.154  20.373  0.00  0.00    +0.000 A 
ATOM     19  C   UNL     1       1.334   3.132  19.175  0.00  0.00    +0.000 A 
ENDBRANCH  13  14
BRANCH  13  20
ATOM     20  O   UNL     1       4.801   2.582  18.062  0.00  0.00    +0.000 OA
ATOM     21  H   UNL     1       5.087   1.815  17.529  0.00  0.00    +0.000 HD
ENDBRANCH  13  20
ENDBRANCH  12  13
ENDBRANCH  11  12
TORSDOF 4
ENDMDL
MODEL 3
REMARK VINA RESULT:      -7.2      2.382      5.396
REMARK  Name = 
REMARK  5 active torsions:
REMARK  status: ('A' for Active; 'I' for Inactive)
REMARK    1  A    between atoms: C_1  and  C_2
REMARK    2  A    between atoms: N_11  and  C_12
REMARK    3  A    between atoms: C_12  and  C_13
REMARK    4  A    between atoms: C_13  and  O_14
REMARK    5  A    between atoms: C_13  and  C_15
REMARK                            x       y       z     vdW  Elec       q    Type
REMARK                         _______ _______ _______ _____ _____    ______ ____
ROOT
ATOM      1  C   UNL     1       3.796   7.245  17.415  0.00  0.00    +0.000 C 
ATOM      2  C   UNL     1       3.508   5.937  18.106  0.00  0.00    +0.000 A 
ATOM      3  C   UNL     1       2.891   5.973  19.306  0.00  0.00    +0.000 A 
ATOM      4  C   UNL     1       2.556   4.721  20.030  0.00  0.00    +0.000 A 
ATOM      5  O   UNL     1       1.991   4.694  21.114  0.00  0.00    +0.000 OA
ATOM      6  N   UNL     1       2.930   3.568  19.348  0.00  0.00    +0.000 N 
ATOM      7  N   UNL     1       2.707   2.305  19.790  0.00  0.00    +0.000 NA
ATOM      8  C   UNL     1       3.236   1.584  18.799  0.00  0.00    +0.000 A 
ATOM      9  N   UNL     1       3.781   2.297  17.765  0.00  0.00    +0.000 NA
ATOM     10  C   UNL     1       3.563   3.543  18.123  0.00  0.00    +0.000 A 
ATOM     11  N   UNL     1       3.863   4.720  17.491  0.00  0.00    +0.000 N 
ENDROOT
BRANCH  11  12
ATOM     12  C   UNL     1       4.542   4.582  16.176  0.00  0.00    +0.000 C 
BRANCH  12  13
ATOM     13  C   UNL     1       6.071   4.334  16.303  0.00  0.00    +0.000 C 
BRANCH  13  14
ATOM     14  C   UNL     1       6.856   5.300  17.182  0.00  0.00    +0.000 A 
ATOM     15  C   UNL     1       7.362   4.976  18.450  0.00  0.00    +0.000 A 
ATOM     16  C   UNL     1       8.040   5.933  19.218  0.00  0.00    +0.000 A 
ATOM     17  C   UNL     1       8.227   7.224  18.732  0.00  0.00    +0.000 A 
ATOM     18  C   UNL     1       7.743   7.564  17.474  0.00  0.00    +0.000 A 
ATOM     19  C   UNL     1       7.071   6.609  16.709  0.00  0.00    +0.000 A 
ENDBRANCH  13  14
BRANCH  13  20
ATOM     20  O   UNL     1       6.721   4.343  15.023  0.00  0.00    +0.000 OA
ATOM     21  H   UNL     1       7.357   3.603  15.016  0.00  0.00    +0.000 HD
ENDBRANCH  13  20
ENDBRANCH  12  13
ENDBRANCH  11  12
TORSDOF 4
ENDMDL
MODEL 4
REMARK VINA RESULT:      -7.1      1.476      1.728
REMARK  Name = 
REMARK  5 active torsions:
REMARK  status: ('A' for Active; 'I' for Inactive)
REMARK    1  A    between atoms: C_1  and  C_2
REMARK    2  A    between atoms: N_11  and  C_12
REMARK    3  A    between atoms: C_12  and  C_13
REMARK    4  A    between atoms: C_13  and  O_14
REMARK    5  A    between atoms: C_13  and  C_15
REMARK                            x       y       z     vdW  Elec       q    Type
REMARK                         _______ _______ _______ _____ _____    ______ ____
ROOT
ATOM      1  C   UNL     1       3.028   6.309  19.259  0.00  0.00    +0.000 C 
ATOM      2  C   UNL     1       4.052   6.120  18.168  0.00  0.00    +0.000 A 
ATOM      3  C   UNL     1       3.942   6.873  17.053  0.00  0.00    +0.000 A 
ATOM      4  C   UNL     1       4.929   6.754  15.951  0.00  0.00    +0.000 A 
ATOM      5  O   UNL     1       4.883   7.416  14.924  0.00  0.00    +0.000 OA
ATOM      6  N   UNL     1       5.933   5.826  16.203  0.00  0.00    +0.000 N 
ATOM      7  N   UNL     1       6.963   5.557  15.361  0.00  0.00    +0.000 NA
ATOM      8  C   UNL     1       7.626   4.625  16.048  0.00  0.00    +0.000 A 
ATOM      9  N   UNL     1       7.090   4.279  17.260  0.00  0.00    +0.000 NA
ATOM     10  C   UNL     1       6.034   5.058  17.344  0.00  0.00    +0.000 A 
ATOM     11  N   UNL     1       5.098   5.191  18.334  0.00  0.00    +0.000 N 
ENDROOT
BRANCH  11  12
ATOM     12  C   UNL     1       5.300   4.321  19.523  0.00  0.00    +0.000 C 
BRANCH  12  13
ATOM     13  C   UNL     1       4.651   2.917  19.367  0.00  0.00    +0.000 C 
BRANCH  13  14
ATOM     14  C   UNL     1       3.141   2.831  19.557  0.00  0.00    +0.000 A 
ATOM     15  C   UNL     1       2.227   2.625  18.513  0.00  0.00    +0.000 A 
ATOM     16  C   UNL     1       0.848   2.598  18.761  0.00  0.00    +0.000 A 
ATOM     17  C   UNL     1       0.360   2.772  20.053  0.00  0.00    +0.000 A 
ATOM     18  C   UNL     1       1.248   2.966  21.105  0.00  0.00    +0.000 A 
ATOM     19  C   UNL     1       2.621   2.990  20.857  0.00  0.00    +0.000 A 
ENDBRANCH  13  14
BRANCH  13  20
ATOM     20  O   UNL     1       5.221   1.963  20.275  0.00  0.00    +0.000 OA
ATOM     21  H   UNL     1       4.664   1.161  20.241  0.00  0.00    +0.000 HD
ENDBRANCH  13  20
ENDBRANCH  12  13
ENDBRANCH  11  12
TORSDOF 4
ENDMDL
MODEL 5
REMARK VINA RESULT:      -7.1      2.391      5.385
REMARK  Name = 
REMARK  5 active torsions:
REMARK  status: ('A' for Active; 'I' for Inactive)
REMARK    1  A    between atoms: C_1  and  C_2
REMARK    2  A    between atoms: N_11  and  C_12
REMARK    3  A    between atoms: C_12  and  C_13
REMARK    4  A    between atoms: C_13  and  O_14
REMARK    5  A    between atoms: C_13  and  C_15
REMARK                            x       y       z     vdW  Elec       q    Type
REMARK                         _______ _______ _______ _____ _____    ______ ____
ROOT
ATOM      1  C   UNL     1       3.672   7.263  17.528  0.00  0.00    +0.000 C 
ATOM      2  C   UNL     1       3.368   5.931  18.164  0.00  0.00    +0.000 A 
ATOM      3  C   UNL     1       2.694   5.921  19.333  0.00  0.00    +0.000 A 
ATOM      4  C   UNL     1       2.342   4.643  20.001  0.00  0.00    +0.000 A 
ATOM      5  O   UNL     1       1.725   4.576  21.055  0.00  0.00    +0.000 OA
ATOM      6  N   UNL     1       2.763   3.517  19.303  0.00  0.00    +0.000 N 
ATOM      7  N   UNL     1       2.537   2.238  19.695  0.00  0.00    +0.000 NA
ATOM      8  C   UNL     1       3.123   1.555  18.710  0.00  0.00    +0.000 A 
ATOM      9  N   UNL     1       3.707   2.307  17.725  0.00  0.00    +0.000 NA
ATOM     10  C   UNL     1       3.456   3.538  18.110  0.00  0.00    +0.000 A 
ATOM     11  N   UNL     1       3.769   4.738  17.530  0.00  0.00    +0.000 N 
ENDROOT
BRANCH  11  12
ATOM     12  C   UNL     1       4.513   4.649  16.246  0.00  0.00    +0.000 C 
BRANCH  12  13
ATOM     13  C   UNL     1       6.039   4.420  16.440  0.00  0.00    +0.000 C 
BRANCH  13  14
ATOM     14  C   UNL     1       6.798   5.475  17.235  0.00  0.00    +0.000 A 
ATOM     15  C   UNL     1       7.006   6.792  16.798  0.00  0.00    +0.000 A 
ATOM     16  C   UNL     1       7.751   7.695  17.568  0.00  0.00    +0.000 A 
ATOM     17  C   UNL     1       8.298   7.300  18.786  0.00  0.00    +0.000 A 
ATOM     18  C   UNL     1       8.095   6.003  19.244  0.00  0.00    +0.000 A 
ATOM     19  C   UNL     1       7.351   5.106  18.478  0.00  0.00    +0.000 A 
ENDBRANCH  13  14
BRANCH  13  20
ATOM     20  O   UNL     1       6.723   4.299  15.185  0.00  0.00    +0.000 OA
ATOM     21  H   UNL     1       6.124   3.831  14.572  0.00  0.00    +0.000 HD
ENDBRANCH  13  20
ENDBRANCH  12  13
ENDBRANCH  11  12
TORSDOF 4
ENDMDL
MODEL 6
REMARK VINA RESULT:      -7.0      1.467      1.900
REMARK  Name = 
REMARK  5 active torsions:
REMARK  status: ('A' for Active; 'I' for Inactive)
REMARK    1  A    between atoms: C_1  and  C_2
REMARK    2  A    between atoms: N_11  and  C_12
REMARK    3  A    between atoms: C_12  and  C_13
REMARK    4  A    between atoms: C_13  and  O_14
REMARK    5  A    between atoms: C_13  and  C_15
REMARK                            x       y       z     vdW  Elec       q    Type
REMARK                         _______ _______ _______ _____ _____    ______ ____
ROOT
ATOM      1  C   UNL     1       3.139   6.270  19.400  0.00  0.00    +0.000 C 
ATOM      2  C   UNL     1       4.091   6.092  18.245  0.00  0.00    +0.000 A 
ATOM      3  C   UNL     1       3.933   6.880  17.161  0.00  0.00    +0.000 A 
ATOM      4  C   UNL     1       4.850   6.773  15.999  0.00  0.00    +0.000 A 
ATOM      5  O   UNL     1       4.759   7.466  14.995  0.00  0.00    +0.000 OA
ATOM      6  N   UNL     1       5.845   5.816  16.163  0.00  0.00    +0.000 N 
ATOM      7  N   UNL     1       6.818   5.551  15.254  0.00  0.00    +0.000 NA
ATOM      8  C   UNL     1       7.498   4.585  15.874  0.00  0.00    +0.000 A 
ATOM      9  N   UNL     1       7.027   4.215  17.105  0.00  0.00    +0.000 NA
ATOM     10  C   UNL     1       5.996   5.013  17.275  0.00  0.00    +0.000 A 
ATOM     11  N   UNL     1       5.123   5.136  18.322  0.00  0.00    +0.000 N 
ENDROOT
BRANCH  11  12
ATOM     12  C   UNL     1       5.376   4.227  19.471  0.00  0.00    +0.000 C 
BRANCH  12  13
ATOM     13  C   UNL     1       4.644   2.862  19.340  0.00  0.00    +0.000 C 
BRANCH  13  14
ATOM     14  C   UNL     1       3.152   2.846  19.652  0.00  0.00    +0.000 A 
ATOM     15  C   UNL     1       2.618   2.934  20.946  0.00  0.00    +0.000 A 
ATOM     16  C   UNL     1       1.234   2.872  21.157  0.00  0.00    +0.000 A 
ATOM     17  C   UNL     1       0.362   2.725  20.081  0.00  0.00    +0.000 A 
ATOM     18  C   UNL     1       0.869   2.646  18.789  0.00  0.00    +0.000 A 
ATOM     19  C   UNL     1       2.247   2.711  18.580  0.00  0.00    +0.000 A 
ENDBRANCH  13  14
BRANCH  13  20
ATOM     20  O   UNL     1       5.236   1.857  20.177  0.00  0.00    +0.000 OA
ATOM     21  H   UNL     1       4.612   1.685  20.908  0.00  0.00    +0.000 HD
ENDBRANCH  13  20
ENDBRANCH  12  13
ENDBRANCH  11  12
TORSDOF 4
ENDMDL
MODEL 7
REMARK VINA RESULT:      -6.9      2.439      5.742
REMARK  Name = 
REMARK  5 active torsions:
REMARK  status: ('A' for Active; 'I' for Inactive)
REMARK    1  A    between atoms: C_1  and  C_2
REMARK    2  A    between atoms: N_11  and  C_12
REMARK    3  A    between atoms: C_12  and  C_13
REMARK    4  A    between atoms: C_13  and  O_14
REMARK    5  A    between atoms: C_13  and  C_15
REMARK                            x       y       z     vdW  Elec       q    Type
REMARK                         _______ _______ _______ _____ _____    ______ ____
ROOT
ATOM      1  C   UNL     1       3.715   1.429  17.966  0.00  0.00    +0.000 C 
ATOM      2  C   UNL     1       3.214   2.650  18.694  0.00  0.00    +0.000 A 
ATOM      3  C   UNL     1       2.675   2.485  19.920  0.00  0.00    +0.000 A 
ATOM      4  C   UNL     1       2.184   3.647  20.701  0.00  0.00    +0.000 A 
ATOM      5  O   UNL     1       1.694   3.557  21.818  0.00  0.00    +0.000 OA
ATOM      6  N   UNL     1       2.350   4.864  20.050  0.00  0.00    +0.000 N 
ATOM      7  N   UNL     1       2.005   6.070  20.570  0.00  0.00    +0.000 NA
ATOM      8  C   UNL     1       2.361   6.892  19.580  0.00  0.00    +0.000 A 
ATOM      9  N   UNL     1       2.901   6.297  18.472  0.00  0.00    +0.000 NA
ATOM     10  C   UNL     1       2.899   5.023  18.795  0.00  0.00    +0.000 A 
ATOM     11  N   UNL     1       3.332   3.923  18.102  0.00  0.00    +0.000 N 
ENDROOT
BRANCH  11  12
ATOM     12  C   UNL     1       3.911   4.204  16.762  0.00  0.00    +0.000 C 
BRANCH  12  13
ATOM     13  C   UNL     1       5.452   4.004  16.709  0.00  0.00    +0.000 C 
BRANCH  13  14
ATOM     14  C   UNL     1       6.311   5.114  17.304  0.00  0.00    +0.000 A 
ATOM     15  C   UNL     1       6.471   6.381  16.724  0.00  0.00    +0.000 A 
ATOM     16  C   UNL     1       7.312   7.338  17.310  0.00  0.00    +0.000 A 
ATOM     17  C   UNL     1       8.003   7.046  18.483  0.00  0.00    +0.000 A 
ATOM     18  C   UNL     1       7.852   5.799  19.079  0.00  0.00    +0.000 A 
ATOM     19  C   UNL     1       7.012   4.849  18.497  0.00  0.00    +0.000 A 
ENDBRANCH  13  14
BRANCH  13  20
ATOM     20  O   UNL     1       5.920   3.815  15.366  0.00  0.00    +0.000 OA
ATOM     21  H   UNL     1       6.885   3.676  15.412  0.00  0.00    +0.000 HD
ENDBRANCH  13  20
ENDBRANCH  12  13
ENDBRANCH  11  12
TORSDOF 4
ENDMDL
MODEL 8
REMARK VINA RESULT:      -6.9      2.203      3.782
REMARK  Name = 
REMARK  5 active torsions:
REMARK  status: ('A' for Active; 'I' for Inactive)
REMARK    1  A    between atoms: C_1  and  C_2
REMARK    2  A    between atoms: N_11  and  C_12
REMARK    3  A    between atoms: C_12  and  C_13
REMARK    4  A    between atoms: C_13  and  O_14
REMARK    5  A    between atoms: C_13  and  C_15
REMARK                            x       y       z     vdW  Elec       q    Type
REMARK                         _______ _______ _______ _____ _____    ______ ____
ROOT
ATOM      1  C   UNL     1       3.132   3.227  16.752  0.00  0.00    +0.000 C 
ATOM      2  C   UNL     1       4.447   3.913  17.019  0.00  0.00    +0.000 A 
ATOM      3  C   UNL     1       5.231   4.221  15.965  0.00  0.00    +0.000 A 
ATOM      4  C   UNL     1       6.528   4.918  16.155  0.00  0.00    +0.000 A 
ATOM      5  O   UNL     1       7.272   5.229  15.237  0.00  0.00    +0.000 OA
ATOM      6  N   UNL     1       6.813   5.207  17.485  0.00  0.00    +0.000 N 
ATOM      7  N   UNL     1       7.923   5.862  17.910  0.00  0.00    +0.000 NA
ATOM      8  C   UNL     1       7.723   5.884  19.230  0.00  0.00    +0.000 A 
ATOM      9  N   UNL     1       6.572   5.290  19.672  0.00  0.00    +0.000 NA
ATOM     10  C   UNL     1       6.006   4.884  18.557  0.00  0.00    +0.000 A 
ATOM     11  N   UNL     1       4.822   4.232  18.340  0.00  0.00    +0.000 N 
ENDROOT
BRANCH  11  12
ATOM     12  C   UNL     1       4.027   3.934  19.560  0.00  0.00    +0.000 C 
BRANCH  12  13
ATOM     13  C   UNL     1       2.546   4.395  19.450  0.00  0.00    +0.000 C 
BRANCH  13  14
ATOM     14  C   UNL     1       2.289   5.897  19.459  0.00  0.00    +0.000 A 
ATOM     15  C   UNL     1       1.832   6.611  20.576  0.00  0.00    +0.000 A 
ATOM     16  C   UNL     1       1.579   7.987  20.495  0.00  0.00    +0.000 A 
ATOM     17  C   UNL     1       1.782   8.673  19.300  0.00  0.00    +0.000 A 
ATOM     18  C   UNL     1       2.245   7.987  18.183  0.00  0.00    +0.000 A 
ATOM     19  C   UNL     1       2.499   6.618  18.266  0.00  0.00    +0.000 A 
ENDBRANCH  13  14
BRANCH  13  20
ATOM     20  O   UNL     1       1.738   3.848  20.503  0.00  0.00    +0.000 OA
ATOM     21  H   UNL     1       0.981   4.452  20.631  0.00  0.00    +0.000 HD
ENDBRANCH  13  20
ENDBRANCH  12  13
ENDBRANCH  11  12
TORSDOF 4
ENDMDL
MODEL 9
REMARK VINA RESULT:      -6.9      1.329      1.367
REMARK  Name = 
REMARK  5 active torsions:
REMARK  status: ('A' for Active; 'I' for Inactive)
REMARK    1  A    between atoms: C_1  and  C_2
REMARK    2  A    between atoms: N_11  and  C_12
REMARK    3  A    between atoms: C_12  and  C_13
REMARK    4  A    between atoms: C_13  and  O_14
REMARK    5  A    between atoms: C_13  and  C_15
REMARK                            x       y       z     vdW  Elec       q    Type
REMARK                         _______ _______ _______ _____ _____    ______ ____
ROOT
ATOM      1  C   UNL     1       5.010   5.105  19.614  0.00  0.00    +0.000 C 
ATOM      2  C   UNL     1       5.682   5.263  18.274  0.00  0.00    +0.000 A 
ATOM      3  C   UNL     1       6.542   6.289  18.109  0.00  0.00    +0.000 A 
ATOM      4  C   UNL     1       7.256   6.489  16.823  0.00  0.00    +0.000 A 
ATOM      5  O   UNL     1       8.052   7.395  16.621  0.00  0.00    +0.000 OA
ATOM      6  N   UNL     1       6.950   5.530  15.863  0.00  0.00    +0.000 N 
ATOM      7  N   UNL     1       7.493   5.483  14.620  0.00  0.00    +0.000 NA
ATOM      8  C   UNL     1       6.888   4.407  14.112  0.00  0.00    +0.000 A 
ATOM      9  N   UNL     1       5.999   3.773  14.939  0.00  0.00    +0.000 NA
ATOM     10  C   UNL     1       6.065   4.486  16.040  0.00  0.00    +0.000 A 
ATOM     11  N   UNL     1       5.420   4.342  17.240  0.00  0.00    +0.000 N 
ENDROOT
BRANCH  11  12
ATOM     12  C   UNL     1       4.491   3.184  17.327  0.00  0.00    +0.000 C 
BRANCH  12  13
ATOM     13  C   UNL     1       3.001   3.607  17.458  0.00  0.00    +0.000 C 
BRANCH  13  14
ATOM     14  C   UNL     1       2.361   3.462  18.834  0.00  0.00    +0.000 A 
ATOM     15  C   UNL     1       1.343   4.295  19.320  0.00  0.00    +0.000 A 
ATOM     16  C   UNL     1       0.832   4.124  20.613  0.00  0.00    +0.000 A 
ATOM     17  C   UNL     1       1.325   3.118  21.440  0.00  0.00    +0.000 A 
ATOM     18  C   UNL     1       2.328   2.274  20.975  0.00  0.00    +0.000 A 
ATOM     19  C   UNL     1       2.834   2.444  19.686  0.00  0.00    +0.000 A 
ENDBRANCH  13  14
BRANCH  13  20
ATOM     20  O   UNL     1       2.160   2.882  16.549  0.00  0.00    +0.000 OA
ATOM     21  H   UNL     1       2.492   3.053  15.647  0.00  0.00    +0.000 HD
ENDBRANCH  13  20
ENDBRANCH  12  13
ENDBRANCH  11  12
TORSDOF 4
ENDMDL
