MODEL 1
REMARK VINA RESULT:      -7.9      0.000      0.000
REMARK  Name = 
REMARK  7 active torsions:
REMARK  status: ('A' for Active; 'I' for Inactive)
REMARK    1  A    between atoms: C_1  and  O_2
REMARK    2  A    between atoms: O_2  and  C_3
REMARK    3  A    between atoms: C_6  and  N_7
REMARK    4  A    between atoms: C_11  and  S_12
REMARK    5  A    between atoms: S_12  and  C_13
REMARK    6  A    between atoms: C_16  and  S_17
REMARK    7  A    between atoms: S_17  and  N_20
REMARK                            x       y       z     vdW  Elec       q    Type
REMARK                         _______ _______ _______ _____ _____    ______ ____
ROOT
ATOM      1  C   UNL     1       1.349   7.886  20.365  0.00  0.00    +0.000 A 
ATOM      2  C   UNL     1       1.879   8.337  19.155  0.00  0.00    +0.000 A 
ATOM      3  C   UNL     1       2.749   7.504  18.433  0.00  0.00    +0.000 A 
ATOM      4  C   UNL     1       3.069   6.241  18.937  0.00  0.00    +0.000 A 
ATOM      5  C   UNL     1       2.506   5.864  20.138  0.00  0.00    +0.000 A 
ATOM      6  N   UNL     1       1.672   6.664  20.862  0.00  0.00    +0.000 NA
ENDROOT
BRANCH   4   7
ATOM      7  S   UNL     1       3.975   5.044  18.000  0.00  0.00    +0.000 S 
ATOM      8  O   UNL     1       4.797   4.315  18.944  0.00  0.00    +0.000 OA
ATOM      9  O   UNL     1       3.038   4.361  17.153  0.00  0.00    +0.000 OA
BRANCH   7  10
ATOM     10  N   UNL     1       5.049   5.917  16.982  0.00  0.00    +0.000 NA
ATOM     11  C   UNL     1       5.407   5.338  15.651  0.00  0.00    +0.000 C 
ATOM     12  C   UNL     1       6.453   4.221  15.763  0.00  0.00    +0.000 C 
ATOM     13  O   UNL     1       7.636   4.647  16.453  0.00  0.00    +0.000 OA
ATOM     14  C   UNL     1       7.356   5.215  17.740  0.00  0.00    +0.000 C 
ATOM     15  C   UNL     1       6.334   6.358  17.649  0.00  0.00    +0.000 C 
ENDBRANCH   7  10
ENDBRANCH   4   7
BRANCH   1  16
ATOM     16  S   UNL     1       0.041   8.716  21.254  0.00  0.00    +0.000 S 
BRANCH  16  21
ATOM     17  N   UNL     1      -0.154  11.231  20.027  0.00  0.00    +0.000 N 
ATOM     18  N   UNL     1       0.605  12.367  20.037  0.00  0.00    +0.000 NA
ATOM     19  N   UNL     1       1.514  12.219  20.985  0.00  0.00    +0.000 NA
ATOM     20  N   UNL     1       1.399  11.003  21.585  0.00  0.00    +0.000 NA
ATOM     21  C   UNL     1       0.393  10.388  20.998  0.00  0.00    +0.000 A 
BRANCH  17  25
ATOM     22  C   UNL     1      -3.576  11.056  17.488  0.00  0.00    +0.000 A 
ATOM     23  C   UNL     1      -3.549  11.874  18.612  0.00  0.00    +0.000 A 
ATOM     24  C   UNL     1      -2.407  11.941  19.416  0.00  0.00    +0.000 A 
ATOM     25  C   UNL     1      -1.270  11.157  19.133  0.00  0.00    +0.000 A 
ATOM     26  C   UNL     1      -1.316  10.316  18.015  0.00  0.00    +0.000 A 
ATOM     27  C   UNL     1      -2.462  10.271  17.196  0.00  0.00    +0.000 A 
BRANCH  22  29
ATOM     28  C   UNL     1      -5.646  12.137  17.097  0.00  0.00    +0.000 C 
ATOM     29  O   UNL     1      -4.750  11.076  16.792  0.00  0.00    +0.000 OA
ENDBRANCH  22  29
ENDBRANCH  17  25
ENDBRANCH  16  21
ENDBRANCH   1  16
TORSDOF 6
ENDMDL
MODEL 2
REMARK VINA RESULT:      -7.8      3.335      4.049
REMARK  Name = 
REMARK  7 active torsions:
REMARK  status: ('A' for Active; 'I' for Inactive)
REMARK    1  A    between atoms: C_1  and  O_2
REMARK    2  A    between atoms: O_2  and  C_3
REMARK    3  A    between atoms: C_6  and  N_7
REMARK    4  A    between atoms: C_11  and  S_12
REMARK    5  A    between atoms: S_12  and  C_13
REMARK    6  A    between atoms: C_16  and  S_17
REMARK    7  A    between atoms: S_17  and  N_20
REMARK                            x       y       z     vdW  Elec       q    Type
REMARK                         _______ _______ _______ _____ _____    ______ ____
ROOT
ATOM      1  C   UNL     1       1.178   9.691  19.028  0.00  0.00    +0.000 A 
ATOM      2  C   UNL     1       1.761   9.023  17.950  0.00  0.00    +0.000 A 
ATOM      3  C   UNL     1       2.301   7.742  18.147  0.00  0.00    +0.000 A 
ATOM      4  C   UNL     1       2.247   7.159  19.415  0.00  0.00    +0.000 A 
ATOM      5  C   UNL     1       1.655   7.879  20.431  0.00  0.00    +0.000 A 
ATOM      6  N   UNL     1       1.138   9.130  20.264  0.00  0.00    +0.000 NA
ENDROOT
BRANCH   4   7
ATOM      7  S   UNL     1       2.702   5.475  19.709  0.00  0.00    +0.000 S 
ATOM      8  O   UNL     1       4.149   5.426  19.688  0.00  0.00    +0.000 OA
ATOM      9  O   UNL     1       1.964   5.023  20.855  0.00  0.00    +0.000 OA
BRANCH   7  10
ATOM     10  N   UNL     1       2.157   4.568  18.355  0.00  0.00    +0.000 NA
ATOM     11  C   UNL     1       1.231   3.417  18.588  0.00  0.00    +0.000 C 
ATOM     12  C   UNL     1       1.965   2.171  19.101  0.00  0.00    +0.000 C 
ATOM     13  O   UNL     1       3.040   1.776  18.240  0.00  0.00    +0.000 OA
ATOM     14  C   UNL     1       3.965   2.842  17.978  0.00  0.00    +0.000 C 
ATOM     15  C   UNL     1       3.256   4.090  17.432  0.00  0.00    +0.000 C 
ENDBRANCH   7  10
ENDBRANCH   4   7
BRANCH   1  16
ATOM     16  S   UNL     1       0.227  11.196  18.875  0.00  0.00    +0.000 S 
BRANCH  16  21
ATOM     17  N   UNL     1       0.475  12.913  21.079  0.00  0.00    +0.000 N 
ATOM     18  N   UNL     1       1.388  13.853  21.467  0.00  0.00    +0.000 NA
ATOM     19  N   UNL     1       2.427  13.743  20.660  0.00  0.00    +0.000 NA
ATOM     20  N   UNL     1       2.218  12.776  19.725  0.00  0.00    +0.000 NA
ATOM     21  C   UNL     1       1.024  12.274  19.964  0.00  0.00    +0.000 A 
BRANCH  17  25
ATOM     22  C   UNL     1      -3.085  12.311  23.348  0.00  0.00    +0.000 A 
ATOM     23  C   UNL     1      -2.033  11.403  23.396  0.00  0.00    +0.000 A 
ATOM     24  C   UNL     1      -0.862  11.632  22.668  0.00  0.00    +0.000 A 
ATOM     25  C   UNL     1      -0.729  12.766  21.840  0.00  0.00    +0.000 A 
ATOM     26  C   UNL     1      -1.803  13.661  21.778  0.00  0.00    +0.000 A 
ATOM     27  C   UNL     1      -2.972  13.435  22.533  0.00  0.00    +0.000 A 
BRANCH  22  29
ATOM     28  C   UNL     1      -5.227  12.922  24.151  0.00  0.00    +0.000 C 
ATOM     29  O   UNL     1      -4.173  11.969  24.098  0.00  0.00    +0.000 OA
ENDBRANCH  22  29
ENDBRANCH  17  25
ENDBRANCH  16  21
ENDBRANCH   1  16
TORSDOF 6
ENDMDL
MODEL 3
REMARK VINA RESULT:      -7.8      3.041      3.846
REMARK  Name = 
REMARK  7 active torsions:
REMARK  status: ('A' for Active; 'I' for Inactive)
REMARK    1  A    between atoms: C_1  and  O_2
REMARK    2  A    between atoms: O_2  and  C_3
REMARK    3  A    between atoms: C_6  and  N_7
REMARK    4  A    between atoms: C_11  and  S_12
REMARK    5  A    between atoms: S_12  and  C_13
REMARK    6  A    between atoms: C_16  and  S_17
REMARK    7  A    between atoms: S_17  and  N_20
REMARK                            x       y       z     vdW  Elec       q    Type
REMARK                         _______ _______ _______ _____ _____    ______ ____
ROOT
ATOM      1  C   UNL     1       1.139   9.696  19.064  0.00  0.00    +0.000 A 
ATOM      2  C   UNL     1       1.735   9.054  17.977  0.00  0.00    +0.000 A 
ATOM      3  C   UNL     1       2.322   7.792  18.162  0.00  0.00    +0.000 A 
ATOM      4  C   UNL     1       2.301   7.201  19.428  0.00  0.00    +0.000 A 
ATOM      5  C   UNL     1       1.694   7.896  20.453  0.00  0.00    +0.000 A 
ATOM      6  N   UNL     1       1.131   9.128  20.297  0.00  0.00    +0.000 NA
ENDROOT
BRANCH   4   7
ATOM      7  S   UNL     1       2.818   5.533  19.708  0.00  0.00    +0.000 S 
ATOM      8  O   UNL     1       4.256   5.510  19.534  0.00  0.00    +0.000 OA
ATOM      9  O   UNL     1       2.215   5.097  20.936  0.00  0.00    +0.000 OA
BRANCH   7  10
ATOM     10  N   UNL     1       2.151   4.585  18.441  0.00  0.00    +0.000 NA
ATOM     11  C   UNL     1       1.209   3.478  18.792  0.00  0.00    +0.000 C 
ATOM     12  C   UNL     1       1.939   2.233  19.312  0.00  0.00    +0.000 C 
ATOM     13  O   UNL     1       2.938   1.763  18.397  0.00  0.00    +0.000 OA
ATOM     14  C   UNL     1       3.873   2.783  18.021  0.00  0.00    +0.000 C 
ATOM     15  C   UNL     1       3.166   4.028  17.467  0.00  0.00    +0.000 C 
ENDBRANCH   7  10
ENDBRANCH   4   7
BRANCH   1  16
ATOM     16  S   UNL     1       0.134  11.167  18.928  0.00  0.00    +0.000 S 
BRANCH  16  21
ATOM     17  N   UNL     1       0.012  12.804  21.203  0.00  0.00    +0.000 N 
ATOM     18  N   UNL     1       0.866  13.689  21.797  0.00  0.00    +0.000 NA
ATOM     19  N   UNL     1       2.038  13.557  21.203  0.00  0.00    +0.000 NA
ATOM     20  N   UNL     1       1.979  12.629  20.209  0.00  0.00    +0.000 NA
ATOM     21  C   UNL     1       0.743  12.175  20.192  0.00  0.00    +0.000 A 
BRANCH  17  25
ATOM     22  C   UNL     1      -4.008  12.580  22.609  0.00  0.00    +0.000 A 
ATOM     23  C   UNL     1      -3.711  13.061  21.339  0.00  0.00    +0.000 A 
ATOM     24  C   UNL     1      -2.389  13.099  20.884  0.00  0.00    +0.000 A 
ATOM     25  C   UNL     1      -1.323  12.688  21.710  0.00  0.00    +0.000 A 
ATOM     26  C   UNL     1      -1.629  12.230  22.996  0.00  0.00    +0.000 A 
ATOM     27  C   UNL     1      -2.966  12.173  23.440  0.00  0.00    +0.000 A 
BRANCH  22  29
ATOM     28  C   UNL     1      -5.795  13.755  23.627  0.00  0.00    +0.000 C 
ATOM     29  O   UNL     1      -5.334  12.601  22.935  0.00  0.00    +0.000 OA
ENDBRANCH  22  29
ENDBRANCH  17  25
ENDBRANCH  16  21
ENDBRANCH   1  16
TORSDOF 6
ENDMDL
MODEL 4
REMARK VINA RESULT:      -7.7      3.120      9.068
REMARK  Name = 
REMARK  7 active torsions:
REMARK  status: ('A' for Active; 'I' for Inactive)
REMARK    1  A    between atoms: C_1  and  O_2
REMARK    2  A    between atoms: O_2  and  C_3
REMARK    3  A    between atoms: C_6  and  N_7
REMARK    4  A    between atoms: C_11  and  S_12
REMARK    5  A    between atoms: S_12  and  C_13
REMARK    6  A    between atoms: C_16  and  S_17
REMARK    7  A    between atoms: S_17  and  N_20
REMARK                            x       y       z     vdW  Elec       q    Type
REMARK                         _______ _______ _______ _____ _____    ______ ____
ROOT
ATOM      1  C   UNL     1       2.171   7.187  19.744  0.00  0.00    +0.000 A 
ATOM      2  C   UNL     1       2.237   7.910  18.552  0.00  0.00    +0.000 A 
ATOM      3  C   UNL     1       1.595   9.156  18.469  0.00  0.00    +0.000 A 
ATOM      4  C   UNL     1       0.902   9.650  19.577  0.00  0.00    +0.000 A 
ATOM      5  C   UNL     1       0.882   8.879  20.720  0.00  0.00    +0.000 A 
ATOM      6  N   UNL     1       1.486   7.660  20.817  0.00  0.00    +0.000 NA
ENDROOT
BRANCH   4   7
ATOM      7  S   UNL     1       0.251  11.293  19.638  0.00  0.00    +0.000 S 
ATOM      8  O   UNL     1      -0.566  11.460  18.454  0.00  0.00    +0.000 OA
ATOM      9  O   UNL     1      -0.300  11.490  20.950  0.00  0.00    +0.000 OA
BRANCH   7  10
ATOM     10  N   UNL     1       1.584  12.364  19.473  0.00  0.00    +0.000 NA
ATOM     11  C   UNL     1       2.103  13.058  20.691  0.00  0.00    +0.000 C 
ATOM     12  C   UNL     1       1.226  14.247  21.104  0.00  0.00    +0.000 C 
ATOM     13  O   UNL     1       1.042  15.188  20.038  0.00  0.00    +0.000 OA
ATOM     14  C   UNL     1       0.546  14.579  18.838  0.00  0.00    +0.000 C 
ATOM     15  C   UNL     1       1.427  13.406  18.387  0.00  0.00    +0.000 C 
ENDBRANCH   7  10
ENDBRANCH   4   7
BRANCH   1  16
ATOM     16  S   UNL     1       3.146   5.728  20.083  0.00  0.00    +0.000 S 
BRANCH  16  21
ATOM     17  N   UNL     1       2.985   4.324  17.659  0.00  0.00    +0.000 N 
ATOM     18  N   UNL     1       2.041   3.534  17.067  0.00  0.00    +0.000 NA
ATOM     19  N   UNL     1       1.108   3.298  17.972  0.00  0.00    +0.000 NA
ATOM     20  N   UNL     1       1.391   3.934  19.141  0.00  0.00    +0.000 NA
ATOM     21  C   UNL     1       2.526   4.575  18.955  0.00  0.00    +0.000 A 
BRANCH  17  25
ATOM     22  C   UNL     1       6.537   5.216  15.474  0.00  0.00    +0.000 A 
ATOM     23  C   UNL     1       6.107   3.906  15.654  0.00  0.00    +0.000 A 
ATOM     24  C   UNL     1       4.925   3.635  16.349  0.00  0.00    +0.000 A 
ATOM     25  C   UNL     1       4.157   4.674  16.914  0.00  0.00    +0.000 A 
ATOM     26  C   UNL     1       4.611   5.988  16.749  0.00  0.00    +0.000 A 
ATOM     27  C   UNL     1       5.792   6.255  16.029  0.00  0.00    +0.000 A 
BRANCH  22  29
ATOM     28  C   UNL     1       7.651   5.081  13.389  0.00  0.00    +0.000 C 
ATOM     29  O   UNL     1       7.708   5.346  14.785  0.00  0.00    +0.000 OA
ENDBRANCH  22  29
ENDBRANCH  17  25
ENDBRANCH  16  21
ENDBRANCH   1  16
TORSDOF 6
ENDMDL
MODEL 5
REMARK VINA RESULT:      -7.7      2.931      3.735
REMARK  Name = 
REMARK  7 active torsions:
REMARK  status: ('A' for Active; 'I' for Inactive)
REMARK    1  A    between atoms: C_1  and  O_2
REMARK    2  A    between atoms: O_2  and  C_3
REMARK    3  A    between atoms: C_6  and  N_7
REMARK    4  A    between atoms: C_11  and  S_12
REMARK    5  A    between atoms: S_12  and  C_13
REMARK    6  A    between atoms: C_16  and  S_17
REMARK    7  A    between atoms: S_17  and  N_20
REMARK                            x       y       z     vdW  Elec       q    Type
REMARK                         _______ _______ _______ _____ _____    ______ ____
ROOT
ATOM      1  C   UNL     1       1.014   9.470  19.260  0.00  0.00    +0.000 A 
ATOM      2  C   UNL     1       1.748   9.086  18.138  0.00  0.00    +0.000 A 
ATOM      3  C   UNL     1       2.509   7.906  18.185  0.00  0.00    +0.000 A 
ATOM      4  C   UNL     1       2.518   7.139  19.353  0.00  0.00    +0.000 A 
ATOM      5  C   UNL     1       1.766   7.582  20.421  0.00  0.00    +0.000 A 
ATOM      6  N   UNL     1       1.034   8.732  20.400  0.00  0.00    +0.000 NA
ENDROOT
BRANCH   4   7
ATOM      7  S   UNL     1       3.265   5.537  19.434  0.00  0.00    +0.000 S 
ATOM      8  O   UNL     1       4.698   5.747  19.420  0.00  0.00    +0.000 OA
ATOM      9  O   UNL     1       2.632   4.821  20.505  0.00  0.00    +0.000 OA
BRANCH   7  10
ATOM     10  N   UNL     1       2.871   4.729  17.970  0.00  0.00    +0.000 NA
ATOM     11  C   UNL     1       1.464   4.265  17.762  0.00  0.00    +0.000 C 
ATOM     12  C   UNL     1       1.154   2.976  18.534  0.00  0.00    +0.000 C 
ATOM     13  O   UNL     1       2.075   1.921  18.227  0.00  0.00    +0.000 OA
ATOM     14  C   UNL     1       3.445   2.306  18.407  0.00  0.00    +0.000 C 
ATOM     15  C   UNL     1       3.787   3.578  17.617  0.00  0.00    +0.000 C 
ENDBRANCH   7  10
ENDBRANCH   4   7
BRANCH   1  16
ATOM     16  S   UNL     1      -0.193  10.787  19.262  0.00  0.00    +0.000 S 
BRANCH  16  21
ATOM     17  N   UNL     1      -0.260  12.722  21.293  0.00  0.00    +0.000 N 
ATOM     18  N   UNL     1       0.643  13.610  21.804  0.00  0.00    +0.000 NA
ATOM     19  N   UNL     1       1.821  13.308  21.288  0.00  0.00    +0.000 NA
ATOM     20  N   UNL     1       1.721  12.262  20.423  0.00  0.00    +0.000 NA
ATOM     21  C   UNL     1       0.453  11.907  20.409  0.00  0.00    +0.000 A 
BRANCH  17  25
ATOM     22  C   UNL     1      -4.270  12.761  22.745  0.00  0.00    +0.000 A 
ATOM     23  C   UNL     1      -3.234  12.214  23.493  0.00  0.00    +0.000 A 
ATOM     24  C   UNL     1      -1.921  12.236  23.013  0.00  0.00    +0.000 A 
ATOM     25  C   UNL     1      -1.616  12.779  21.748  0.00  0.00    +0.000 A 
ATOM     26  C   UNL     1      -2.670  13.305  20.991  0.00  0.00    +0.000 A 
ATOM     27  C   UNL     1      -3.988  13.299  21.490  0.00  0.00    +0.000 A 
BRANCH  22  29
ATOM     28  C   UNL     1      -6.614  12.651  22.432  0.00  0.00    +0.000 C 
ATOM     29  O   UNL     1      -5.504  12.671  23.321  0.00  0.00    +0.000 OA
ENDBRANCH  22  29
ENDBRANCH  17  25
ENDBRANCH  16  21
ENDBRANCH   1  16
TORSDOF 6
ENDMDL
MODEL 6
REMARK VINA RESULT:      -7.7      2.351      3.102
REMARK  Name = 
REMARK  7 active torsions:
REMARK  status: ('A' for Active; 'I' for Inactive)
REMARK    1  A    between atoms: C_1  and  O_2
REMARK    2  A    between atoms: O_2  and  C_3
REMARK    3  A    between atoms: C_6  and  N_7
REMARK    4  A    between atoms: C_11  and  S_12
REMARK    5  A    between atoms: S_12  and  C_13
REMARK    6  A    between atoms: C_16  and  S_17
REMARK    7  A    between atoms: S_17  and  N_20
REMARK                            x       y       z     vdW  Elec       q    Type
REMARK                         _______ _______ _______ _____ _____    ______ ____
ROOT
ATOM      1  C   UNL     1       1.243   9.729  19.737  0.00  0.00    +0.000 A 
ATOM      2  C   UNL     1       1.074   8.985  20.906  0.00  0.00    +0.000 A 
ATOM      3  C   UNL     1       1.483   7.642  20.931  0.00  0.00    +0.000 A 
ATOM      4  C   UNL     1       2.050   7.073  19.788  0.00  0.00    +0.000 A 
ATOM      5  C   UNL     1       2.186   7.870  18.671  0.00  0.00    +0.000 A 
ATOM      6  N   UNL     1       1.782   9.171  18.621  0.00  0.00    +0.000 NA
ENDROOT
BRANCH   4   7
ATOM      7  S   UNL     1       2.789   5.466  19.791  0.00  0.00    +0.000 S 
ATOM      8  O   UNL     1       4.212   5.663  19.604  0.00  0.00    +0.000 OA
ATOM      9  O   UNL     1       2.285   4.762  20.937  0.00  0.00    +0.000 OA
BRANCH   7  10
ATOM     10  N   UNL     1       2.215   4.650  18.392  0.00  0.00    +0.000 NA
ATOM     11  C   UNL     1       1.291   3.489  18.567  0.00  0.00    +0.000 C 
ATOM     12  C   UNL     1       2.031   2.211  18.983  0.00  0.00    +0.000 C 
ATOM     13  O   UNL     1       3.088   1.871  18.076  0.00  0.00    +0.000 OA
ATOM     14  C   UNL     1       4.010   2.950  17.867  0.00  0.00    +0.000 C 
ATOM     15  C   UNL     1       3.295   4.232  17.418  0.00  0.00    +0.000 C 
ENDBRANCH   7  10
ENDBRANCH   4   7
BRANCH   1  16
ATOM     16  S   UNL     1       1.017  11.498  19.636  0.00  0.00    +0.000 S 
BRANCH  16  21
ATOM     17  N   UNL     1      -1.777  11.707  19.770  0.00  0.00    +0.000 N 
ATOM     18  N   UNL     1      -2.661  12.205  20.686  0.00  0.00    +0.000 NA
ATOM     19  N   UNL     1      -1.975  12.470  21.783  0.00  0.00    +0.000 NA
ATOM     20  N   UNL     1      -0.654  12.191  21.613  0.00  0.00    +0.000 NA
ATOM     21  C   UNL     1      -0.522  11.738  20.383  0.00  0.00    +0.000 A 
BRANCH  17  25
ATOM     22  C   UNL     1      -3.413  10.430  16.044  0.00  0.00    +0.000 A 
ATOM     23  C   UNL     1      -4.060  11.373  16.835  0.00  0.00    +0.000 A 
ATOM     24  C   UNL     1      -3.494  11.801  18.039  0.00  0.00    +0.000 A 
ATOM     25  C   UNL     1      -2.275  11.265  18.502  0.00  0.00    +0.000 A 
ATOM     26  C   UNL     1      -1.644  10.296  17.713  0.00  0.00    +0.000 A 
ATOM     27  C   UNL     1      -2.209   9.886  16.489  0.00  0.00    +0.000 A 
BRANCH  22  29
ATOM     28  C   UNL     1      -3.274   9.964  13.727  0.00  0.00    +0.000 C 
ATOM     29  O   UNL     1      -4.071  10.092  14.898  0.00  0.00    +0.000 OA
ENDBRANCH  22  29
ENDBRANCH  17  25
ENDBRANCH  16  21
ENDBRANCH   1  16
TORSDOF 6
ENDMDL
MODEL 7
REMARK VINA RESULT:      -7.7      2.965      9.228
REMARK  Name = 
REMARK  7 active torsions:
REMARK  status: ('A' for Active; 'I' for Inactive)
REMARK    1  A    between atoms: C_1  and  O_2
REMARK    2  A    between atoms: O_2  and  C_3
REMARK    3  A    between atoms: C_6  and  N_7
REMARK    4  A    between atoms: C_11  and  S_12
REMARK    5  A    between atoms: S_12  and  C_13
REMARK    6  A    between atoms: C_16  and  S_17
REMARK    7  A    between atoms: S_17  and  N_20
REMARK                            x       y       z     vdW  Elec       q    Type
REMARK                         _______ _______ _______ _____ _____    ______ ____
ROOT
ATOM      1  C   UNL     1       2.232   7.138  19.704  0.00  0.00    +0.000 A 
ATOM      2  C   UNL     1       2.302   7.817  18.487  0.00  0.00    +0.000 A 
ATOM      3  C   UNL     1       1.697   9.079  18.368  0.00  0.00    +0.000 A 
ATOM      4  C   UNL     1       1.035   9.631  19.468  0.00  0.00    +0.000 A 
ATOM      5  C   UNL     1       1.009   8.901  20.637  0.00  0.00    +0.000 A 
ATOM      6  N   UNL     1       1.577   7.669  20.768  0.00  0.00    +0.000 NA
ENDROOT
BRANCH   4   7
ATOM      7  S   UNL     1       0.435  11.295  19.480  0.00  0.00    +0.000 S 
ATOM      8  O   UNL     1       1.269  12.043  18.562  0.00  0.00    +0.000 OA
ATOM      9  O   UNL     1      -0.989  11.241  19.308  0.00  0.00    +0.000 OA
BRANCH   7  10
ATOM     10  N   UNL     1       0.741  11.924  21.049  0.00  0.00    +0.000 NA
ATOM     11  C   UNL     1      -0.376  11.950  22.042  0.00  0.00    +0.000 C 
ATOM     12  C   UNL     1      -1.354  13.105  21.792  0.00  0.00    +0.000 C 
ATOM     13  O   UNL     1      -0.696  14.379  21.752  0.00  0.00    +0.000 OA
ATOM     14  C   UNL     1       0.389  14.416  20.815  0.00  0.00    +0.000 C 
ATOM     15  C   UNL     1       1.399  13.286  21.067  0.00  0.00    +0.000 C 
ENDBRANCH   7  10
ENDBRANCH   4   7
BRANCH   1  16
ATOM     16  S   UNL     1       3.167   5.662  20.080  0.00  0.00    +0.000 S 
BRANCH  16  21
ATOM     17  N   UNL     1       2.993   4.261  17.656  0.00  0.00    +0.000 N 
ATOM     18  N   UNL     1       2.048   3.468  17.070  0.00  0.00    +0.000 NA
ATOM     19  N   UNL     1       1.123   3.227  17.982  0.00  0.00    +0.000 NA
ATOM     20  N   UNL     1       1.412   3.862  19.150  0.00  0.00    +0.000 NA
ATOM     21  C   UNL     1       2.543   4.508  18.956  0.00  0.00    +0.000 A 
BRANCH  17  25
ATOM     22  C   UNL     1       6.525   5.174  15.447  0.00  0.00    +0.000 A 
ATOM     23  C   UNL     1       6.119   3.860  15.655  0.00  0.00    +0.000 A 
ATOM     24  C   UNL     1       4.943   3.581  16.356  0.00  0.00    +0.000 A 
ATOM     25  C   UNL     1       4.157   4.617  16.902  0.00  0.00    +0.000 A 
ATOM     26  C   UNL     1       4.588   5.935  16.711  0.00  0.00    +0.000 A 
ATOM     27  C   UNL     1       5.763   6.210  15.983  0.00  0.00    +0.000 A 
BRANCH  22  29
ATOM     28  C   UNL     1       7.619   5.109  13.348  0.00  0.00    +0.000 C 
ATOM     29  O   UNL     1       7.693   5.311  14.754  0.00  0.00    +0.000 OA
ENDBRANCH  22  29
ENDBRANCH  17  25
ENDBRANCH  16  21
ENDBRANCH   1  16
TORSDOF 6
ENDMDL
MODEL 8
REMARK VINA RESULT:      -7.6      1.046      1.211
REMARK  Name = 
REMARK  7 active torsions:
REMARK  status: ('A' for Active; 'I' for Inactive)
REMARK    1  A    between atoms: C_1  and  O_2
REMARK    2  A    between atoms: O_2  and  C_3
REMARK    3  A    between atoms: C_6  and  N_7
REMARK    4  A    between atoms: C_11  and  S_12
REMARK    5  A    between atoms: S_12  and  C_13
REMARK    6  A    between atoms: C_16  and  S_17
REMARK    7  A    between atoms: S_17  and  N_20
REMARK                            x       y       z     vdW  Elec       q    Type
REMARK                         _______ _______ _______ _____ _____    ______ ____
ROOT
ATOM      1  C   UNL     1       1.281   8.739  19.643  0.00  0.00    +0.000 A 
ATOM      2  C   UNL     1       1.723   8.870  18.325  0.00  0.00    +0.000 A 
ATOM      3  C   UNL     1       2.618   7.921  17.804  0.00  0.00    +0.000 A 
ATOM      4  C   UNL     1       3.050   6.865  18.610  0.00  0.00    +0.000 A 
ATOM      5  C   UNL     1       2.569   6.802  19.901  0.00  0.00    +0.000 A 
ATOM      6  N   UNL     1       1.713   7.721  20.432  0.00  0.00    +0.000 NA
ENDROOT
BRANCH   4   7
ATOM      7  S   UNL     1       3.998   5.512  17.979  0.00  0.00    +0.000 S 
ATOM      8  O   UNL     1       4.816   5.032  19.074  0.00  0.00    +0.000 OA
ATOM      9  O   UNL     1       3.091   4.634  17.294  0.00  0.00    +0.000 OA
BRANCH   7  10
ATOM     10  N   UNL     1       5.073   6.159  16.806  0.00  0.00    +0.000 NA
ATOM     11  C   UNL     1       5.371   5.353  15.583  0.00  0.00    +0.000 C 
ATOM     12  C   UNL     1       6.378   4.228  15.856  0.00  0.00    +0.000 C 
ATOM     13  O   UNL     1       7.595   4.714  16.438  0.00  0.00    +0.000 OA
ATOM     14  C   UNL     1       7.373   5.498  17.619  0.00  0.00    +0.000 C 
ATOM     15  C   UNL     1       6.392   6.651  17.361  0.00  0.00    +0.000 C 
ENDBRANCH   7  10
ENDBRANCH   4   7
BRANCH   1  16
ATOM     16  S   UNL     1      -0.043   9.706  20.353  0.00  0.00    +0.000 S 
BRANCH  16  21
ATOM     17  N   UNL     1      -0.640  11.959  18.793  0.00  0.00    +0.000 N 
ATOM     18  N   UNL     1       0.080  13.020  18.321  0.00  0.00    +0.000 NA
ATOM     19  N   UNL     1       1.259  12.984  18.915  0.00  0.00    +0.000 NA
ATOM     20  N   UNL     1       1.355  11.911  19.747  0.00  0.00    +0.000 NA
ATOM     21  C   UNL     1       0.206  11.272  19.668  0.00  0.00    +0.000 A 
BRANCH  17  25
ATOM     22  C   UNL     1      -4.725  11.473  17.668  0.00  0.00    +0.000 A 
ATOM     23  C   UNL     1      -4.372  11.962  18.921  0.00  0.00    +0.000 A 
ATOM     24  C   UNL     1      -3.028  12.143  19.261  0.00  0.00    +0.000 A 
ATOM     25  C   UNL     1      -1.996  11.801  18.362  0.00  0.00    +0.000 A 
ATOM     26  C   UNL     1      -2.361  11.285  17.113  0.00  0.00    +0.000 A 
ATOM     27  C   UNL     1      -3.718  11.127  16.768  0.00  0.00    +0.000 A 
BRANCH  22  29
ATOM     28  C   UNL     1      -6.894  11.429  18.616  0.00  0.00    +0.000 C 
ATOM     29  O   UNL     1      -6.068  11.338  17.462  0.00  0.00    +0.000 OA
ENDBRANCH  22  29
ENDBRANCH  17  25
ENDBRANCH  16  21
ENDBRANCH   1  16
TORSDOF 6
ENDMDL
MODEL 9
REMARK VINA RESULT:      -7.6      3.016      9.016
REMARK  Name = 
REMARK  7 active torsions:
REMARK  status: ('A' for Active; 'I' for Inactive)
REMARK    1  A    between atoms: C_1  and  O_2
REMARK    2  A    between atoms: O_2  and  C_3
REMARK    3  A    between atoms: C_6  and  N_7
REMARK    4  A    between atoms: C_11  and  S_12
REMARK    5  A    between atoms: S_12  and  C_13
REMARK    6  A    between atoms: C_16  and  S_17
REMARK    7  A    between atoms: S_17  and  N_20
REMARK                            x       y       z     vdW  Elec       q    Type
REMARK                         _______ _______ _______ _____ _____    ______ ____
ROOT
ATOM      1  C   UNL     1       1.968   6.221  19.036  0.00  0.00    +0.000 A 
ATOM      2  C   UNL     1       1.657   6.412  20.383  0.00  0.00    +0.000 A 
ATOM      3  C   UNL     1       1.424   7.714  20.856  0.00  0.00    +0.000 A 
ATOM      4  C   UNL     1       1.510   8.794  19.974  0.00  0.00    +0.000 A 
ATOM      5  C   UNL     1       1.822   8.526  18.657  0.00  0.00    +0.000 A 
ATOM      6  N   UNL     1       2.066   7.272  18.181  0.00  0.00    +0.000 NA
ENDROOT
BRANCH   4   7
ATOM      7  S   UNL     1       1.025  10.434  20.425  0.00  0.00    +0.000 S 
ATOM      8  O   UNL     1       1.335  10.585  21.832  0.00  0.00    +0.000 OA
ATOM      9  O   UNL     1       1.573  11.330  19.446  0.00  0.00    +0.000 OA
BRANCH   7  10
ATOM     10  N   UNL     1      -0.686  10.503  20.287  0.00  0.00    +0.000 NA
ATOM     11  C   UNL     1      -1.293  10.601  18.923  0.00  0.00    +0.000 C 
ATOM     12  C   UNL     1      -1.209  12.021  18.347  0.00  0.00    +0.000 C 
ATOM     13  O   UNL     1      -1.788  13.000  19.220  0.00  0.00    +0.000 OA
ATOM     14  C   UNL     1      -1.246  12.954  20.547  0.00  0.00    +0.000 C 
ATOM     15  C   UNL     1      -1.349  11.549  21.157  0.00  0.00    +0.000 C 
ENDBRANCH   7  10
ENDBRANCH   4   7
BRANCH   1  16
ATOM     16  S   UNL     1       2.030   4.622  18.242  0.00  0.00    +0.000 S 
BRANCH  16  21
ATOM     17  N   UNL     1       4.654   4.009  19.024  0.00  0.00    +0.000 N 
ATOM     18  N   UNL     1       5.241   2.969  19.687  0.00  0.00    +0.000 NA
ATOM     19  N   UNL     1       4.268   2.221  20.175  0.00  0.00    +0.000 NA
ATOM     20  N   UNL     1       3.049   2.718  19.829  0.00  0.00    +0.000 NA
ATOM     21  C   UNL     1       3.275   3.801  19.114  0.00  0.00    +0.000 A 
BRANCH  17  25
ATOM     22  C   UNL     1       7.208   7.053  17.476  0.00  0.00    +0.000 A 
ATOM     23  C   UNL     1       7.536   6.349  18.629  0.00  0.00    +0.000 A 
ATOM     24  C   UNL     1       6.701   5.334  19.105  0.00  0.00    +0.000 A 
ATOM     25  C   UNL     1       5.490   5.022  18.453  0.00  0.00    +0.000 A 
ATOM     26  C   UNL     1       5.155   5.754  17.308  0.00  0.00    +0.000 A 
ATOM     27  C   UNL     1       6.013   6.760  16.821  0.00  0.00    +0.000 A 
BRANCH  22  29
ATOM     28  C   UNL     1       8.143   9.177  17.949  0.00  0.00    +0.000 C 
ATOM     29  O   UNL     1       8.102   8.022  17.121  0.00  0.00    +0.000 OA
ENDBRANCH  22  29
ENDBRANCH  17  25
ENDBRANCH  16  21
ENDBRANCH   1  16
TORSDOF 6
ENDMDL
