MODEL 1
REMARK VINA RESULT:      -7.5      0.000      0.000
REMARK  Name = 
REMARK  3 active torsions:
REMARK  status: ('A' for Active; 'I' for Inactive)
REMARK    1  A    between atoms: C_2  and  C_15
REMARK    2  A    between atoms: N_3  and  C_4
REMARK    3  A    between atoms: C_6  and  C_7
REMARK                            x       y       z     vdW  Elec       q    Type
REMARK                         _______ _______ _______ _____ _____    ______ ____
ROOT
ATOM      1  C   UNL     1       5.308   4.266  17.690  0.00  0.00    +0.000 A 
ATOM      2  C   UNL     1       5.225   4.134  16.324  0.00  0.00    +0.000 A 
ATOM      3  C   UNL     1       6.483   4.454  15.695  0.00  0.00    +0.000 A 
ATOM      4  N   UNL     1       7.453   4.794  16.559  0.00  0.00    +0.000 NA
ATOM      5  S   UNL     1       6.855   4.812  18.102  0.00  0.00    +0.000 S 
ENDROOT
BRANCH   3   6
ATOM      6  C   UNL     1       6.737   4.464  14.245  0.00  0.00    +0.000 A 
ATOM      7  C   UNL     1       6.084   3.550  13.398  0.00  0.00    +0.000 A 
ATOM      8  C   UNL     1       6.357   3.508  12.035  0.00  0.00    +0.000 A 
ATOM      9  C   UNL     1       7.282   4.388  11.481  0.00  0.00    +0.000 A 
ATOM     10  C   UNL     1       7.928   5.318  12.293  0.00  0.00    +0.000 A 
ATOM     11  C   UNL     1       7.654   5.357  13.670  0.00  0.00    +0.000 A 
ENDBRANCH   3   6
BRANCH   1  14
ATOM     12  O   UNL     1       3.678   2.019  17.860  0.00  0.00    +0.000 OA
ATOM     13  C   UNL     1       3.613   2.910  18.702  0.00  0.00    +0.000 C 
ATOM     14  N   UNL     1       4.411   4.040  18.702  0.00  0.00    +0.000 N 
ATOM     15  H   UNL     1       4.491   4.571  19.565  0.00  0.00    +0.000 HD
BRANCH  13  16
ATOM     16  C   UNL     1       2.721   2.826  19.839  0.00  0.00    +0.000 A 
ATOM     17  C   UNL     1       1.349   2.954  19.917  0.00  0.00    +0.000 A 
ATOM     18  C   UNL     1       1.008   2.876  21.286  0.00  0.00    +0.000 A 
ATOM     19  C   UNL     1       2.192   2.696  21.964  0.00  0.00    +0.000 A 
ATOM     20  O   UNL     1       3.236   2.633  21.097  0.00  0.00    +0.000 OA
ENDBRANCH  13  16
ENDBRANCH   1  14
TORSDOF 3
ENDMDL
MODEL 2
REMARK VINA RESULT:      -7.4      0.639      1.405
REMARK  Name = 
REMARK  3 active torsions:
REMARK  status: ('A' for Active; 'I' for Inactive)
REMARK    1  A    between atoms: C_2  and  C_15
REMARK    2  A    between atoms: N_3  and  C_4
REMARK    3  A    between atoms: C_6  and  C_7
REMARK                            x       y       z     vdW  Elec       q    Type
REMARK                         _______ _______ _______ _____ _____    ______ ____
ROOT
ATOM      1  C   UNL     1       5.288   4.361  17.675  0.00  0.00    +0.000 A 
ATOM      2  C   UNL     1       5.224   4.207  16.309  0.00  0.00    +0.000 A 
ATOM      3  C   UNL     1       6.505   4.463  15.698  0.00  0.00    +0.000 A 
ATOM      4  N   UNL     1       7.473   4.778  16.574  0.00  0.00    +0.000 NA
ATOM      5  S   UNL     1       6.850   4.849  18.105  0.00  0.00    +0.000 S 
ENDROOT
BRANCH   3   6
ATOM      6  C   UNL     1       6.785   4.435  14.253  0.00  0.00    +0.000 A 
ATOM      7  C   UNL     1       7.689   5.349  13.682  0.00  0.00    +0.000 A 
ATOM      8  C   UNL     1       7.920   5.373  12.311  0.00  0.00    +0.000 A 
ATOM      9  C   UNL     1       7.261   4.475  11.476  0.00  0.00    +0.000 A 
ATOM     10  C   UNL     1       6.376   3.545  12.017  0.00  0.00    +0.000 A 
ATOM     11  C   UNL     1       6.142   3.523  13.402  0.00  0.00    +0.000 A 
ENDBRANCH   3   6
BRANCH   1  14
ATOM     12  O   UNL     1       3.918   1.988  18.149  0.00  0.00    +0.000 OA
ATOM     13  C   UNL     1       3.702   2.987  18.829  0.00  0.00    +0.000 C 
ATOM     14  N   UNL     1       4.365   4.192  18.673  0.00  0.00    +0.000 N 
ATOM     15  H   UNL     1       4.333   4.859  19.439  0.00  0.00    +0.000 HD
BRANCH  13  16
ATOM     16  C   UNL     1       2.761   2.977  19.927  0.00  0.00    +0.000 A 
ATOM     17  C   UNL     1       2.910   2.564  21.236  0.00  0.00    +0.000 A 
ATOM     18  C   UNL     1       1.645   2.686  21.851  0.00  0.00    +0.000 A 
ATOM     19  C   UNL     1       0.796   3.175  20.885  0.00  0.00    +0.000 A 
ATOM     20  O   UNL     1       1.466   3.385  19.721  0.00  0.00    +0.000 OA
ENDBRANCH  13  16
ENDBRANCH   1  14
TORSDOF 3
ENDMDL
MODEL 3
REMARK VINA RESULT:      -7.3      0.754      1.338
REMARK  Name = 
REMARK  3 active torsions:
REMARK  status: ('A' for Active; 'I' for Inactive)
REMARK    1  A    between atoms: C_2  and  C_15
REMARK    2  A    between atoms: N_3  and  C_4
REMARK    3  A    between atoms: C_6  and  C_7
REMARK                            x       y       z     vdW  Elec       q    Type
REMARK                         _______ _______ _______ _____ _____    ______ ____
ROOT
ATOM      1  C   UNL     1       5.473   4.043  17.665  0.00  0.00    +0.000 A 
ATOM      2  C   UNL     1       5.455   3.815  16.309  0.00  0.00    +0.000 A 
ATOM      3  C   UNL     1       6.576   4.451  15.662  0.00  0.00    +0.000 A 
ATOM      4  N   UNL     1       7.391   5.106  16.503  0.00  0.00    +0.000 NA
ATOM      5  S   UNL     1       6.789   5.037  18.043  0.00  0.00    +0.000 S 
ENDROOT
BRANCH   3   6
ATOM      6  C   UNL     1       6.840   4.453  14.213  0.00  0.00    +0.000 A 
ATOM      7  C   UNL     1       7.723   5.391  13.648  0.00  0.00    +0.000 A 
ATOM      8  C   UNL     1       7.937   5.443  12.275  0.00  0.00    +0.000 A 
ATOM      9  C   UNL     1       7.284   4.548  11.432  0.00  0.00    +0.000 A 
ATOM     10  C   UNL     1       6.421   3.593  11.967  0.00  0.00    +0.000 A 
ATOM     11  C   UNL     1       6.203   3.544  13.354  0.00  0.00    +0.000 A 
ENDBRANCH   3   6
BRANCH   1  14
ATOM     12  O   UNL     1       2.756   4.610  17.843  0.00  0.00    +0.000 OA
ATOM     13  C   UNL     1       3.326   3.971  18.723  0.00  0.00    +0.000 C 
ATOM     14  N   UNL     1       4.665   3.624  18.689  0.00  0.00    +0.000 N 
ATOM     15  H   UNL     1       4.980   2.873  19.296  0.00  0.00    +0.000 HD
BRANCH  13  16
ATOM     16  C   UNL     1       2.616   3.450  19.871  0.00  0.00    +0.000 A 
ATOM     17  C   UNL     1       1.305   3.615  20.269  0.00  0.00    +0.000 A 
ATOM     18  C   UNL     1       1.170   2.964  21.515  0.00  0.00    +0.000 A 
ATOM     19  C   UNL     1       2.406   2.431  21.803  0.00  0.00    +0.000 A 
ATOM     20  O   UNL     1       3.285   2.692  20.800  0.00  0.00    +0.000 OA
ENDBRANCH  13  16
ENDBRANCH   1  14
TORSDOF 3
ENDMDL
MODEL 4
REMARK VINA RESULT:      -7.3      1.165      1.606
REMARK  Name = 
REMARK  3 active torsions:
REMARK  status: ('A' for Active; 'I' for Inactive)
REMARK    1  A    between atoms: C_2  and  C_15
REMARK    2  A    between atoms: N_3  and  C_4
REMARK    3  A    between atoms: C_6  and  C_7
REMARK                            x       y       z     vdW  Elec       q    Type
REMARK                         _______ _______ _______ _____ _____    ______ ____
ROOT
ATOM      1  C   UNL     1       4.533   4.673  17.373  0.00  0.00    +0.000 A 
ATOM      2  C   UNL     1       5.087   4.033  16.289  0.00  0.00    +0.000 A 
ATOM      3  C   UNL     1       5.620   4.983  15.343  0.00  0.00    +0.000 A 
ATOM      4  N   UNL     1       5.477   6.264  15.718  0.00  0.00    +0.000 NA
ATOM      5  S   UNL     1       4.646   6.346  17.146  0.00  0.00    +0.000 S 
ENDROOT
BRANCH   3   6
ATOM      6  C   UNL     1       6.240   4.648  14.050  0.00  0.00    +0.000 A 
ATOM      7  C   UNL     1       7.350   5.373  13.579  0.00  0.00    +0.000 A 
ATOM      8  C   UNL     1       7.909   5.107  12.335  0.00  0.00    +0.000 A 
ATOM      9  C   UNL     1       7.382   4.099  11.533  0.00  0.00    +0.000 A 
ATOM     10  C   UNL     1       6.296   3.350  11.983  0.00  0.00    +0.000 A 
ATOM     11  C   UNL     1       5.729   3.622  13.240  0.00  0.00    +0.000 A 
ENDBRANCH   3   6
BRANCH   1  14
ATOM     12  O   UNL     1       2.031   3.464  17.490  0.00  0.00    +0.000 OA
ATOM     13  C   UNL     1       2.690   3.649  18.509  0.00  0.00    +0.000 C 
ATOM     14  N   UNL     1       3.953   4.215  18.526  0.00  0.00    +0.000 N 
ATOM     15  H   UNL     1       4.530   4.073  19.351  0.00  0.00    +0.000 HD
BRANCH  13  16
ATOM     16  C   UNL     1       2.225   3.220  19.810  0.00  0.00    +0.000 A 
ATOM     17  C   UNL     1       0.980   3.319  20.397  0.00  0.00    +0.000 A 
ATOM     18  C   UNL     1       1.107   2.825  21.714  0.00  0.00    +0.000 A 
ATOM     19  C   UNL     1       2.423   2.444  21.853  0.00  0.00    +0.000 A 
ATOM     20  O   UNL     1       3.105   2.650  20.695  0.00  0.00    +0.000 OA
ENDBRANCH  13  16
ENDBRANCH   1  14
TORSDOF 3
ENDMDL
MODEL 5
REMARK VINA RESULT:      -7.3      1.194      1.194
REMARK  Name = 
REMARK  3 active torsions:
REMARK  status: ('A' for Active; 'I' for Inactive)
REMARK    1  A    between atoms: C_2  and  C_15
REMARK    2  A    between atoms: N_3  and  C_4
REMARK    3  A    between atoms: C_6  and  C_7
REMARK                            x       y       z     vdW  Elec       q    Type
REMARK                         _______ _______ _______ _____ _____    ______ ____
ROOT
ATOM      1  C   UNL     1       4.511   4.683  17.339  0.00  0.00    +0.000 A 
ATOM      2  C   UNL     1       5.030   4.044  16.237  0.00  0.00    +0.000 A 
ATOM      3  C   UNL     1       5.569   4.993  15.294  0.00  0.00    +0.000 A 
ATOM      4  N   UNL     1       5.464   6.272  15.688  0.00  0.00    +0.000 NA
ATOM      5  S   UNL     1       4.660   6.355  17.131  0.00  0.00    +0.000 S 
ENDROOT
BRANCH   3   6
ATOM      6  C   UNL     1       6.158   4.659  13.986  0.00  0.00    +0.000 A 
ATOM      7  C   UNL     1       5.609   3.634  13.195  0.00  0.00    +0.000 A 
ATOM      8  C   UNL     1       6.189   3.269  11.985  0.00  0.00    +0.000 A 
ATOM      9  C   UNL     1       7.327   3.928  11.529  0.00  0.00    +0.000 A 
ATOM     10  C   UNL     1       7.880   4.962  12.282  0.00  0.00    +0.000 A 
ATOM     11  C   UNL     1       7.294   5.328  13.506  0.00  0.00    +0.000 A 
ENDBRANCH   3   6
BRANCH   1  14
ATOM     12  O   UNL     1       1.991   3.512  17.480  0.00  0.00    +0.000 OA
ATOM     13  C   UNL     1       2.668   3.679  18.492  0.00  0.00    +0.000 C 
ATOM     14  N   UNL     1       3.939   4.223  18.496  0.00  0.00    +0.000 N 
ATOM     15  H   UNL     1       4.526   4.066  19.312  0.00  0.00    +0.000 HD
BRANCH  13  16
ATOM     16  C   UNL     1       2.213   3.246  19.796  0.00  0.00    +0.000 A 
ATOM     17  C   UNL     1       0.963   3.303  20.377  0.00  0.00    +0.000 A 
ATOM     18  C   UNL     1       1.104   2.827  21.700  0.00  0.00    +0.000 A 
ATOM     19  C   UNL     1       2.432   2.499  21.847  0.00  0.00    +0.000 A 
ATOM     20  O   UNL     1       3.111   2.718  20.690  0.00  0.00    +0.000 OA
ENDBRANCH  13  16
ENDBRANCH   1  14
TORSDOF 3
ENDMDL
MODEL 6
REMARK VINA RESULT:      -7.1      1.033      1.189
REMARK  Name = 
REMARK  3 active torsions:
REMARK  status: ('A' for Active; 'I' for Inactive)
REMARK    1  A    between atoms: C_2  and  C_15
REMARK    2  A    between atoms: N_3  and  C_4
REMARK    3  A    between atoms: C_6  and  C_7
REMARK                            x       y       z     vdW  Elec       q    Type
REMARK                         _______ _______ _______ _____ _____    ______ ____
ROOT
ATOM      1  C   UNL     1       5.474   3.971  17.655  0.00  0.00    +0.000 A 
ATOM      2  C   UNL     1       5.414   3.826  16.288  0.00  0.00    +0.000 A 
ATOM      3  C   UNL     1       6.569   4.413  15.654  0.00  0.00    +0.000 A 
ATOM      4  N   UNL     1       7.447   4.954  16.513  0.00  0.00    +0.000 NA
ATOM      5  S   UNL     1       6.868   4.839  18.060  0.00  0.00    +0.000 S 
ENDROOT
BRANCH   3   6
ATOM      6  C   UNL     1       6.806   4.481  14.202  0.00  0.00    +0.000 A 
ATOM      7  C   UNL     1       6.158   3.587  13.329  0.00  0.00    +0.000 A 
ATOM      8  C   UNL     1       6.417   3.600  11.963  0.00  0.00    +0.000 A 
ATOM      9  C   UNL     1       7.320   4.516  11.432  0.00  0.00    +0.000 A 
ATOM     10  C   UNL     1       7.960   5.427  12.271  0.00  0.00    +0.000 A 
ATOM     11  C   UNL     1       7.701   5.411  13.651  0.00  0.00    +0.000 A 
ENDBRANCH   3   6
BRANCH   1  14
ATOM     12  O   UNL     1       2.946   5.020  18.153  0.00  0.00    +0.000 OA
ATOM     13  C   UNL     1       3.419   4.146  18.873  0.00  0.00    +0.000 C 
ATOM     14  N   UNL     1       4.654   3.554  18.670  0.00  0.00    +0.000 N 
ATOM     15  H   UNL     1       4.841   2.666  19.127  0.00  0.00    +0.000 HD
BRANCH  13  16
ATOM     16  C   UNL     1       2.682   3.590  19.988  0.00  0.00    +0.000 A 
ATOM     17  C   UNL     1       3.120   2.905  21.103  0.00  0.00    +0.000 A 
ATOM     18  C   UNL     1       1.968   2.510  21.819  0.00  0.00    +0.000 A 
ATOM     19  C   UNL     1       0.893   2.984  21.104  0.00  0.00    +0.000 A 
ATOM     20  O   UNL     1       1.312   3.668  20.006  0.00  0.00    +0.000 OA
ENDBRANCH  13  16
ENDBRANCH   1  14
TORSDOF 3
ENDMDL
MODEL 7
REMARK VINA RESULT:      -7.0      4.638      7.363
REMARK  Name = 
REMARK  3 active torsions:
REMARK  status: ('A' for Active; 'I' for Inactive)
REMARK    1  A    between atoms: C_2  and  C_15
REMARK    2  A    between atoms: N_3  and  C_4
REMARK    3  A    between atoms: C_6  and  C_7
REMARK                            x       y       z     vdW  Elec       q    Type
REMARK                         _______ _______ _______ _____ _____    ______ ____
ROOT
ATOM      1  C   UNL     1       6.164   6.738  17.097  0.00  0.00    +0.000 A 
ATOM      2  C   UNL     1       5.058   6.187  17.699  0.00  0.00    +0.000 A 
ATOM      3  C   UNL     1       4.778   4.875  17.167  0.00  0.00    +0.000 A 
ATOM      4  N   UNL     1       5.647   4.472  16.226  0.00  0.00    +0.000 NA
ATOM      5  S   UNL     1       6.742   5.674  15.915  0.00  0.00    +0.000 S 
ENDROOT
BRANCH   3   6
ATOM      6  C   UNL     1       3.641   4.021  17.550  0.00  0.00    +0.000 A 
ATOM      7  C   UNL     1       2.359   4.572  17.722  0.00  0.00    +0.000 A 
ATOM      8  C   UNL     1       1.288   3.790  18.140  0.00  0.00    +0.000 A 
ATOM      9  C   UNL     1       1.469   2.432  18.383  0.00  0.00    +0.000 A 
ATOM     10  C   UNL     1       2.725   1.854  18.200  0.00  0.00    +0.000 A 
ATOM     11  C   UNL     1       3.806   2.647  17.781  0.00  0.00    +0.000 A 
ENDBRANCH   3   6
BRANCH   1  14
ATOM     12  O   UNL     1       8.321   7.053  18.824  0.00  0.00    +0.000 OA
ATOM     13  C   UNL     1       7.880   8.005  18.186  0.00  0.00    +0.000 C 
ATOM     14  N   UNL     1       6.833   7.919  17.285  0.00  0.00    +0.000 N 
ATOM     15  H   UNL     1       6.722   8.668  16.607  0.00  0.00    +0.000 HD
BRANCH  13  16
ATOM     16  C   UNL     1       8.475   9.322  18.266  0.00  0.00    +0.000 A 
ATOM     17  C   UNL     1       9.444   9.821  19.113  0.00  0.00    +0.000 A 
ATOM     18  C   UNL     1       9.580  11.195  18.815  0.00  0.00    +0.000 A 
ATOM     19  C   UNL     1       8.691  11.454  17.797  0.00  0.00    +0.000 A 
ATOM     20  O   UNL     1       8.036  10.320  17.433  0.00  0.00    +0.000 OA
ENDBRANCH  13  16
ENDBRANCH   1  14
TORSDOF 3
ENDMDL
MODEL 8
REMARK VINA RESULT:      -7.0      0.727      1.323
REMARK  Name = 
REMARK  3 active torsions:
REMARK  status: ('A' for Active; 'I' for Inactive)
REMARK    1  A    between atoms: C_2  and  C_15
REMARK    2  A    between atoms: N_3  and  C_4
REMARK    3  A    between atoms: C_6  and  C_7
REMARK                            x       y       z     vdW  Elec       q    Type
REMARK                         _______ _______ _______ _____ _____    ______ ____
ROOT
ATOM      1  C   UNL     1       4.729   4.500  17.552  0.00  0.00    +0.000 A 
ATOM      2  C   UNL     1       4.898   4.148  16.233  0.00  0.00    +0.000 A 
ATOM      3  C   UNL     1       6.112   4.712  15.698  0.00  0.00    +0.000 A 
ATOM      4  N   UNL     1       6.814   5.436  16.584  0.00  0.00    +0.000 NA
ATOM      5  S   UNL     1       5.998   5.514  18.022  0.00  0.00    +0.000 S 
ENDROOT
BRANCH   3   6
ATOM      6  C   UNL     1       6.579   4.577  14.307  0.00  0.00    +0.000 A 
ATOM      7  C   UNL     1       7.582   5.424  13.804  0.00  0.00    +0.000 A 
ATOM      8  C   UNL     1       7.992   5.348  12.478  0.00  0.00    +0.000 A 
ATOM      9  C   UNL     1       7.417   4.413  11.622  0.00  0.00    +0.000 A 
ATOM     10  C   UNL     1       6.435   3.546  12.100  0.00  0.00    +0.000 A 
ATOM     11  C   UNL     1       6.020   3.626  13.439  0.00  0.00    +0.000 A 
ENDBRANCH   3   6
BRANCH   1  14
ATOM     12  O   UNL     1       5.052   2.567  19.525  0.00  0.00    +0.000 OA
ATOM     13  C   UNL     1       3.999   3.188  19.417  0.00  0.00    +0.000 C 
ATOM     14  N   UNL     1       3.775   4.184  18.484  0.00  0.00    +0.000 N 
ATOM     15  H   UNL     1       3.003   4.826  18.643  0.00  0.00    +0.000 HD
BRANCH  13  16
ATOM     16  C   UNL     1       2.891   2.978  20.325  0.00  0.00    +0.000 A 
ATOM     17  C   UNL     1       1.539   3.205  20.161  0.00  0.00    +0.000 A 
ATOM     18  C   UNL     1       0.922   2.915  21.398  0.00  0.00    +0.000 A 
ATOM     19  C   UNL     1       1.932   2.519  22.244  0.00  0.00    +0.000 A 
ATOM     20  O   UNL     1       3.128   2.523  21.598  0.00  0.00    +0.000 OA
ENDBRANCH  13  16
ENDBRANCH   1  14
TORSDOF 3
ENDMDL
MODEL 9
REMARK VINA RESULT:      -7.0      1.260      1.397
REMARK  Name = 
REMARK  3 active torsions:
REMARK  status: ('A' for Active; 'I' for Inactive)
REMARK    1  A    between atoms: C_2  and  C_15
REMARK    2  A    between atoms: N_3  and  C_4
REMARK    3  A    between atoms: C_6  and  C_7
REMARK                            x       y       z     vdW  Elec       q    Type
REMARK                         _______ _______ _______ _____ _____    ______ ____
ROOT
ATOM      1  C   UNL     1       4.303   4.812  17.301  0.00  0.00    +0.000 A 
ATOM      2  C   UNL     1       4.723   4.220  16.133  0.00  0.00    +0.000 A 
ATOM      3  C   UNL     1       5.669   5.058  15.438  0.00  0.00    +0.000 A 
ATOM      4  N   UNL     1       5.944   6.209  16.071  0.00  0.00    +0.000 NA
ATOM      5  S   UNL     1       5.027   6.334  17.443  0.00  0.00    +0.000 S 
ENDROOT
BRANCH   3   6
ATOM      6  C   UNL     1       6.284   4.756  14.134  0.00  0.00    +0.000 A 
ATOM      7  C   UNL     1       5.766   3.734  13.319  0.00  0.00    +0.000 A 
ATOM      8  C   UNL     1       6.371   3.398  12.113  0.00  0.00    +0.000 A 
ATOM      9  C   UNL     1       7.502   4.085  11.684  0.00  0.00    +0.000 A 
ATOM     10  C   UNL     1       8.025   5.117  12.462  0.00  0.00    +0.000 A 
ATOM     11  C   UNL     1       7.414   5.453  13.682  0.00  0.00    +0.000 A 
ENDBRANCH   3   6
BRANCH   1  14
ATOM     12  O   UNL     1       5.106   3.308  19.499  0.00  0.00    +0.000 OA
ATOM     13  C   UNL     1       3.930   3.629  19.350  0.00  0.00    +0.000 C 
ATOM     14  N   UNL     1       3.461   4.401  18.301  0.00  0.00    +0.000 N 
ATOM     15  H   UNL     1       2.554   4.848  18.403  0.00  0.00    +0.000 HD
BRANCH  13  16
ATOM     16  C   UNL     1       2.913   3.279  20.317  0.00  0.00    +0.000 A 
ATOM     17  C   UNL     1       2.991   2.527  21.472  0.00  0.00    +0.000 A 
ATOM     18  C   UNL     1       1.678   2.425  21.984  0.00  0.00    +0.000 A 
ATOM     19  C   UNL     1       0.874   3.127  21.115  0.00  0.00    +0.000 A 
ATOM     20  O   UNL     1       1.614   3.676  20.116  0.00  0.00    +0.000 OA
ENDBRANCH  13  16
ENDBRANCH   1  14
TORSDOF 3
ENDMDL
