MODEL 1
REMARK VINA RESULT:      -8.0      0.000      0.000
REMARK  Name = 
REMARK  11 active torsions:
REMARK  status: ('A' for Active; 'I' for Inactive)
REMARK    1  A    between atoms: C_1  and  C_2
REMARK    2  A    between atoms: C_2  and  C_3
REMARK    3  A    between atoms: C_2  and  C_4
REMARK    4  A    between atoms: C_7  and  C_8
REMARK    5  A    between atoms: C_11  and  C_12
REMARK    6  A    between atoms: C_12  and  C_13
REMARK    7  A    between atoms: C_12  and  N_14
REMARK    8  A    between atoms: C_19  and  N_20
REMARK    9  A    between atoms: C_25  and  C_26
REMARK   10  A    between atoms: C_26  and  C_27
REMARK   11  A    between atoms: C_26  and  O_28
REMARK                            x       y       z     vdW  Elec       q    Type
REMARK                         _______ _______ _______ _____ _____    ______ ____
ROOT
ATOM      1  N   UNL     1      -0.334  12.114  17.937  0.00  0.00    +0.000 N 
ATOM      2  C   UNL     1      -1.525  12.258  18.630  0.00  0.00    +0.000 A 
ATOM      3  N   UNL     1      -2.610  11.763  18.019  0.00  0.00    +0.000 NA
ATOM      4  C   UNL     1      -3.773  11.855  18.687  0.00  0.00    +0.000 A 
ATOM      5  C   UNL     1      -3.879  12.367  19.952  0.00  0.00    +0.000 A 
ATOM      6  C   UNL     1      -2.714  12.875  20.480  0.00  0.00    +0.000 A 
ATOM      7  N   UNL     1      -1.543  12.872  19.816  0.00  0.00    +0.000 NA
ATOM      8  H   UNL     1      -0.515  11.423  17.218  0.00  0.00    +0.000 HD
ENDROOT
BRANCH   6   9
ATOM      9  N   UNL     1      -2.766  13.505  21.727  0.00  0.00    +0.000 N 
ATOM     10  C   UNL     1      -3.463  14.682  21.922  0.00  0.00    +0.000 C 
ATOM     11  O   UNL     1      -3.900  15.437  21.070  0.00  0.00    +0.000 OA
ATOM     12  O   UNL     1      -3.649  14.882  23.262  0.00  0.00    +0.000 OA
ATOM     13  C   UNL     1      -2.881  13.902  23.968  0.00  0.00    +0.000 C 
ATOM     14  C   UNL     1      -2.608  12.794  22.964  0.00  0.00    +0.000 C 
BRANCH  14  15
ATOM     15  C   UNL     1      -1.187  12.196  23.127  0.00  0.00    +0.000 C 
ATOM     16  C   UNL     1      -1.089  10.737  22.714  0.00  0.00    +0.000 C 
BRANCH  15  17
ATOM     17  O   UNL     1      -0.198  12.894  22.368  0.00  0.00    +0.000 OA
ATOM     18  H   UNL     1      -0.084  13.792  22.732  0.00  0.00    +0.000 HD
ENDBRANCH  15  17
ENDBRANCH  14  15
ENDBRANCH   6   9
BRANCH   1  19
ATOM     19  C   UNL     1       0.825  11.787  18.779  0.00  0.00    +0.000 C 
ATOM     20  C   UNL     1       1.898  12.848  18.502  0.00  0.00    +0.000 C 
BRANCH  19  24
ATOM     21  C   UNL     1       2.007   8.416  18.571  0.00  0.00    +0.000 A 
ATOM     22  N   UNL     1       2.565   8.902  17.451  0.00  0.00    +0.000 NA
ATOM     23  O   UNL     1       2.170  10.242  17.442  0.00  0.00    +0.000 OA
ATOM     24  C   UNL     1       1.407  10.425  18.555  0.00  0.00    +0.000 A 
ATOM     25  N   UNL     1       1.287   9.341  19.287  0.00  0.00    +0.000 NA
BRANCH  21  29
ATOM     26  C   UNL     1       2.310   4.329  19.822  0.00  0.00    +0.000 A 
ATOM     27  C   UNL     1       1.883   5.317  20.721  0.00  0.00    +0.000 A 
ATOM     28  C   UNL     1       1.787   6.656  20.326  0.00  0.00    +0.000 A 
ATOM     29  C   UNL     1       2.114   7.031  19.018  0.00  0.00    +0.000 A 
ATOM     30  C   UNL     1       2.545   6.046  18.120  0.00  0.00    +0.000 A 
ATOM     31  C   UNL     1       2.638   4.710  18.514  0.00  0.00    +0.000 A 
BRANCH  26  33
ATOM     32  C   UNL     1       1.734   2.760  21.667  0.00  0.00    +0.000 C 
ATOM     33  C   UNL     1       2.331   2.874  20.264  0.00  0.00    +0.000 C 
ATOM     34  C   UNL     1       1.618   1.921  19.297  0.00  0.00    +0.000 C 
ENDBRANCH  26  33
ENDBRANCH  21  29
ENDBRANCH  19  24
ENDBRANCH   1  19
TORSDOF 7
ENDMDL
MODEL 2
REMARK VINA RESULT:      -7.7      2.220      3.071
REMARK  Name = 
REMARK  11 active torsions:
REMARK  status: ('A' for Active; 'I' for Inactive)
REMARK    1  A    between atoms: C_1  and  C_2
REMARK    2  A    between atoms: C_2  and  C_3
REMARK    3  A    between atoms: C_2  and  C_4
REMARK    4  A    between atoms: C_7  and  C_8
REMARK    5  A    between atoms: C_11  and  C_12
REMARK    6  A    between atoms: C_12  and  C_13
REMARK    7  A    between atoms: C_12  and  N_14
REMARK    8  A    between atoms: C_19  and  N_20
REMARK    9  A    between atoms: C_25  and  C_26
REMARK   10  A    between atoms: C_26  and  C_27
REMARK   11  A    between atoms: C_26  and  O_28
REMARK                            x       y       z     vdW  Elec       q    Type
REMARK                         _______ _______ _______ _____ _____    ______ ____
ROOT
ATOM      1  N   UNL     1      -2.033  12.674  19.037  0.00  0.00    +0.000 N 
ATOM      2  C   UNL     1      -3.355  12.542  19.430  0.00  0.00    +0.000 A 
ATOM      3  N   UNL     1      -4.085  11.674  18.715  0.00  0.00    +0.000 NA
ATOM      4  C   UNL     1      -5.361  11.499  19.099  0.00  0.00    +0.000 A 
ATOM      5  C   UNL     1      -5.911  12.111  20.193  0.00  0.00    +0.000 A 
ATOM      6  C   UNL     1      -5.090  13.005  20.842  0.00  0.00    +0.000 A 
ATOM      7  N   UNL     1      -3.831  13.267  20.446  0.00  0.00    +0.000 NA
ATOM      8  H   UNL     1      -1.841  11.875  18.442  0.00  0.00    +0.000 HD
ENDROOT
BRANCH   6   9
ATOM      9  N   UNL     1      -5.616  13.742  21.906  0.00  0.00    +0.000 N 
ATOM     10  C   UNL     1      -6.382  14.874  21.703  0.00  0.00    +0.000 C 
ATOM     11  O   UNL     1      -6.509  15.509  20.670  0.00  0.00    +0.000 OA
ATOM     12  O   UNL     1      -7.050  15.182  22.856  0.00  0.00    +0.000 OA
ATOM     13  C   UNL     1      -6.553  14.335  23.897  0.00  0.00    +0.000 C 
ATOM     14  C   UNL     1      -5.889  13.163  23.192  0.00  0.00    +0.000 C 
BRANCH  14  15
ATOM     15  C   UNL     1      -4.602  12.697  23.919  0.00  0.00    +0.000 C 
ATOM     16  C   UNL     1      -3.742  13.841  24.428  0.00  0.00    +0.000 C 
BRANCH  15  17
ATOM     17  O   UNL     1      -4.871  11.864  25.048  0.00  0.00    +0.000 OA
ATOM     18  H   UNL     1      -4.461  12.254  25.844  0.00  0.00    +0.000 HD
ENDBRANCH  15  17
ENDBRANCH  14  15
ENDBRANCH   6   9
BRANCH   1  19
ATOM     19  C   UNL     1      -1.080  12.815  20.146  0.00  0.00    +0.000 C 
ATOM     20  C   UNL     1      -0.167  14.001  19.810  0.00  0.00    +0.000 C 
BRANCH  19  24
ATOM     21  C   UNL     1       0.879   9.830  20.403  0.00  0.00    +0.000 A 
ATOM     22  N   UNL     1       1.061  10.306  21.645  0.00  0.00    +0.000 NA
ATOM     23  O   UNL     1       0.313  11.486  21.657  0.00  0.00    +0.000 OA
ATOM     24  C   UNL     1      -0.238  11.605  20.417  0.00  0.00    +0.000 A 
ATOM     25  N   UNL     1       0.067  10.610  19.615  0.00  0.00    +0.000 NA
BRANCH  21  29
ATOM     26  C   UNL     1       2.639   6.257  18.824  0.00  0.00    +0.000 A 
ATOM     27  C   UNL     1       2.059   6.258  20.101  0.00  0.00    +0.000 A 
ATOM     28  C   UNL     1       1.488   7.421  20.630  0.00  0.00    +0.000 A 
ATOM     29  C   UNL     1       1.483   8.607  19.887  0.00  0.00    +0.000 A 
ATOM     30  C   UNL     1       2.066   8.608  18.613  0.00  0.00    +0.000 A 
ATOM     31  C   UNL     1       2.633   7.447  18.085  0.00  0.00    +0.000 A 
BRANCH  26  33
ATOM     32  C   UNL     1       2.025   4.109  17.725  0.00  0.00    +0.000 C 
ATOM     33  C   UNL     1       3.183   4.958  18.252  0.00  0.00    +0.000 C 
ATOM     34  C   UNL     1       4.244   5.155  17.162  0.00  0.00    +0.000 C 
ENDBRANCH  26  33
ENDBRANCH  21  29
ENDBRANCH  19  24
ENDBRANCH   1  19
TORSDOF 7
ENDMDL
MODEL 3
REMARK VINA RESULT:      -7.7      2.591      3.804
REMARK  Name = 
REMARK  11 active torsions:
REMARK  status: ('A' for Active; 'I' for Inactive)
REMARK    1  A    between atoms: C_1  and  C_2
REMARK    2  A    between atoms: C_2  and  C_3
REMARK    3  A    between atoms: C_2  and  C_4
REMARK    4  A    between atoms: C_7  and  C_8
REMARK    5  A    between atoms: C_11  and  C_12
REMARK    6  A    between atoms: C_12  and  C_13
REMARK    7  A    between atoms: C_12  and  N_14
REMARK    8  A    between atoms: C_19  and  N_20
REMARK    9  A    between atoms: C_25  and  C_26
REMARK   10  A    between atoms: C_26  and  C_27
REMARK   11  A    between atoms: C_26  and  O_28
REMARK                            x       y       z     vdW  Elec       q    Type
REMARK                         _______ _______ _______ _____ _____    ______ ____
ROOT
ATOM      1  N   UNL     1       0.769  10.811  21.564  0.00  0.00    +0.000 N 
ATOM      2  C   UNL     1       0.032  11.982  21.637  0.00  0.00    +0.000 A 
ATOM      3  N   UNL     1       0.746  13.116  21.595  0.00  0.00    +0.000 NA
ATOM      4  C   UNL     1       0.054  14.267  21.626  0.00  0.00    +0.000 A 
ATOM      5  C   UNL     1      -1.314  14.326  21.639  0.00  0.00    +0.000 A 
ATOM      6  C   UNL     1      -1.954  13.108  21.710  0.00  0.00    +0.000 A 
ATOM      7  N   UNL     1      -1.297  11.935  21.759  0.00  0.00    +0.000 NA
ATOM      8  H   UNL     1       1.688  11.083  21.232  0.00  0.00    +0.000 HD
ENDROOT
BRANCH   6   9
ATOM      9  N   UNL     1      -3.346  13.093  21.830  0.00  0.00    +0.000 N 
ATOM     10  C   UNL     1      -4.170  12.872  20.743  0.00  0.00    +0.000 C 
ATOM     11  O   UNL     1      -3.867  12.900  19.562  0.00  0.00    +0.000 OA
ATOM     12  O   UNL     1      -5.426  12.556  21.184  0.00  0.00    +0.000 OA
ATOM     13  C   UNL     1      -5.467  12.768  22.598  0.00  0.00    +0.000 C 
ATOM     14  C   UNL     1      -4.017  12.764  23.056  0.00  0.00    +0.000 C 
BRANCH  14  15
ATOM     15  C   UNL     1      -3.755  13.805  24.174  0.00  0.00    +0.000 C 
ATOM     16  C   UNL     1      -4.538  15.095  24.001  0.00  0.00    +0.000 C 
BRANCH  15  17
ATOM     17  O   UNL     1      -4.074  13.315  25.478  0.00  0.00    +0.000 OA
ATOM     18  H   UNL     1      -3.827  12.373  25.540  0.00  0.00    +0.000 HD
ENDBRANCH  15  17
ENDBRANCH  14  15
ENDBRANCH   6   9
BRANCH   1  19
ATOM     19  C   UNL     1       0.149   9.751  20.758  0.00  0.00    +0.000 C 
ATOM     20  C   UNL     1      -0.176   8.591  21.709  0.00  0.00    +0.000 C 
BRANCH  19  24
ATOM     21  C   UNL     1       2.249   8.224  18.295  0.00  0.00    +0.000 A 
ATOM     22  N   UNL     1       1.780   9.247  17.564  0.00  0.00    +0.000 NA
ATOM     23  O   UNL     1       0.944   9.929  18.451  0.00  0.00    +0.000 OA
ATOM     24  C   UNL     1       0.989   9.242  19.626  0.00  0.00    +0.000 A 
ATOM     25  N   UNL     1       1.783   8.197  19.587  0.00  0.00    +0.000 NA
BRANCH  21  29
ATOM     26  C   UNL     1       4.943   5.252  16.788  0.00  0.00    +0.000 A 
ATOM     27  C   UNL     1       3.784   4.874  17.481  0.00  0.00    +0.000 A 
ATOM     28  C   UNL     1       2.900   5.835  17.984  0.00  0.00    +0.000 A 
ATOM     29  C   UNL     1       3.160   7.198  17.799  0.00  0.00    +0.000 A 
ATOM     30  C   UNL     1       4.319   7.577  17.111  0.00  0.00    +0.000 A 
ATOM     31  C   UNL     1       5.199   6.618  16.607  0.00  0.00    +0.000 A 
BRANCH  26  33
ATOM     32  C   UNL     1       5.651   4.145  14.674  0.00  0.00    +0.000 C 
ATOM     33  C   UNL     1       5.841   4.180  16.191  0.00  0.00    +0.000 C 
ATOM     34  C   UNL     1       7.324   4.345  16.543  0.00  0.00    +0.000 C 
ENDBRANCH  26  33
ENDBRANCH  21  29
ENDBRANCH  19  24
ENDBRANCH   1  19
TORSDOF 7
ENDMDL
MODEL 4
REMARK VINA RESULT:      -7.7      2.785      4.247
REMARK  Name = 
REMARK  11 active torsions:
REMARK  status: ('A' for Active; 'I' for Inactive)
REMARK    1  A    between atoms: C_1  and  C_2
REMARK    2  A    between atoms: C_2  and  C_3
REMARK    3  A    between atoms: C_2  and  C_4
REMARK    4  A    between atoms: C_7  and  C_8
REMARK    5  A    between atoms: C_11  and  C_12
REMARK    6  A    between atoms: C_12  and  C_13
REMARK    7  A    between atoms: C_12  and  N_14
REMARK    8  A    between atoms: C_19  and  N_20
REMARK    9  A    between atoms: C_25  and  C_26
REMARK   10  A    between atoms: C_26  and  C_27
REMARK   11  A    between atoms: C_26  and  O_28
REMARK                            x       y       z     vdW  Elec       q    Type
REMARK                         _______ _______ _______ _____ _____    ______ ____
ROOT
ATOM      1  N   UNL     1      -1.333  11.787  18.627  0.00  0.00    +0.000 N 
ATOM      2  C   UNL     1      -2.609  11.664  18.100  0.00  0.00    +0.000 A 
ATOM      3  N   UNL     1      -2.667  11.354  16.798  0.00  0.00    +0.000 NA
ATOM      4  C   UNL     1      -3.892  11.191  16.270  0.00  0.00    +0.000 A 
ATOM      5  C   UNL     1      -5.046  11.271  17.002  0.00  0.00    +0.000 A 
ATOM      6  C   UNL     1      -4.882  11.623  18.323  0.00  0.00    +0.000 A 
ATOM      7  N   UNL     1      -3.679  11.869  18.873  0.00  0.00    +0.000 NA
ATOM      8  H   UNL     1      -0.713  11.354  17.951  0.00  0.00    +0.000 HD
ENDROOT
BRANCH   6   9
ATOM      9  N   UNL     1      -6.021  11.822  19.106  0.00  0.00    +0.000 N 
ATOM     10  C   UNL     1      -6.780  10.767  19.574  0.00  0.00    +0.000 C 
ATOM     11  O   UNL     1      -6.738   9.603  19.212  0.00  0.00    +0.000 OA
ATOM     12  O   UNL     1      -7.596  11.207  20.580  0.00  0.00    +0.000 OA
ATOM     13  C   UNL     1      -7.503  12.633  20.637  0.00  0.00    +0.000 C 
ATOM     14  C   UNL     1      -6.208  12.988  19.923  0.00  0.00    +0.000 C 
BRANCH  14  15
ATOM     15  C   UNL     1      -6.340  14.286  19.085  0.00  0.00    +0.000 C 
ATOM     16  C   UNL     1      -7.774  14.753  18.908  0.00  0.00    +0.000 C 
BRANCH  15  17
ATOM     17  O   UNL     1      -5.625  15.388  19.648  0.00  0.00    +0.000 OA
ATOM     18  H   UNL     1      -4.839  15.057  20.123  0.00  0.00    +0.000 HD
ENDBRANCH  15  17
ENDBRANCH  14  15
ENDBRANCH   6   9
BRANCH   1  19
ATOM     19  C   UNL     1      -1.181  11.248  19.985  0.00  0.00    +0.000 C 
ATOM     20  C   UNL     1      -0.729  12.407  20.884  0.00  0.00    +0.000 C 
BRANCH  19  24
ATOM     21  C   UNL     1       1.222   8.597  19.896  0.00  0.00    +0.000 A 
ATOM     22  N   UNL     1       0.950   8.588  21.210  0.00  0.00    +0.000 NA
ATOM     23  O   UNL     1      -0.006   9.596  21.355  0.00  0.00    +0.000 OA
ATOM     24  C   UNL     1      -0.208  10.116  20.112  0.00  0.00    +0.000 A 
ATOM     25  N   UNL     1       0.511   9.530  19.182  0.00  0.00    +0.000 NA
BRANCH  21  29
ATOM     26  C   UNL     1       4.088   6.009  18.039  0.00  0.00    +0.000 A 
ATOM     27  C   UNL     1       3.720   7.217  17.427  0.00  0.00    +0.000 A 
ATOM     28  C   UNL     1       2.781   8.067  18.021  0.00  0.00    +0.000 A 
ATOM     29  C   UNL     1       2.192   7.724  19.243  0.00  0.00    +0.000 A 
ATOM     30  C   UNL     1       2.555   6.517  19.853  0.00  0.00    +0.000 A 
ATOM     31  C   UNL     1       3.495   5.671  19.263  0.00  0.00    +0.000 A 
BRANCH  26  33
ATOM     32  C   UNL     1       6.282   4.895  18.420  0.00  0.00    +0.000 C 
ATOM     33  C   UNL     1       5.168   5.148  17.403  0.00  0.00    +0.000 C 
ATOM     34  C   UNL     1       4.649   3.822  16.834  0.00  0.00    +0.000 C 
ENDBRANCH  26  33
ENDBRANCH  21  29
ENDBRANCH  19  24
ENDBRANCH   1  19
TORSDOF 7
ENDMDL
MODEL 5
REMARK VINA RESULT:      -7.7      0.395      1.085
REMARK  Name = 
REMARK  11 active torsions:
REMARK  status: ('A' for Active; 'I' for Inactive)
REMARK    1  A    between atoms: C_1  and  C_2
REMARK    2  A    between atoms: C_2  and  C_3
REMARK    3  A    between atoms: C_2  and  C_4
REMARK    4  A    between atoms: C_7  and  C_8
REMARK    5  A    between atoms: C_11  and  C_12
REMARK    6  A    between atoms: C_12  and  C_13
REMARK    7  A    between atoms: C_12  and  N_14
REMARK    8  A    between atoms: C_19  and  N_20
REMARK    9  A    between atoms: C_25  and  C_26
REMARK   10  A    between atoms: C_26  and  C_27
REMARK   11  A    between atoms: C_26  and  O_28
REMARK                            x       y       z     vdW  Elec       q    Type
REMARK                         _______ _______ _______ _____ _____    ______ ____
ROOT
ATOM      1  N   UNL     1      -0.358  12.017  17.973  0.00  0.00    +0.000 N 
ATOM      2  C   UNL     1      -1.573  12.155  18.626  0.00  0.00    +0.000 A 
ATOM      3  N   UNL     1      -2.639  11.684  17.963  0.00  0.00    +0.000 NA
ATOM      4  C   UNL     1      -3.825  11.770  18.590  0.00  0.00    +0.000 A 
ATOM      5  C   UNL     1      -3.973  12.252  19.863  0.00  0.00    +0.000 A 
ATOM      6  C   UNL     1      -2.824  12.737  20.446  0.00  0.00    +0.000 A 
ATOM      7  N   UNL     1      -1.630  12.741  19.825  0.00  0.00    +0.000 NA
ATOM      8  H   UNL     1      -0.519  11.345  17.231  0.00  0.00    +0.000 HD
ENDROOT
BRANCH   6   9
ATOM      9  N   UNL     1      -2.917  13.338  21.704  0.00  0.00    +0.000 N 
ATOM     10  C   UNL     1      -3.682  14.468  21.920  0.00  0.00    +0.000 C 
ATOM     11  O   UNL     1      -4.161  15.212  21.081  0.00  0.00    +0.000 OA
ATOM     12  O   UNL     1      -3.884  14.628  23.264  0.00  0.00    +0.000 OA
ATOM     13  C   UNL     1      -3.061  13.682  23.953  0.00  0.00    +0.000 C 
ATOM     14  C   UNL     1      -2.720  12.612  22.928  0.00  0.00    +0.000 C 
BRANCH  14  15
ATOM     15  C   UNL     1      -1.267  12.096  23.084  0.00  0.00    +0.000 C 
ATOM     16  C   UNL     1      -1.057  10.692  22.542  0.00  0.00    +0.000 C 
BRANCH  15  17
ATOM     17  O   UNL     1      -0.307  12.926  22.427  0.00  0.00    +0.000 OA
ATOM     18  H   UNL     1      -0.479  12.924  21.467  0.00  0.00    +0.000 HD
ENDBRANCH  15  17
ENDBRANCH  14  15
ENDBRANCH   6   9
BRANCH   1  19
ATOM     19  C   UNL     1       0.766  11.660  18.848  0.00  0.00    +0.000 C 
ATOM     20  C   UNL     1       1.833  12.751  18.681  0.00  0.00    +0.000 C 
BRANCH  19  24
ATOM     21  C   UNL     1       2.033   8.329  18.523  0.00  0.00    +0.000 A 
ATOM     22  N   UNL     1       2.565   8.864  17.413  0.00  0.00    +0.000 NA
ATOM     23  O   UNL     1       2.136  10.192  17.449  0.00  0.00    +0.000 OA
ATOM     24  C   UNL     1       1.381  10.321  18.576  0.00  0.00    +0.000 A 
ATOM     25  N   UNL     1       1.298   9.212  19.275  0.00  0.00    +0.000 NA
BRANCH  21  29
ATOM     26  C   UNL     1       2.486   4.254  19.769  0.00  0.00    +0.000 A 
ATOM     27  C   UNL     1       2.738   4.622  18.439  0.00  0.00    +0.000 A 
ATOM     28  C   UNL     1       2.587   5.948  18.019  0.00  0.00    +0.000 A 
ATOM     29  C   UNL     1       2.182   6.935  18.926  0.00  0.00    +0.000 A 
ATOM     30  C   UNL     1       1.925   6.568  20.253  0.00  0.00    +0.000 A 
ATOM     31  C   UNL     1       2.080   5.246  20.673  0.00  0.00    +0.000 A 
BRANCH  26  33
ATOM     32  C   UNL     1       1.812   1.882  19.424  0.00  0.00    +0.000 C 
ATOM     33  C   UNL     1       2.733   2.819  20.207  0.00  0.00    +0.000 C 
ATOM     34  C   UNL     1       4.194   2.373  20.075  0.00  0.00    +0.000 C 
ENDBRANCH  26  33
ENDBRANCH  21  29
ENDBRANCH  19  24
ENDBRANCH   1  19
TORSDOF 7
ENDMDL
MODEL 6
REMARK VINA RESULT:      -7.6      2.746      4.345
REMARK  Name = 
REMARK  11 active torsions:
REMARK  status: ('A' for Active; 'I' for Inactive)
REMARK    1  A    between atoms: C_1  and  C_2
REMARK    2  A    between atoms: C_2  and  C_3
REMARK    3  A    between atoms: C_2  and  C_4
REMARK    4  A    between atoms: C_7  and  C_8
REMARK    5  A    between atoms: C_11  and  C_12
REMARK    6  A    between atoms: C_12  and  C_13
REMARK    7  A    between atoms: C_12  and  N_14
REMARK    8  A    between atoms: C_19  and  N_20
REMARK    9  A    between atoms: C_25  and  C_26
REMARK   10  A    between atoms: C_26  and  C_27
REMARK   11  A    between atoms: C_26  and  O_28
REMARK                            x       y       z     vdW  Elec       q    Type
REMARK                         _______ _______ _______ _____ _____    ______ ____
ROOT
ATOM      1  N   UNL     1       1.030  10.544  21.044  0.00  0.00    +0.000 N 
ATOM      2  C   UNL     1       0.388  11.423  20.186  0.00  0.00    +0.000 A 
ATOM      3  N   UNL     1       1.193  12.207  19.456  0.00  0.00    +0.000 NA
ATOM      4  C   UNL     1       0.597  13.042  18.588  0.00  0.00    +0.000 A 
ATOM      5  C   UNL     1      -0.756  13.081  18.385  0.00  0.00    +0.000 A 
ATOM      6  C   UNL     1      -1.497  12.258  19.204  0.00  0.00    +0.000 A 
ATOM      7  N   UNL     1      -0.946  11.463  20.139  0.00  0.00    +0.000 NA
ATOM      8  H   UNL     1       1.996  10.513  20.734  0.00  0.00    +0.000 HD
ENDROOT
BRANCH   6   9
ATOM      9  N   UNL     1      -2.891  12.319  19.125  0.00  0.00    +0.000 N 
ATOM     10  C   UNL     1      -3.601  11.598  18.184  0.00  0.00    +0.000 C 
ATOM     11  O   UNL     1      -3.165  11.035  17.195  0.00  0.00    +0.000 OA
ATOM     12  O   UNL     1      -4.920  11.555  18.547  0.00  0.00    +0.000 OA
ATOM     13  C   UNL     1      -5.104  12.439  19.657  0.00  0.00    +0.000 C 
ATOM     14  C   UNL     1      -3.720  12.646  20.251  0.00  0.00    +0.000 C 
BRANCH  14  15
ATOM     15  C   UNL     1      -3.507  14.101  20.741  0.00  0.00    +0.000 C 
ATOM     16  C   UNL     1      -4.785  14.921  20.787  0.00  0.00    +0.000 C 
BRANCH  15  17
ATOM     17  O   UNL     1      -2.940  14.170  22.051  0.00  0.00    +0.000 OA
ATOM     18  H   UNL     1      -3.308  14.940  22.524  0.00  0.00    +0.000 HD
ENDBRANCH  15  17
ENDBRANCH  14  15
ENDBRANCH   6   9
BRANCH   1  19
ATOM     19  C   UNL     1       0.406   9.218  21.136  0.00  0.00    +0.000 C 
ATOM     20  C   UNL     1       0.191   8.923  22.627  0.00  0.00    +0.000 C 
BRANCH  19  24
ATOM     21  C   UNL     1       2.409   6.822  19.389  0.00  0.00    +0.000 A 
ATOM     22  N   UNL     1       2.015   6.054  20.416  0.00  0.00    +0.000 NA
ATOM     23  O   UNL     1       1.201   6.904  21.168  0.00  0.00    +0.000 OA
ATOM     24  C   UNL     1       1.193   8.102  20.520  0.00  0.00    +0.000 A 
ATOM     25  N   UNL     1       1.908   8.100  19.417  0.00  0.00    +0.000 NA
BRANCH  21  29
ATOM     26  C   UNL     1       5.045   5.482  16.287  0.00  0.00    +0.000 A 
ATOM     27  C   UNL     1       4.909   6.851  16.561  0.00  0.00    +0.000 A 
ATOM     28  C   UNL     1       4.046   7.301  17.567  0.00  0.00    +0.000 A 
ATOM     29  C   UNL     1       3.303   6.385  18.322  0.00  0.00    +0.000 A 
ATOM     30  C   UNL     1       3.435   5.018  18.046  0.00  0.00    +0.000 A 
ATOM     31  C   UNL     1       4.299   4.570  17.046  0.00  0.00    +0.000 A 
BRANCH  26  33
ATOM     32  C   UNL     1       7.237   4.357  15.931  0.00  0.00    +0.000 C 
ATOM     33  C   UNL     1       6.048   5.025  15.240  0.00  0.00    +0.000 C 
ATOM     34  C   UNL     1       5.453   4.096  14.175  0.00  0.00    +0.000 C 
ENDBRANCH  26  33
ENDBRANCH  21  29
ENDBRANCH  19  24
ENDBRANCH   1  19
TORSDOF 7
ENDMDL
MODEL 7
REMARK VINA RESULT:      -7.6      2.634      3.987
REMARK  Name = 
REMARK  11 active torsions:
REMARK  status: ('A' for Active; 'I' for Inactive)
REMARK    1  A    between atoms: C_1  and  C_2
REMARK    2  A    between atoms: C_2  and  C_3
REMARK    3  A    between atoms: C_2  and  C_4
REMARK    4  A    between atoms: C_7  and  C_8
REMARK    5  A    between atoms: C_11  and  C_12
REMARK    6  A    between atoms: C_12  and  C_13
REMARK    7  A    between atoms: C_12  and  N_14
REMARK    8  A    between atoms: C_19  and  N_20
REMARK    9  A    between atoms: C_25  and  C_26
REMARK   10  A    between atoms: C_26  and  C_27
REMARK   11  A    between atoms: C_26  and  O_28
REMARK                            x       y       z     vdW  Elec       q    Type
REMARK                         _______ _______ _______ _____ _____    ______ ____
ROOT
ATOM      1  N   UNL     1      -1.401  12.200  19.305  0.00  0.00    +0.000 N 
ATOM      2  C   UNL     1      -2.645  11.982  18.735  0.00  0.00    +0.000 A 
ATOM      3  N   UNL     1      -2.634  11.663  17.433  0.00  0.00    +0.000 NA
ATOM      4  C   UNL     1      -3.825  11.409  16.865  0.00  0.00    +0.000 A 
ATOM      5  C   UNL     1      -5.007  11.406  17.555  0.00  0.00    +0.000 A 
ATOM      6  C   UNL     1      -4.915  11.773  18.879  0.00  0.00    +0.000 A 
ATOM      7  N   UNL     1      -3.754  12.110  19.469  0.00  0.00    +0.000 NA
ATOM      8  H   UNL     1      -0.727  11.812  18.654  0.00  0.00    +0.000 HD
ENDROOT
BRANCH   6   9
ATOM      9  N   UNL     1      -6.093  11.891  19.621  0.00  0.00    +0.000 N 
ATOM     10  C   UNL     1      -6.860  10.790  19.954  0.00  0.00    +0.000 C 
ATOM     11  O   UNL     1      -6.786   9.666  19.490  0.00  0.00    +0.000 OA
ATOM     12  O   UNL     1      -7.728  11.129  20.955  0.00  0.00    +0.000 OA
ATOM     13  C   UNL     1      -7.656  12.546  21.146  0.00  0.00    +0.000 C 
ATOM     14  C   UNL     1      -6.333  12.975  20.532  0.00  0.00    +0.000 C 
BRANCH  14  15
ATOM     15  C   UNL     1      -6.441  14.343  19.810  0.00  0.00    +0.000 C 
ATOM     16  C   UNL     1      -7.596  14.423  18.827  0.00  0.00    +0.000 C 
BRANCH  15  17
ATOM     17  O   UNL     1      -6.606  15.438  20.713  0.00  0.00    +0.000 OA
ATOM     18  H   UNL     1      -7.465  15.356  21.169  0.00  0.00    +0.000 HD
ENDBRANCH  15  17
ENDBRANCH  14  15
ENDBRANCH   6   9
BRANCH   1  19
ATOM     19  C   UNL     1      -1.257  11.678  20.671  0.00  0.00    +0.000 C 
ATOM     20  C   UNL     1      -0.821  12.851  21.559  0.00  0.00    +0.000 C 
BRANCH  19  24
ATOM     21  C   UNL     1       1.012   8.911  20.638  0.00  0.00    +0.000 A 
ATOM     22  N   UNL     1       1.235   9.349  21.887  0.00  0.00    +0.000 NA
ATOM     23  O   UNL     1       0.373  10.441  22.011  0.00  0.00    +0.000 OA
ATOM     24  C   UNL     1      -0.277  10.555  20.820  0.00  0.00    +0.000 A 
ATOM     25  N   UNL     1       0.069   9.634  19.950  0.00  0.00    +0.000 NA
BRANCH  21  29
ATOM     26  C   UNL     1       3.016   5.622  18.760  0.00  0.00    +0.000 A 
ATOM     27  C   UNL     1       2.416   5.464  20.018  0.00  0.00    +0.000 A 
ATOM     28  C   UNL     1       1.765   6.532  20.644  0.00  0.00    +0.000 A 
ATOM     29  C   UNL     1       1.699   7.783  20.019  0.00  0.00    +0.000 A 
ATOM     30  C   UNL     1       2.302   7.944  18.765  0.00  0.00    +0.000 A 
ATOM     31  C   UNL     1       2.948   6.877  18.139  0.00  0.00    +0.000 A 
BRANCH  26  33
ATOM     32  C   UNL     1       4.654   3.766  19.026  0.00  0.00    +0.000 C 
ATOM     33  C   UNL     1       3.649   4.420  18.077  0.00  0.00    +0.000 C 
ATOM     34  C   UNL     1       2.634   3.387  17.572  0.00  0.00    +0.000 C 
ENDBRANCH  26  33
ENDBRANCH  21  29
ENDBRANCH  19  24
ENDBRANCH   1  19
TORSDOF 7
ENDMDL
MODEL 8
REMARK VINA RESULT:      -7.6      0.899      2.345
REMARK  Name = 
REMARK  11 active torsions:
REMARK  status: ('A' for Active; 'I' for Inactive)
REMARK    1  A    between atoms: C_1  and  C_2
REMARK    2  A    between atoms: C_2  and  C_3
REMARK    3  A    between atoms: C_2  and  C_4
REMARK    4  A    between atoms: C_7  and  C_8
REMARK    5  A    between atoms: C_11  and  C_12
REMARK    6  A    between atoms: C_12  and  C_13
REMARK    7  A    between atoms: C_12  and  N_14
REMARK    8  A    between atoms: C_19  and  N_20
REMARK    9  A    between atoms: C_25  and  C_26
REMARK   10  A    between atoms: C_26  and  C_27
REMARK   11  A    between atoms: C_26  and  O_28
REMARK                            x       y       z     vdW  Elec       q    Type
REMARK                         _______ _______ _______ _____ _____    ______ ____
ROOT
ATOM      1  N   UNL     1      -0.288  11.990  17.914  0.00  0.00    +0.000 N 
ATOM      2  C   UNL     1      -1.485  12.186  18.584  0.00  0.00    +0.000 A 
ATOM      3  N   UNL     1      -2.575  11.711  17.966  0.00  0.00    +0.000 NA
ATOM      4  C   UNL     1      -3.745  11.854  18.612  0.00  0.00    +0.000 A 
ATOM      5  C   UNL     1      -3.855  12.398  19.864  0.00  0.00    +0.000 A 
ATOM      6  C   UNL     1      -2.683  12.881  20.400  0.00  0.00    +0.000 A 
ATOM      7  N   UNL     1      -1.503  12.827  19.756  0.00  0.00    +0.000 NA
ATOM      8  H   UNL     1      -0.479  11.288  17.207  0.00  0.00    +0.000 HD
ENDROOT
BRANCH   6   9
ATOM      9  N   UNL     1      -2.735  13.541  21.631  0.00  0.00    +0.000 N 
ATOM     10  C   UNL     1      -2.330  12.932  22.804  0.00  0.00    +0.000 C 
ATOM     11  O   UNL     1      -2.116  11.746  22.990  0.00  0.00    +0.000 OA
ATOM     12  O   UNL     1      -2.147  13.884  23.769  0.00  0.00    +0.000 OA
ATOM     13  C   UNL     1      -2.634  15.130  23.261  0.00  0.00    +0.000 C 
ATOM     14  C   UNL     1      -2.675  14.970  21.750  0.00  0.00    +0.000 C 
BRANCH  14  15
ATOM     15  C   UNL     1      -3.907  15.670  21.121  0.00  0.00    +0.000 C 
ATOM     16  C   UNL     1      -4.682  16.534  22.101  0.00  0.00    +0.000 C 
BRANCH  15  17
ATOM     17  O   UNL     1      -3.565  16.518  20.023  0.00  0.00    +0.000 OA
ATOM     18  H   UNL     1      -4.035  17.369  20.112  0.00  0.00    +0.000 HD
ENDBRANCH  15  17
ENDBRANCH  14  15
ENDBRANCH   6   9
BRANCH   1  19
ATOM     19  C   UNL     1       0.846  11.646  18.782  0.00  0.00    +0.000 C 
ATOM     20  C   UNL     1       1.922  12.718  18.566  0.00  0.00    +0.000 C 
BRANCH  19  24
ATOM     21  C   UNL     1       2.057   8.288  18.527  0.00  0.00    +0.000 A 
ATOM     22  N   UNL     1       2.628   8.799  17.426  0.00  0.00    +0.000 NA
ATOM     23  O   UNL     1       2.223  10.136  17.437  0.00  0.00    +0.000 OA
ATOM     24  C   UNL     1       1.442  10.292  18.541  0.00  0.00    +0.000 A 
ATOM     25  N   UNL     1       1.319   9.193  19.250  0.00  0.00    +0.000 NA
BRANCH  21  29
ATOM     26  C   UNL     1       2.398   4.220  19.830  0.00  0.00    +0.000 A 
ATOM     27  C   UNL     1       2.668   4.564  18.497  0.00  0.00    +0.000 A 
ATOM     28  C   UNL     1       2.553   5.887  18.058  0.00  0.00    +0.000 A 
ATOM     29  C   UNL     1       2.168   6.895  18.950  0.00  0.00    +0.000 A 
ATOM     30  C   UNL     1       1.895   6.553  20.280  0.00  0.00    +0.000 A 
ATOM     31  C   UNL     1       2.013   5.233  20.718  0.00  0.00    +0.000 A 
BRANCH  26  33
ATOM     32  C   UNL     1       4.077   2.404  20.115  0.00  0.00    +0.000 C 
ATOM     33  C   UNL     1       2.607   2.785  20.289  0.00  0.00    +0.000 C 
ATOM     34  C   UNL     1       2.149   2.521  21.728  0.00  0.00    +0.000 C 
ENDBRANCH  26  33
ENDBRANCH  21  29
ENDBRANCH  19  24
ENDBRANCH   1  19
TORSDOF 7
ENDMDL
MODEL 9
REMARK VINA RESULT:      -7.5      2.490      3.915
REMARK  Name = 
REMARK  11 active torsions:
REMARK  status: ('A' for Active; 'I' for Inactive)
REMARK    1  A    between atoms: C_1  and  C_2
REMARK    2  A    between atoms: C_2  and  C_3
REMARK    3  A    between atoms: C_2  and  C_4
REMARK    4  A    between atoms: C_7  and  C_8
REMARK    5  A    between atoms: C_11  and  C_12
REMARK    6  A    between atoms: C_12  and  C_13
REMARK    7  A    between atoms: C_12  and  N_14
REMARK    8  A    between atoms: C_19  and  N_20
REMARK    9  A    between atoms: C_25  and  C_26
REMARK   10  A    between atoms: C_26  and  C_27
REMARK   11  A    between atoms: C_26  and  O_28
REMARK                            x       y       z     vdW  Elec       q    Type
REMARK                         _______ _______ _______ _____ _____    ______ ____
ROOT
ATOM      1  N   UNL     1      -0.161  11.856  22.035  0.00  0.00    +0.000 N 
ATOM      2  C   UNL     1      -1.233  12.729  21.951  0.00  0.00    +0.000 A 
ATOM      3  N   UNL     1      -0.962  13.924  21.408  0.00  0.00    +0.000 NA
ATOM      4  C   UNL     1      -1.993  14.776  21.279  0.00  0.00    +0.000 A 
ATOM      5  C   UNL     1      -3.282  14.460  21.617  0.00  0.00    +0.000 A 
ATOM      6  C   UNL     1      -3.451  13.220  22.192  0.00  0.00    +0.000 A 
ATOM      7  N   UNL     1      -2.434  12.366  22.409  0.00  0.00    +0.000 NA
ATOM      8  H   UNL     1       0.552  12.234  21.420  0.00  0.00    +0.000 HD
ENDROOT
BRANCH   6   9
ATOM      9  N   UNL     1      -4.722  12.868  22.654  0.00  0.00    +0.000 N 
ATOM     10  C   UNL     1      -5.021  12.822  24.003  0.00  0.00    +0.000 C 
ATOM     11  O   UNL     1      -4.240  12.832  24.938  0.00  0.00    +0.000 OA
ATOM     12  O   UNL     1      -6.380  12.807  24.165  0.00  0.00    +0.000 OA
ATOM     13  C   UNL     1      -6.979  12.645  22.876  0.00  0.00    +0.000 C 
ATOM     14  C   UNL     1      -5.912  13.052  21.872  0.00  0.00    +0.000 C 
BRANCH  14  15
ATOM     15  C   UNL     1      -5.932  12.160  20.604  0.00  0.00    +0.000 C 
ATOM     16  C   UNL     1      -7.166  11.280  20.498  0.00  0.00    +0.000 C 
BRANCH  15  17
ATOM     17  O   UNL     1      -5.872  12.915  19.392  0.00  0.00    +0.000 OA
ATOM     18  H   UNL     1      -5.799  13.865  19.604  0.00  0.00    +0.000 HD
ENDBRANCH  15  17
ENDBRANCH  14  15
ENDBRANCH   6   9
BRANCH   1  19
ATOM     19  C   UNL     1      -0.493  10.454  21.749  0.00  0.00    +0.000 C 
ATOM     20  C   UNL     1      -0.211   9.653  23.027  0.00  0.00    +0.000 C 
BRANCH  19  24
ATOM     21  C   UNL     1       1.450   8.728  19.288  0.00  0.00    +0.000 A 
ATOM     22  N   UNL     1       0.837   9.613  18.487  0.00  0.00    +0.000 NA
ATOM     23  O   UNL     1       0.049  10.360  19.365  0.00  0.00    +0.000 OA
ATOM     24  C   UNL     1       0.262   9.844  20.607  0.00  0.00    +0.000 A 
ATOM     25  N   UNL     1       1.121   8.851  20.616  0.00  0.00    +0.000 NA
BRANCH  21  29
ATOM     26  C   UNL     1       4.181   5.683  18.011  0.00  0.00    +0.000 A 
ATOM     27  C   UNL     1       4.038   6.865  17.270  0.00  0.00    +0.000 A 
ATOM     28  C   UNL     1       3.144   7.863  17.673  0.00  0.00    +0.000 A 
ATOM     29  C   UNL     1       2.377   7.698  18.832  0.00  0.00    +0.000 A 
ATOM     30  C   UNL     1       2.516   6.516  19.571  0.00  0.00    +0.000 A 
ATOM     31  C   UNL     1       3.410   5.522  19.171  0.00  0.00    +0.000 A 
BRANCH  26  33
ATOM     32  C   UNL     1       5.297   4.615  16.059  0.00  0.00    +0.000 C 
ATOM     33  C   UNL     1       5.216   4.654  17.585  0.00  0.00    +0.000 C 
ATOM     34  C   UNL     1       6.606   4.883  18.191  0.00  0.00    +0.000 C 
ENDBRANCH  26  33
ENDBRANCH  21  29
ENDBRANCH  19  24
ENDBRANCH   1  19
TORSDOF 7
ENDMDL
