MODEL 1
REMARK VINA RESULT:      -7.7      0.000      0.000
REMARK  Name = 
REMARK  3 active torsions:
REMARK  status: ('A' for Active; 'I' for Inactive)
REMARK    1  A    between atoms: C_6  and  S_7
REMARK    2  A    between atoms: S_7  and  C_8
REMARK    3  A    between atoms: C_8  and  C_9
REMARK                            x       y       z     vdW  Elec       q    Type
REMARK                         _______ _______ _______ _____ _____    ______ ____
ROOT
ATOM      1  N   UNL     1       8.508   7.075  19.047  0.00  0.00    +0.000 N 
ATOM      2  C   UNL     1       7.598   6.241  18.489  0.00  0.00    +0.000 A 
ATOM      3  N   UNL     1       6.923   5.406  19.237  0.00  0.00    +0.000 NA
ATOM      4  C   UNL     1       6.087   4.611  18.526  0.00  0.00    +0.000 A 
ATOM      5  N   UNL     1       5.277   3.639  19.034  0.00  0.00    +0.000 N 
ATOM      6  C   UNL     1       4.641   3.052  17.971  0.00  0.00    +0.000 A 
ATOM      7  N   UNL     1       4.976   3.593  16.821  0.00  0.00    +0.000 NA
ATOM      8  C   UNL     1       5.873   4.578  17.169  0.00  0.00    +0.000 A 
ATOM      9  C   UNL     1       6.602   5.530  16.360  0.00  0.00    +0.000 A 
ATOM     10  O   UNL     1       6.526   5.643  15.140  0.00  0.00    +0.000 OA
ATOM     11  N   UNL     1       7.443   6.337  17.120  0.00  0.00    +0.000 N 
ATOM     12  H   UNL     1       8.480   7.142  20.059  0.00  0.00    +0.000 HD
ATOM     13  H   UNL     1       8.823   7.902  18.562  0.00  0.00    +0.000 HD
ATOM     14  H   UNL     1       5.174   3.388  20.005  0.00  0.00    +0.000 HD
ATOM     15  H   UNL     1       7.989   6.995  16.594  0.00  0.00    +0.000 HD
ENDROOT
BRANCH   6  16
ATOM     16  S   UNL     1       3.523   1.765  18.249  0.00  0.00    +0.000 S 
BRANCH  16  17
ATOM     17  C   UNL     1       1.935   2.605  17.965  0.00  0.00    +0.000 C 
BRANCH  17  18
ATOM     18  C   UNL     1       1.857   3.926  18.703  0.00  0.00    +0.000 A 
ATOM     19  C   UNL     1       2.091   5.137  18.030  0.00  0.00    +0.000 A 
ATOM     20  C   UNL     1       2.016   6.358  18.709  0.00  0.00    +0.000 A 
ATOM     21  C   UNL     1       1.714   6.376  20.069  0.00  0.00    +0.000 A 
ATOM     22 BR   UNL     1       1.614   8.026  20.988  0.00  0.00    +0.000 Br
ATOM     23  C   UNL     1       1.487   5.186  20.754  0.00  0.00    +0.000 A 
ATOM     24  C   UNL     1       1.560   3.965  20.075  0.00  0.00    +0.000 A 
ENDBRANCH  17  18
ENDBRANCH  16  17
ENDBRANCH   6  16
TORSDOF 3
ENDMDL
MODEL 2
REMARK VINA RESULT:      -7.6      1.642      2.587
REMARK  Name = 
REMARK  3 active torsions:
REMARK  status: ('A' for Active; 'I' for Inactive)
REMARK    1  A    between atoms: C_6  and  S_7
REMARK    2  A    between atoms: S_7  and  C_8
REMARK    3  A    between atoms: C_8  and  C_9
REMARK                            x       y       z     vdW  Elec       q    Type
REMARK                         _______ _______ _______ _____ _____    ______ ____
ROOT
ATOM      1  N   UNL     1       7.239   5.231  14.039  0.00  0.00    +0.000 N 
ATOM      2  C   UNL     1       6.904   5.048  15.338  0.00  0.00    +0.000 A 
ATOM      3  N   UNL     1       6.056   4.109  15.674  0.00  0.00    +0.000 NA
ATOM      4  C   UNL     1       5.790   4.083  17.003  0.00  0.00    +0.000 A 
ATOM      5  N   UNL     1       4.935   3.230  17.634  0.00  0.00    +0.000 N 
ATOM      6  C   UNL     1       4.929   3.576  18.961  0.00  0.00    +0.000 A 
ATOM      7  N   UNL     1       5.735   4.581  19.222  0.00  0.00    +0.000 NA
ATOM      8  C   UNL     1       6.284   4.891  17.998  0.00  0.00    +0.000 A 
ATOM      9  C   UNL     1       7.247   5.902  17.615  0.00  0.00    +0.000 A 
ATOM     10  O   UNL     1       7.791   6.698  18.373  0.00  0.00    +0.000 OA
ATOM     11  N   UNL     1       7.504   5.896  16.248  0.00  0.00    +0.000 N 
ATOM     12  H   UNL     1       6.956   4.493  13.404  0.00  0.00    +0.000 HD
ATOM     13  H   UNL     1       8.079   5.731  13.783  0.00  0.00    +0.000 HD
ATOM     14  H   UNL     1       4.395   2.493  17.207  0.00  0.00    +0.000 HD
ATOM     15  H   UNL     1       8.148   6.601  15.934  0.00  0.00    +0.000 HD
ENDROOT
BRANCH   6  16
ATOM     16  S   UNL     1       3.945   2.692  20.070  0.00  0.00    +0.000 S 
BRANCH  16  17
ATOM     17  C   UNL     1       2.278   3.206  19.556  0.00  0.00    +0.000 C 
BRANCH  17  18
ATOM     18  C   UNL     1       2.214   4.691  19.259  0.00  0.00    +0.000 A 
ATOM     19  C   UNL     1       2.214   5.630  20.303  0.00  0.00    +0.000 A 
ATOM     20  C   UNL     1       2.158   7.001  20.030  0.00  0.00    +0.000 A 
ATOM     21  C   UNL     1       2.095   7.442  18.710  0.00  0.00    +0.000 A 
ATOM     22 BR   UNL     1       2.018   9.296  18.341  0.00  0.00    +0.000 Br
ATOM     23  C   UNL     1       2.087   6.526  17.663  0.00  0.00    +0.000 A 
ATOM     24  C   UNL     1       2.144   5.155  17.935  0.00  0.00    +0.000 A 
ENDBRANCH  17  18
ENDBRANCH  16  17
ENDBRANCH   6  16
TORSDOF 3
ENDMDL
MODEL 3
REMARK VINA RESULT:      -7.6      1.683      2.463
REMARK  Name = 
REMARK  3 active torsions:
REMARK  status: ('A' for Active; 'I' for Inactive)
REMARK    1  A    between atoms: C_6  and  S_7
REMARK    2  A    between atoms: S_7  and  C_8
REMARK    3  A    between atoms: C_8  and  C_9
REMARK                            x       y       z     vdW  Elec       q    Type
REMARK                         _______ _______ _______ _____ _____    ______ ____
ROOT
ATOM      1  N   UNL     1       7.159   5.091  13.948  0.00  0.00    +0.000 N 
ATOM      2  C   UNL     1       6.849   4.951  15.260  0.00  0.00    +0.000 A 
ATOM      3  N   UNL     1       6.006   4.027  15.643  0.00  0.00    +0.000 NA
ATOM      4  C   UNL     1       5.767   4.044  16.977  0.00  0.00    +0.000 A 
ATOM      5  N   UNL     1       4.923   3.215  17.653  0.00  0.00    +0.000 N 
ATOM      6  C   UNL     1       4.946   3.604  18.968  0.00  0.00    +0.000 A 
ATOM      7  N   UNL     1       5.760   4.615  19.180  0.00  0.00    +0.000 NA
ATOM      8  C   UNL     1       6.285   4.883  17.935  0.00  0.00    +0.000 A 
ATOM      9  C   UNL     1       7.241   5.877  17.500  0.00  0.00    +0.000 A 
ATOM     10  O   UNL     1       7.803   6.697  18.220  0.00  0.00    +0.000 OA
ATOM     11  N   UNL     1       7.470   5.826  16.129  0.00  0.00    +0.000 N 
ATOM     12  H   UNL     1       6.861   4.333  13.343  0.00  0.00    +0.000 HD
ATOM     13  H   UNL     1       7.994   5.579  13.659  0.00  0.00    +0.000 HD
ATOM     14  H   UNL     1       4.373   2.466  17.262  0.00  0.00    +0.000 HD
ATOM     15  H   UNL     1       8.109   6.518  15.779  0.00  0.00    +0.000 HD
ENDROOT
BRANCH   6  16
ATOM     16  S   UNL     1       3.983   2.760  20.126  0.00  0.00    +0.000 S 
BRANCH  16  17
ATOM     17  C   UNL     1       2.307   3.251  19.619  0.00  0.00    +0.000 C 
BRANCH  17  18
ATOM     18  C   UNL     1       2.232   4.724  19.274  0.00  0.00    +0.000 A 
ATOM     19  C   UNL     1       2.130   5.142  17.937  0.00  0.00    +0.000 A 
ATOM     20  C   UNL     1       2.057   6.502  17.618  0.00  0.00    +0.000 A 
ATOM     21  C   UNL     1       2.093   7.455  18.634  0.00  0.00    +0.000 A 
ATOM     22 BR   UNL     1       1.997   9.294  18.202  0.00  0.00    +0.000 Br
ATOM     23  C   UNL     1       2.202   7.060  19.963  0.00  0.00    +0.000 A 
ATOM     24  C   UNL     1       2.273   5.700  20.284  0.00  0.00    +0.000 A 
ENDBRANCH  17  18
ENDBRANCH  16  17
ENDBRANCH   6  16
TORSDOF 3
ENDMDL
MODEL 4
REMARK VINA RESULT:      -7.3      2.277      3.387
REMARK  Name = 
REMARK  3 active torsions:
REMARK  status: ('A' for Active; 'I' for Inactive)
REMARK    1  A    between atoms: C_6  and  S_7
REMARK    2  A    between atoms: S_7  and  C_8
REMARK    3  A    between atoms: C_8  and  C_9
REMARK                            x       y       z     vdW  Elec       q    Type
REMARK                         _______ _______ _______ _____ _____    ______ ____
ROOT
ATOM      1  N   UNL     1       7.592   5.009  14.393  0.00  0.00    +0.000 N 
ATOM      2  C   UNL     1       6.927   4.878  15.566  0.00  0.00    +0.000 A 
ATOM      3  N   UNL     1       5.623   4.774  15.576  0.00  0.00    +0.000 NA
ATOM      4  C   UNL     1       5.105   4.696  16.827  0.00  0.00    +0.000 A 
ATOM      5  N   UNL     1       3.783   4.600  17.144  0.00  0.00    +0.000 N 
ATOM      6  C   UNL     1       3.699   4.593  18.513  0.00  0.00    +0.000 A 
ATOM      7  N   UNL     1       4.877   4.661  19.090  0.00  0.00    +0.000 NA
ATOM      8  C   UNL     1       5.760   4.714  18.035  0.00  0.00    +0.000 A 
ATOM      9  C   UNL     1       7.204   4.796  18.005  0.00  0.00    +0.000 A 
ATOM     10  O   UNL     1       7.943   4.814  18.985  0.00  0.00    +0.000 OA
ATOM     11  N   UNL     1       7.704   4.865  16.708  0.00  0.00    +0.000 N 
ATOM     12  H   UNL     1       7.049   4.823  13.557  0.00  0.00    +0.000 HD
ATOM     13  H   UNL     1       8.579   4.805  14.328  0.00  0.00    +0.000 HD
ATOM     14  H   UNL     1       3.010   4.557  16.498  0.00  0.00    +0.000 HD
ATOM     15  H   UNL     1       8.702   4.950  16.642  0.00  0.00    +0.000 HD
ENDROOT
BRANCH   6  16
ATOM     16  S   UNL     1       2.153   4.477  19.273  0.00  0.00    +0.000 S 
BRANCH  16  17
ATOM     17  C   UNL     1       2.328   5.684  20.622  0.00  0.00    +0.000 C 
BRANCH  17  18
ATOM     18  C   UNL     1       1.886   7.070  20.197  0.00  0.00    +0.000 A 
ATOM     19  C   UNL     1       1.144   7.884  21.069  0.00  0.00    +0.000 A 
ATOM     20  C   UNL     1       0.739   9.165  20.679  0.00  0.00    +0.000 A 
ATOM     21  C   UNL     1       1.068   9.639  19.411  0.00  0.00    +0.000 A 
ATOM     22 BR   UNL     1       0.519  11.370  18.883  0.00  0.00    +0.000 Br
ATOM     23  C   UNL     1       1.796   8.844  18.531  0.00  0.00    +0.000 A 
ATOM     24  C   UNL     1       2.203   7.564  18.920  0.00  0.00    +0.000 A 
ENDBRANCH  17  18
ENDBRANCH  16  17
ENDBRANCH   6  16
TORSDOF 3
ENDMDL
MODEL 5
REMARK VINA RESULT:      -7.3      2.933      4.059
REMARK  Name = 
REMARK  3 active torsions:
REMARK  status: ('A' for Active; 'I' for Inactive)
REMARK    1  A    between atoms: C_6  and  S_7
REMARK    2  A    between atoms: S_7  and  C_8
REMARK    3  A    between atoms: C_8  and  C_9
REMARK                            x       y       z     vdW  Elec       q    Type
REMARK                         _______ _______ _______ _____ _____    ______ ____
ROOT
ATOM      1  N   UNL     1       7.437   4.722  14.060  0.00  0.00    +0.000 N 
ATOM      2  C   UNL     1       6.892   4.843  15.294  0.00  0.00    +0.000 A 
ATOM      3  N   UNL     1       5.635   5.179  15.430  0.00  0.00    +0.000 NA
ATOM      4  C   UNL     1       5.254   5.303  16.724  0.00  0.00    +0.000 A 
ATOM      5  N   UNL     1       4.015   5.658  17.167  0.00  0.00    +0.000 N 
ATOM      6  C   UNL     1       4.076   5.707  18.535  0.00  0.00    +0.000 A 
ATOM      7  N   UNL     1       5.265   5.391  18.998  0.00  0.00    +0.000 NA
ATOM      8  C   UNL     1       6.000   5.126  17.865  0.00  0.00    +0.000 A 
ATOM      9  C   UNL     1       7.379   4.722  17.698  0.00  0.00    +0.000 A 
ATOM     10  O   UNL     1       8.181   4.513  18.604  0.00  0.00    +0.000 OA
ATOM     11  N   UNL     1       7.736   4.595  16.359  0.00  0.00    +0.000 N 
ATOM     12  H   UNL     1       6.779   4.710  13.289  0.00  0.00    +0.000 HD
ATOM     13  H   UNL     1       8.290   4.200  13.915  0.00  0.00    +0.000 HD
ATOM     14  H   UNL     1       3.207   5.862  16.597  0.00  0.00    +0.000 HD
ATOM     15  H   UNL     1       8.694   4.341  16.197  0.00  0.00    +0.000 HD
ENDROOT
BRANCH   6  16
ATOM     16  S   UNL     1       2.666   6.128  19.439  0.00  0.00    +0.000 S 
BRANCH  16  17
ATOM     17  C   UNL     1       2.320   7.796  18.803  0.00  0.00    +0.000 C 
BRANCH  17  18
ATOM     18  C   UNL     1       1.482   8.605  19.772  0.00  0.00    +0.000 A 
ATOM     19  C   UNL     1       1.366   8.215  21.116  0.00  0.00    +0.000 A 
ATOM     20  C   UNL     1       0.596   8.963  22.013  0.00  0.00    +0.000 A 
ATOM     21  C   UNL     1      -0.070  10.104  21.569  0.00  0.00    +0.000 A 
ATOM     22 BR   UNL     1      -1.113  11.115  22.780  0.00  0.00    +0.000 Br
ATOM     23  C   UNL     1       0.027  10.501  20.239  0.00  0.00    +0.000 A 
ATOM     24  C   UNL     1       0.798   9.755  19.342  0.00  0.00    +0.000 A 
ENDBRANCH  17  18
ENDBRANCH  16  17
ENDBRANCH   6  16
TORSDOF 3
ENDMDL
MODEL 6
REMARK VINA RESULT:      -7.2      3.917      6.349
REMARK  Name = 
REMARK  3 active torsions:
REMARK  status: ('A' for Active; 'I' for Inactive)
REMARK    1  A    between atoms: C_6  and  S_7
REMARK    2  A    between atoms: S_7  and  C_8
REMARK    3  A    between atoms: C_8  and  C_9
REMARK                            x       y       z     vdW  Elec       q    Type
REMARK                         _______ _______ _______ _____ _____    ______ ____
ROOT
ATOM      1  N   UNL     1       1.254   2.720  21.459  0.00  0.00    +0.000 N 
ATOM      2  C   UNL     1       2.149   3.462  20.763  0.00  0.00    +0.000 A 
ATOM      3  N   UNL     1       3.274   2.928  20.358  0.00  0.00    +0.000 NA
ATOM      4  C   UNL     1       4.080   3.809  19.717  0.00  0.00    +0.000 A 
ATOM      5  N   UNL     1       5.314   3.543  19.204  0.00  0.00    +0.000 N 
ATOM      6  C   UNL     1       5.796   4.717  18.687  0.00  0.00    +0.000 A 
ATOM      7  N   UNL     1       4.946   5.712  18.818  0.00  0.00    +0.000 NA
ATOM      8  C   UNL     1       3.866   5.141  19.452  0.00  0.00    +0.000 A 
ATOM      9  C   UNL     1       2.604   5.707  19.877  0.00  0.00    +0.000 A 
ATOM     10  O   UNL     1       2.248   6.870  19.715  0.00  0.00    +0.000 OA
ATOM     11  N   UNL     1       1.797   4.775  20.523  0.00  0.00    +0.000 N 
ATOM     12  H   UNL     1       1.421   1.720  21.463  0.00  0.00    +0.000 HD
ATOM     13  H   UNL     1       0.287   3.003  21.530  0.00  0.00    +0.000 HD
ATOM     14  H   UNL     1       5.792   2.654  19.216  0.00  0.00    +0.000 HD
ATOM     15  H   UNL     1       0.920   5.133  20.858  0.00  0.00    +0.000 HD
ENDROOT
BRANCH   6  16
ATOM     16  S   UNL     1       7.355   4.748  17.945  0.00  0.00    +0.000 S 
BRANCH  16  17
ATOM     17  C   UNL     1       7.058   5.860  16.537  0.00  0.00    +0.000 C 
BRANCH  17  18
ATOM     18  C   UNL     1       6.623   5.099  15.302  0.00  0.00    +0.000 A 
ATOM     19  C   UNL     1       5.390   4.427  15.272  0.00  0.00    +0.000 A 
ATOM     20  C   UNL     1       4.985   3.727  14.130  0.00  0.00    +0.000 A 
ATOM     21  C   UNL     1       5.815   3.689  13.012  0.00  0.00    +0.000 A 
ATOM     22 BR   UNL     1       5.269   2.741  11.469  0.00  0.00    +0.000 Br
ATOM     23  C   UNL     1       7.043   4.342  13.025  0.00  0.00    +0.000 A 
ATOM     24  C   UNL     1       7.448   5.044  14.166  0.00  0.00    +0.000 A 
ENDBRANCH  17  18
ENDBRANCH  16  17
ENDBRANCH   6  16
TORSDOF 3
ENDMDL
MODEL 7
REMARK VINA RESULT:      -7.2      3.181      4.554
REMARK  Name = 
REMARK  3 active torsions:
REMARK  status: ('A' for Active; 'I' for Inactive)
REMARK    1  A    between atoms: C_6  and  S_7
REMARK    2  A    between atoms: S_7  and  C_8
REMARK    3  A    between atoms: C_8  and  C_9
REMARK                            x       y       z     vdW  Elec       q    Type
REMARK                         _______ _______ _______ _____ _____    ______ ____
ROOT
ATOM      1  N   UNL     1       5.332   2.661  11.481  0.00  0.00    +0.000 N 
ATOM      2  C   UNL     1       5.948   3.349  12.472  0.00  0.00    +0.000 A 
ATOM      3  N   UNL     1       5.666   3.096  13.724  0.00  0.00    +0.000 NA
ATOM      4  C   UNL     1       6.330   3.898  14.592  0.00  0.00    +0.000 A 
ATOM      5  N   UNL     1       6.222   3.876  15.950  0.00  0.00    +0.000 N 
ATOM      6  C   UNL     1       7.026   4.876  16.432  0.00  0.00    +0.000 A 
ATOM      7  N   UNL     1       7.653   5.524  15.476  0.00  0.00    +0.000 NA
ATOM      8  C   UNL     1       7.228   4.904  14.323  0.00  0.00    +0.000 A 
ATOM      9  C   UNL     1       7.554   5.148  12.935  0.00  0.00    +0.000 A 
ATOM     10  O   UNL     1       8.336   5.998  12.520  0.00  0.00    +0.000 OA
ATOM     11  N   UNL     1       6.863   4.303  12.072  0.00  0.00    +0.000 N 
ATOM     12  H   UNL     1       4.816   1.838  11.773  0.00  0.00    +0.000 HD
ATOM     13  H   UNL     1       5.722   2.625  10.550  0.00  0.00    +0.000 HD
ATOM     14  H   UNL     1       5.649   3.253  16.498  0.00  0.00    +0.000 HD
ATOM     15  H   UNL     1       7.040   4.457  11.095  0.00  0.00    +0.000 HD
ENDROOT
BRANCH   6  16
ATOM     16  S   UNL     1       7.135   5.137  18.136  0.00  0.00    +0.000 S 
BRANCH  16  17
ATOM     17  C   UNL     1       5.608   6.073  18.451  0.00  0.00    +0.000 C 
BRANCH  17  18
ATOM     18  C   UNL     1       4.404   5.161  18.565  0.00  0.00    +0.000 A 
ATOM     19  C   UNL     1       3.177   5.517  17.980  0.00  0.00    +0.000 A 
ATOM     20  C   UNL     1       2.066   4.674  18.081  0.00  0.00    +0.000 A 
ATOM     21  C   UNL     1       2.170   3.471  18.775  0.00  0.00    +0.000 A 
ATOM     22 BR   UNL     1       0.667   2.332  18.914  0.00  0.00    +0.000 Br
ATOM     23  C   UNL     1       3.375   3.105  19.368  0.00  0.00    +0.000 A 
ATOM     24  C   UNL     1       4.488   3.946  19.266  0.00  0.00    +0.000 A 
ENDBRANCH  17  18
ENDBRANCH  16  17
ENDBRANCH   6  16
TORSDOF 3
ENDMDL
MODEL 8
REMARK VINA RESULT:      -7.2      3.522      6.040
REMARK  Name = 
REMARK  3 active torsions:
REMARK  status: ('A' for Active; 'I' for Inactive)
REMARK    1  A    between atoms: C_6  and  S_7
REMARK    2  A    between atoms: S_7  and  C_8
REMARK    3  A    between atoms: C_8  and  C_9
REMARK                            x       y       z     vdW  Elec       q    Type
REMARK                         _______ _______ _______ _____ _____    ______ ____
ROOT
ATOM      1  N   UNL     1       1.365   1.483  18.764  0.00  0.00    +0.000 N 
ATOM      2  C   UNL     1       2.190   2.539  18.967  0.00  0.00    +0.000 A 
ATOM      3  N   UNL     1       3.470   2.432  18.718  0.00  0.00    +0.000 NA
ATOM      4  C   UNL     1       4.165   3.558  19.015  0.00  0.00    +0.000 A 
ATOM      5  N   UNL     1       5.509   3.732  18.878  0.00  0.00    +0.000 N 
ATOM      6  C   UNL     1       5.799   4.992  19.332  0.00  0.00    +0.000 A 
ATOM      7  N   UNL     1       4.730   5.641  19.734  0.00  0.00    +0.000 NA
ATOM      8  C   UNL     1       3.703   4.748  19.524  0.00  0.00    +0.000 A 
ATOM      9  C   UNL     1       2.280   4.861  19.761  0.00  0.00    +0.000 A 
ATOM     10  O   UNL     1       1.702   5.849  20.202  0.00  0.00    +0.000 OA
ATOM     11  N   UNL     1       1.596   3.693  19.438  0.00  0.00    +0.000 N 
ATOM     12  H   UNL     1       1.762   0.711  18.238  0.00  0.00    +0.000 HD
ATOM     13  H   UNL     1       0.368   1.611  18.668  0.00  0.00    +0.000 HD
ATOM     14  H   UNL     1       6.171   3.057  18.524  0.00  0.00    +0.000 HD
ATOM     15  H   UNL     1       0.607   3.719  19.613  0.00  0.00    +0.000 HD
ENDROOT
BRANCH   6  16
ATOM     16  S   UNL     1       7.431   5.556  19.303  0.00  0.00    +0.000 S 
BRANCH  16  17
ATOM     17  C   UNL     1       7.408   6.637  17.840  0.00  0.00    +0.000 C 
BRANCH  17  18
ATOM     18  C   UNL     1       6.860   5.923  16.622  0.00  0.00    +0.000 A 
ATOM     19  C   UNL     1       5.646   6.327  16.041  0.00  0.00    +0.000 A 
ATOM     20  C   UNL     1       5.140   5.671  14.914  0.00  0.00    +0.000 A 
ATOM     21  C   UNL     1       5.842   4.601  14.363  0.00  0.00    +0.000 A 
ATOM     22 BR   UNL     1       5.157   3.713  12.840  0.00  0.00    +0.000 Br
ATOM     23  C   UNL     1       7.042   4.182  14.929  0.00  0.00    +0.000 A 
ATOM     24  C   UNL     1       7.549   4.838  16.055  0.00  0.00    +0.000 A 
ENDBRANCH  17  18
ENDBRANCH  16  17
ENDBRANCH   6  16
TORSDOF 3
ENDMDL
MODEL 9
REMARK VINA RESULT:      -7.2      3.524      6.056
REMARK  Name = 
REMARK  3 active torsions:
REMARK  status: ('A' for Active; 'I' for Inactive)
REMARK    1  A    between atoms: C_6  and  S_7
REMARK    2  A    between atoms: S_7  and  C_8
REMARK    3  A    between atoms: C_8  and  C_9
REMARK                            x       y       z     vdW  Elec       q    Type
REMARK                         _______ _______ _______ _____ _____    ______ ____
ROOT
ATOM      1  N   UNL     1       1.400   1.475  18.734  0.00  0.00    +0.000 N 
ATOM      2  C   UNL     1       2.219   2.533  18.949  0.00  0.00    +0.000 A 
ATOM      3  N   UNL     1       3.498   2.440  18.687  0.00  0.00    +0.000 NA
ATOM      4  C   UNL     1       4.187   3.565  18.997  0.00  0.00    +0.000 A 
ATOM      5  N   UNL     1       5.530   3.751  18.851  0.00  0.00    +0.000 N 
ATOM      6  C   UNL     1       5.815   5.005  19.326  0.00  0.00    +0.000 A 
ATOM      7  N   UNL     1       4.745   5.639  19.749  0.00  0.00    +0.000 NA
ATOM      8  C   UNL     1       3.722   4.742  19.533  0.00  0.00    +0.000 A 
ATOM      9  C   UNL     1       2.301   4.841  19.785  0.00  0.00    +0.000 A 
ATOM     10  O   UNL     1       1.720   5.816  20.250  0.00  0.00    +0.000 OA
ATOM     11  N   UNL     1       1.622   3.674  19.447  0.00  0.00    +0.000 N 
ATOM     12  H   UNL     1       1.797   0.716  18.191  0.00  0.00    +0.000 HD
ATOM     13  H   UNL     1       0.401   1.598  18.650  0.00  0.00    +0.000 HD
ATOM     14  H   UNL     1       6.192   3.088  18.479  0.00  0.00    +0.000 HD
ATOM     15  H   UNL     1       0.635   3.689  19.631  0.00  0.00    +0.000 HD
ENDROOT
BRANCH   6  16
ATOM     16  S   UNL     1       7.443   5.581  19.292  0.00  0.00    +0.000 S 
BRANCH  16  17
ATOM     17  C   UNL     1       7.410   6.654  17.823  0.00  0.00    +0.000 C 
BRANCH  17  18
ATOM     18  C   UNL     1       6.860   5.931  16.611  0.00  0.00    +0.000 A 
ATOM     19  C   UNL     1       7.530   4.819  16.075  0.00  0.00    +0.000 A 
ATOM     20  C   UNL     1       7.022   4.148  14.958  0.00  0.00    +0.000 A 
ATOM     21  C   UNL     1       5.842   4.590  14.363  0.00  0.00    +0.000 A 
ATOM     22 BR   UNL     1       5.155   3.685  12.851  0.00  0.00    +0.000 Br
ATOM     23  C   UNL     1       5.168   5.695  14.875  0.00  0.00    +0.000 A 
ATOM     24  C   UNL     1       5.675   6.365  15.994  0.00  0.00    +0.000 A 
ENDBRANCH  17  18
ENDBRANCH  16  17
ENDBRANCH   6  16
TORSDOF 3
ENDMDL
