MODEL 1
REMARK VINA RESULT:      -7.1      0.000      0.000
REMARK  Name = 
REMARK  3 active torsions:
REMARK  status: ('A' for Active; 'I' for Inactive)
REMARK    1  A    between atoms: N_1  and  C_2
REMARK    2  A    between atoms: C_7  and  C_8
REMARK    3  A    between atoms: C_11  and  O_12
REMARK                            x       y       z     vdW  Elec       q    Type
REMARK                         _______ _______ _______ _____ _____    ______ ____
ROOT
ATOM      1  C   UNL     1       4.428   4.579  18.067  0.00  0.00    +0.000 A 
ATOM      2  N   UNL     1       4.439   3.562  18.897  0.00  0.00    +0.000 NA
ATOM      3  N   UNL     1       3.681   3.581  20.094  0.00  0.00    +0.000 NA
ATOM      4  C   UNL     1       2.977   4.628  20.363  0.00  0.00    +0.000 A 
ATOM      5  N   UNL     1       2.909   5.743  19.554  0.00  0.00    +0.000 N 
ATOM      6  C   UNL     1       2.252   6.948  19.622  0.00  0.00    +0.000 A 
ATOM      7 BR   UNL     1       1.116   7.568  20.965  0.00  0.00    +0.000 Br
ATOM      8  C   UNL     1       2.615   7.613  18.472  0.00  0.00    +0.000 A 
ATOM      9 BR   UNL     1       2.074   9.336  17.930  0.00  0.00    +0.000 Br
ATOM     10  N   UNL     1       3.470   6.855  17.708  0.00  0.00    +0.000 NA
ATOM     11  C   UNL     1       3.631   5.740  18.389  0.00  0.00    +0.000 A 
ENDROOT
BRANCH   1  17
ATOM     12  C   UNL     1       6.665   4.608  16.901  0.00  0.00    +0.000 A 
ATOM     13  C   UNL     1       7.416   4.541  15.719  0.00  0.00    +0.000 A 
ATOM     14  C   UNL     1       6.795   4.458  14.474  0.00  0.00    +0.000 A 
ATOM     15  C   UNL     1       5.408   4.390  14.395  0.00  0.00    +0.000 A 
ATOM     16  C   UNL     1       4.641   4.405  15.561  0.00  0.00    +0.000 A 
ATOM     17  C   UNL     1       5.256   4.496  16.821  0.00  0.00    +0.000 A 
BRANCH  12  18
ATOM     18  N   UNL     1       7.363   4.546  18.127  0.00  0.00    +0.000 N 
ATOM     19  H   UNL     1       6.869   4.034  18.852  0.00  0.00    +0.000 HD
ATOM     20  H   UNL     1       8.314   4.183  18.002  0.00  0.00    +0.000 HD
ENDBRANCH  12  18
ENDBRANCH   1  17
BRANCH   4  21
ATOM     21  O   UNL     1       2.243   4.711  21.483  0.00  0.00    +0.000 OA
ATOM     22  H   UNL     1       2.557   5.481  21.988  0.00  0.00    +0.000 HD
ENDBRANCH   4  21
TORSDOF 3
ENDMDL
MODEL 2
REMARK VINA RESULT:      -7.1      3.997      5.700
REMARK  Name = 
REMARK  3 active torsions:
REMARK  status: ('A' for Active; 'I' for Inactive)
REMARK    1  A    between atoms: N_1  and  C_2
REMARK    2  A    between atoms: C_7  and  C_8
REMARK    3  A    between atoms: C_11  and  O_12
REMARK                            x       y       z     vdW  Elec       q    Type
REMARK                         _______ _______ _______ _____ _____    ______ ____
ROOT
ATOM      1  C   UNL     1       4.787   4.731  17.544  0.00  0.00    +0.000 A 
ATOM      2  N   UNL     1       5.382   5.553  18.376  0.00  0.00    +0.000 NA
ATOM      3  N   UNL     1       6.518   6.304  17.980  0.00  0.00    +0.000 NA
ATOM      4  C   UNL     1       6.967   6.159  16.780  0.00  0.00    +0.000 A 
ATOM      5  N   UNL     1       6.409   5.315  15.842  0.00  0.00    +0.000 N 
ATOM      6  C   UNL     1       6.698   4.994  14.538  0.00  0.00    +0.000 A 
ATOM      7 BR   UNL     1       8.084   5.641  13.470  0.00  0.00    +0.000 Br
ATOM      8  C   UNL     1       5.734   4.080  14.178  0.00  0.00    +0.000 A 
ATOM      9 BR   UNL     1       5.541   3.217  12.512  0.00  0.00    +0.000 Br
ATOM     10  N   UNL     1       4.869   3.833  15.217  0.00  0.00    +0.000 NA
ATOM     11  C   UNL     1       5.307   4.586  16.205  0.00  0.00    +0.000 A 
ENDROOT
BRANCH   1  17
ATOM     12  C   UNL     1       3.772   2.798  18.809  0.00  0.00    +0.000 A 
ATOM     13  C   UNL     1       2.639   2.090  19.237  0.00  0.00    +0.000 A 
ATOM     14  C   UNL     1       1.359   2.467  18.832  0.00  0.00    +0.000 A 
ATOM     15  C   UNL     1       1.189   3.589  18.030  0.00  0.00    +0.000 A 
ATOM     16  C   UNL     1       2.298   4.338  17.632  0.00  0.00    +0.000 A 
ATOM     17  C   UNL     1       3.593   3.965  18.028  0.00  0.00    +0.000 A 
BRANCH  12  18
ATOM     18  N   UNL     1       5.018   2.446  19.373  0.00  0.00    +0.000 N 
ATOM     19  H   UNL     1       5.653   2.004  18.716  0.00  0.00    +0.000 HD
ATOM     20  H   UNL     1       5.463   3.248  19.834  0.00  0.00    +0.000 HD
ENDBRANCH  12  18
ENDBRANCH   1  17
BRANCH   4  21
ATOM     21  O   UNL     1       8.042   6.835  16.347  0.00  0.00    +0.000 OA
ATOM     22  H   UNL     1       7.761   7.393  15.601  0.00  0.00    +0.000 HD
ENDBRANCH   4  21
TORSDOF 3
ENDMDL
MODEL 3
REMARK VINA RESULT:      -7.0      3.607      5.037
REMARK  Name = 
REMARK  3 active torsions:
REMARK  status: ('A' for Active; 'I' for Inactive)
REMARK    1  A    between atoms: N_1  and  C_2
REMARK    2  A    between atoms: C_7  and  C_8
REMARK    3  A    between atoms: C_11  and  O_12
REMARK                            x       y       z     vdW  Elec       q    Type
REMARK                         _______ _______ _______ _____ _____    ______ ____
ROOT
ATOM      1  C   UNL     1       2.251   6.729  19.252  0.00  0.00    +0.000 A 
ATOM      2  N   UNL     1       2.701   6.933  18.037  0.00  0.00    +0.000 NA
ATOM      3  N   UNL     1       2.598   8.204  17.419  0.00  0.00    +0.000 NA
ATOM      4  C   UNL     1       2.041   9.167  18.073  0.00  0.00    +0.000 A 
ATOM      5  N   UNL     1       1.536   9.042  19.351  0.00  0.00    +0.000 N 
ATOM      6  C   UNL     1       0.913   9.893  20.231  0.00  0.00    +0.000 A 
ATOM      7 BR   UNL     1       0.480  11.691  19.987  0.00  0.00    +0.000 Br
ATOM      8  C   UNL     1       0.672   9.128  21.350  0.00  0.00    +0.000 A 
ATOM      9 BR   UNL     1      -0.168   9.674  22.948  0.00  0.00    +0.000 Br
ATOM     10  N   UNL     1       1.125   7.842  21.181  0.00  0.00    +0.000 NA
ATOM     11  C   UNL     1       1.633   7.821  19.966  0.00  0.00    +0.000 A 
ENDROOT
BRANCH   1  17
ATOM     12  C   UNL     1       3.615   4.661  19.729  0.00  0.00    +0.000 A 
ATOM     13  C   UNL     1       3.714   3.374  20.280  0.00  0.00    +0.000 A 
ATOM     14  C   UNL     1       2.608   2.749  20.853  0.00  0.00    +0.000 A 
ATOM     15  C   UNL     1       1.394   3.421  20.929  0.00  0.00    +0.000 A 
ATOM     16  C   UNL     1       1.284   4.721  20.432  0.00  0.00    +0.000 A 
ATOM     17  C   UNL     1       2.389   5.360  19.846  0.00  0.00    +0.000 A 
BRANCH  12  18
ATOM     18  N   UNL     1       4.806   5.284  19.297  0.00  0.00    +0.000 N 
ATOM     19  H   UNL     1       4.825   5.480  18.301  0.00  0.00    +0.000 HD
ATOM     20  H   UNL     1       5.010   6.128  19.843  0.00  0.00    +0.000 HD
ENDBRANCH  12  18
ENDBRANCH   1  17
BRANCH   4  21
ATOM     21  O   UNL     1       1.906  10.391  17.541  0.00  0.00    +0.000 OA
ATOM     22  H   UNL     1       1.638  10.283  16.612  0.00  0.00    +0.000 HD
ENDBRANCH   4  21
TORSDOF 3
ENDMDL
MODEL 4
REMARK VINA RESULT:      -6.6      3.994      5.876
REMARK  Name = 
REMARK  3 active torsions:
REMARK  status: ('A' for Active; 'I' for Inactive)
REMARK    1  A    between atoms: N_1  and  C_2
REMARK    2  A    between atoms: C_7  and  C_8
REMARK    3  A    between atoms: C_11  and  O_12
REMARK                            x       y       z     vdW  Elec       q    Type
REMARK                         _______ _______ _______ _____ _____    ______ ____
ROOT
ATOM      1  C   UNL     1       4.781   4.644  17.371  0.00  0.00    +0.000 A 
ATOM      2  N   UNL     1       5.344   5.455  18.235  0.00  0.00    +0.000 NA
ATOM      3  N   UNL     1       6.484   6.221  17.888  0.00  0.00    +0.000 NA
ATOM      4  C   UNL     1       6.972   6.102  16.700  0.00  0.00    +0.000 A 
ATOM      5  N   UNL     1       6.449   5.272  15.730  0.00  0.00    +0.000 N 
ATOM      6  C   UNL     1       6.780   4.977  14.430  0.00  0.00    +0.000 A 
ATOM      7 BR   UNL     1       8.193   5.653  13.417  0.00  0.00    +0.000 Br
ATOM      8  C   UNL     1       5.835   4.062  14.024  0.00  0.00    +0.000 A 
ATOM      9 BR   UNL     1       5.700   3.229  12.337  0.00  0.00    +0.000 Br
ATOM     10  N   UNL     1       4.941   3.789  15.032  0.00  0.00    +0.000 NA
ATOM     11  C   UNL     1       5.342   4.527  16.046  0.00  0.00    +0.000 A 
ENDROOT
BRANCH   1  17
ATOM     12  C   UNL     1       2.407   4.537  18.220  0.00  0.00    +0.000 A 
ATOM     13  C   UNL     1       1.301   3.782  18.635  0.00  0.00    +0.000 A 
ATOM     14  C   UNL     1       1.371   2.392  18.726  0.00  0.00    +0.000 A 
ATOM     15  C   UNL     1       2.536   1.731  18.356  0.00  0.00    +0.000 A 
ATOM     16  C   UNL     1       3.635   2.459  17.894  0.00  0.00    +0.000 A 
ATOM     17  C   UNL     1       3.579   3.860  17.804  0.00  0.00    +0.000 A 
BRANCH  12  18
ATOM     18  N   UNL     1       2.218   5.922  18.016  0.00  0.00    +0.000 N 
ATOM     19  H   UNL     1       1.298   6.252  18.291  0.00  0.00    +0.000 HD
ATOM     20  H   UNL     1       2.957   6.474  18.464  0.00  0.00    +0.000 HD
ENDBRANCH  12  18
ENDBRANCH   1  17
BRANCH   4  21
ATOM     21  O   UNL     1       8.054   6.794  16.312  0.00  0.00    +0.000 OA
ATOM     22  H   UNL     1       8.818   6.451  16.807  0.00  0.00    +0.000 HD
ENDBRANCH   4  21
TORSDOF 3
ENDMDL
MODEL 5
REMARK VINA RESULT:      -6.5      4.231      5.363
REMARK  Name = 
REMARK  3 active torsions:
REMARK  status: ('A' for Active; 'I' for Inactive)
REMARK    1  A    between atoms: N_1  and  C_2
REMARK    2  A    between atoms: C_7  and  C_8
REMARK    3  A    between atoms: C_11  and  O_12
REMARK                            x       y       z     vdW  Elec       q    Type
REMARK                         _______ _______ _______ _____ _____    ______ ____
ROOT
ATOM      1  C   UNL     1       2.060   6.481  19.270  0.00  0.00    +0.000 A 
ATOM      2  N   UNL     1       2.617   6.662  18.096  0.00  0.00    +0.000 NA
ATOM      3  N   UNL     1       2.698   7.950  17.511  0.00  0.00    +0.000 NA
ATOM      4  C   UNL     1       2.203   8.953  18.154  0.00  0.00    +0.000 A 
ATOM      5  N   UNL     1       1.596   8.856  19.389  0.00  0.00    +0.000 N 
ATOM      6  C   UNL     1       1.008   9.751  20.249  0.00  0.00    +0.000 A 
ATOM      7 BR   UNL     1       0.792  11.591  20.030  0.00  0.00    +0.000 Br
ATOM      8  C   UNL     1       0.603   8.993  21.325  0.00  0.00    +0.000 A 
ATOM      9 BR   UNL     1      -0.286   9.592  22.876  0.00  0.00    +0.000 Br
ATOM     10  N   UNL     1       0.924   7.668  21.149  0.00  0.00    +0.000 NA
ATOM     11  C   UNL     1       1.514   7.618  19.972  0.00  0.00    +0.000 A 
ENDROOT
BRANCH   1  17
ATOM     12  C   UNL     1       1.496   4.033  19.040  0.00  0.00    +0.000 A 
ATOM     13  C   UNL     1       1.440   2.744  19.591  0.00  0.00    +0.000 A 
ATOM     14  C   UNL     1       1.790   2.514  20.921  0.00  0.00    +0.000 A 
ATOM     15  C   UNL     1       2.249   3.564  21.708  0.00  0.00    +0.000 A 
ATOM     16  C   UNL     1       2.360   4.846  21.166  0.00  0.00    +0.000 A 
ATOM     17  C   UNL     1       2.004   5.092  19.830  0.00  0.00    +0.000 A 
BRANCH  12  18
ATOM     18  N   UNL     1       1.264   4.164  17.653  0.00  0.00    +0.000 N 
ATOM     19  H   UNL     1       0.822   5.041  17.395  0.00  0.00    +0.000 HD
ATOM     20  H   UNL     1       2.122   4.010  17.111  0.00  0.00    +0.000 HD
ENDBRANCH  12  18
ENDBRANCH   1  17
BRANCH   4  21
ATOM     21  O   UNL     1       2.242  10.197  17.652  0.00  0.00    +0.000 OA
ATOM     22  H   UNL     1       1.622  10.744  18.165  0.00  0.00    +0.000 HD
ENDBRANCH   4  21
TORSDOF 3
ENDMDL
MODEL 6
REMARK VINA RESULT:      -6.4      3.354      6.558
REMARK  Name = 
REMARK  3 active torsions:
REMARK  status: ('A' for Active; 'I' for Inactive)
REMARK    1  A    between atoms: N_1  and  C_2
REMARK    2  A    between atoms: C_7  and  C_8
REMARK    3  A    between atoms: C_11  and  O_12
REMARK                            x       y       z     vdW  Elec       q    Type
REMARK                         _______ _______ _______ _____ _____    ______ ____
ROOT
ATOM      1  C   UNL     1       2.249   7.599  19.204  0.00  0.00    +0.000 A 
ATOM      2  N   UNL     1       2.948   8.060  18.193  0.00  0.00    +0.000 NA
ATOM      3  N   UNL     1       3.754   7.203  17.405  0.00  0.00    +0.000 NA
ATOM      4  C   UNL     1       3.798   5.948  17.702  0.00  0.00    +0.000 A 
ATOM      5  N   UNL     1       3.103   5.377  18.748  0.00  0.00    +0.000 N 
ATOM      6  C   UNL     1       2.991   4.105  19.254  0.00  0.00    +0.000 A 
ATOM      7 BR   UNL     1       3.825   2.548  18.654  0.00  0.00    +0.000 Br
ATOM      8  C   UNL     1       2.120   4.222  20.313  0.00  0.00    +0.000 A 
ATOM      9 BR   UNL     1       1.526   2.848  21.462  0.00  0.00    +0.000 Br
ATOM     10  N   UNL     1       1.698   5.520  20.471  0.00  0.00    +0.000 NA
ATOM     11  C   UNL     1       2.313   6.191  19.518  0.00  0.00    +0.000 A 
ENDROOT
BRANCH   1  17
ATOM     12  C   UNL     1       0.756   9.627  19.347  0.00  0.00    +0.000 A 
ATOM     13  C   UNL     1      -0.002  10.523  20.115  0.00  0.00    +0.000 A 
ATOM     14  C   UNL     1      -0.036  10.430  21.505  0.00  0.00    +0.000 A 
ATOM     15  C   UNL     1       0.651   9.406  22.148  0.00  0.00    +0.000 A 
ATOM     16  C   UNL     1       1.372   8.473  21.401  0.00  0.00    +0.000 A 
ATOM     17  C   UNL     1       1.420   8.561  19.999  0.00  0.00    +0.000 A 
BRANCH  12  18
ATOM     18  N   UNL     1       0.628   9.696  17.942  0.00  0.00    +0.000 N 
ATOM     19  H   UNL     1      -0.063   9.055  17.564  0.00  0.00    +0.000 HD
ATOM     20  H   UNL     1       0.453  10.656  17.625  0.00  0.00    +0.000 HD
ENDBRANCH  12  18
ENDBRANCH   1  17
BRANCH   4  21
ATOM     21  O   UNL     1       4.548   5.086  16.999  0.00  0.00    +0.000 OA
ATOM     22  H   UNL     1       4.463   5.317  16.058  0.00  0.00    +0.000 HD
ENDBRANCH   4  21
TORSDOF 3
ENDMDL
MODEL 7
REMARK VINA RESULT:      -6.3      2.702      3.872
REMARK  Name = 
REMARK  3 active torsions:
REMARK  status: ('A' for Active; 'I' for Inactive)
REMARK    1  A    between atoms: N_1  and  C_2
REMARK    2  A    between atoms: C_7  and  C_8
REMARK    3  A    between atoms: C_11  and  O_12
REMARK                            x       y       z     vdW  Elec       q    Type
REMARK                         _______ _______ _______ _____ _____    ______ ____
ROOT
ATOM      1  C   UNL     1       5.159   5.300  15.363  0.00  0.00    +0.000 A 
ATOM      2  N   UNL     1       5.155   6.612  15.391  0.00  0.00    +0.000 NA
ATOM      3  N   UNL     1       4.621   7.322  16.495  0.00  0.00    +0.000 NA
ATOM      4  C   UNL     1       4.124   6.652  17.480  0.00  0.00    +0.000 A 
ATOM      5  N   UNL     1       4.081   5.274  17.533  0.00  0.00    +0.000 N 
ATOM      6  C   UNL     1       3.616   4.357  18.443  0.00  0.00    +0.000 A 
ATOM      7 BR   UNL     1       2.791   4.677  20.085  0.00  0.00    +0.000 Br
ATOM      8  C   UNL     1       3.890   3.131  17.880  0.00  0.00    +0.000 A 
ATOM      9 BR   UNL     1       3.507   1.430  18.601  0.00  0.00    +0.000 Br
ATOM     10  N   UNL     1       4.505   3.270  16.659  0.00  0.00    +0.000 NA
ATOM     11  C   UNL     1       4.599   4.571  16.477  0.00  0.00    +0.000 A 
ENDROOT
BRANCH   1  17
ATOM     12  C   UNL     1       7.072   4.876  13.774  0.00  0.00    +0.000 A 
ATOM     13  C   UNL     1       7.585   4.230  12.639  0.00  0.00    +0.000 A 
ATOM     14  C   UNL     1       6.778   3.412  11.850  0.00  0.00    +0.000 A 
ATOM     15  C   UNL     1       5.455   3.187  12.211  0.00  0.00    +0.000 A 
ATOM     16  C   UNL     1       4.936   3.779  13.364  0.00  0.00    +0.000 A 
ATOM     17  C   UNL     1       5.737   4.612  14.164  0.00  0.00    +0.000 A 
BRANCH  12  18
ATOM     18  N   UNL     1       7.981   5.571  14.601  0.00  0.00    +0.000 N 
ATOM     19  H   UNL     1       7.653   6.489  14.886  0.00  0.00    +0.000 HD
ATOM     20  H   UNL     1       8.256   5.009  15.414  0.00  0.00    +0.000 HD
ENDBRANCH  12  18
ENDBRANCH   1  17
BRANCH   4  21
ATOM     21  O   UNL     1       3.597   7.265  18.550  0.00  0.00    +0.000 OA
ATOM     22  H   UNL     1       2.785   6.787  18.795  0.00  0.00    +0.000 HD
ENDBRANCH   4  21
TORSDOF 3
ENDMDL
MODEL 8
REMARK VINA RESULT:      -6.2      3.172      5.630
REMARK  Name = 
REMARK  3 active torsions:
REMARK  status: ('A' for Active; 'I' for Inactive)
REMARK    1  A    between atoms: N_1  and  C_2
REMARK    2  A    between atoms: C_7  and  C_8
REMARK    3  A    between atoms: C_11  and  O_12
REMARK                            x       y       z     vdW  Elec       q    Type
REMARK                         _______ _______ _______ _____ _____    ______ ____
ROOT
ATOM      1  C   UNL     1       2.768   6.498  18.218  0.00  0.00    +0.000 A 
ATOM      2  N   UNL     1       2.075   5.391  18.088  0.00  0.00    +0.000 NA
ATOM      3  N   UNL     1       2.683   4.191  17.643  0.00  0.00    +0.000 NA
ATOM      4  C   UNL     1       3.940   4.204  17.355  0.00  0.00    +0.000 A 
ATOM      5  N   UNL     1       4.744   5.320  17.455  0.00  0.00    +0.000 N 
ATOM      6  C   UNL     1       6.071   5.580  17.212  0.00  0.00    +0.000 A 
ATOM      7 BR   UNL     1       7.382   4.407  16.593  0.00  0.00    +0.000 Br
ATOM      8  C   UNL     1       6.233   6.911  17.526  0.00  0.00    +0.000 A 
ATOM      9 BR   UNL     1       7.818   7.927  17.416  0.00  0.00    +0.000 Br
ATOM     10  N   UNL     1       5.051   7.470  17.951  0.00  0.00    +0.000 NA
ATOM     11  C   UNL     1       4.175   6.489  17.891  0.00  0.00    +0.000 A 
ENDROOT
BRANCH   1  17
ATOM     12  C   UNL     1       1.583   7.805  20.020  0.00  0.00    +0.000 A 
ATOM     13  C   UNL     1       0.913   8.966  20.435  0.00  0.00    +0.000 A 
ATOM     14  C   UNL     1       0.640   9.998  19.539  0.00  0.00    +0.000 A 
ATOM     15  C   UNL     1       1.076   9.907  18.222  0.00  0.00    +0.000 A 
ATOM     16  C   UNL     1       1.788   8.783  17.799  0.00  0.00    +0.000 A 
ATOM     17  C   UNL     1       2.063   7.733  18.690  0.00  0.00    +0.000 A 
BRANCH  12  18
ATOM     18  N   UNL     1       1.949   6.869  21.012  0.00  0.00    +0.000 N 
ATOM     19  H   UNL     1       1.230   6.715  21.712  0.00  0.00    +0.000 HD
ATOM     20  H   UNL     1       2.257   5.982  20.598  0.00  0.00    +0.000 HD
ENDBRANCH  12  18
ENDBRANCH   1  17
BRANCH   4  21
ATOM     21  O   UNL     1       4.572   3.103  16.921  0.00  0.00    +0.000 OA
ATOM     22  H   UNL     1       3.900   2.496  16.564  0.00  0.00    +0.000 HD
ENDBRANCH   4  21
TORSDOF 3
ENDMDL
MODEL 9
REMARK VINA RESULT:      -6.2      2.668      3.759
REMARK  Name = 
REMARK  3 active torsions:
REMARK  status: ('A' for Active; 'I' for Inactive)
REMARK    1  A    between atoms: N_1  and  C_2
REMARK    2  A    between atoms: C_7  and  C_8
REMARK    3  A    between atoms: C_11  and  O_12
REMARK                            x       y       z     vdW  Elec       q    Type
REMARK                         _______ _______ _______ _____ _____    ______ ____
ROOT
ATOM      1  C   UNL     1       6.581   4.416  15.742  0.00  0.00    +0.000 A 
ATOM      2  N   UNL     1       7.737   4.663  16.313  0.00  0.00    +0.000 NA
ATOM      3  N   UNL     1       7.831   4.903  17.707  0.00  0.00    +0.000 NA
ATOM      4  C   UNL     1       6.752   4.882  18.413  0.00  0.00    +0.000 A 
ATOM      5  N   UNL     1       5.496   4.636  17.897  0.00  0.00    +0.000 N 
ATOM      6  C   UNL     1       4.231   4.565  18.427  0.00  0.00    +0.000 A 
ATOM      7 BR   UNL     1       3.709   4.806  20.202  0.00  0.00    +0.000 Br
ATOM      8  C   UNL     1       3.416   4.274  17.357  0.00  0.00    +0.000 A 
ATOM      9 BR   UNL     1       1.544   4.041  17.376  0.00  0.00    +0.000 Br
ATOM     10  N   UNL     1       4.140   4.166  16.194  0.00  0.00    +0.000 NA
ATOM     11  C   UNL     1       5.386   4.396  16.552  0.00  0.00    +0.000 A 
ENDROOT
BRANCH   1  17
ATOM     12  C   UNL     1       7.383   4.935  13.407  0.00  0.00    +0.000 A 
ATOM     13  C   UNL     1       7.326   4.700  12.026  0.00  0.00    +0.000 A 
ATOM     14  C   UNL     1       6.407   3.802  11.485  0.00  0.00    +0.000 A 
ATOM     15  C   UNL     1       5.562   3.086  12.325  0.00  0.00    +0.000 A 
ATOM     16  C   UNL     1       5.634   3.266  13.707  0.00  0.00    +0.000 A 
ATOM     17  C   UNL     1       6.551   4.174  14.264  0.00  0.00    +0.000 A 
BRANCH  12  18
ATOM     18  N   UNL     1       8.431   5.747  13.893  0.00  0.00    +0.000 N 
ATOM     19  H   UNL     1       9.085   6.042  13.173  0.00  0.00    +0.000 HD
ATOM     20  H   UNL     1       8.072   6.553  14.417  0.00  0.00    +0.000 HD
ENDBRANCH  12  18
ENDBRANCH   1  17
BRANCH   4  21
ATOM     21  O   UNL     1       6.773   5.109  19.735  0.00  0.00    +0.000 OA
ATOM     22  H   UNL     1       6.176   4.466  20.156  0.00  0.00    +0.000 HD
ENDBRANCH   4  21
TORSDOF 3
ENDMDL
