MODEL 1
REMARK VINA RESULT:      -8.5      0.000      0.000
REMARK  Name = 
REMARK  4 active torsions:
REMARK  status: ('A' for Active; 'I' for Inactive)
REMARK    1  A    between atoms: C_2  and  C_4
REMARK    2  A    between atoms: C_9  and  C_10
REMARK    3  A    between atoms: C_13  and  C_14
REMARK    4  A    between atoms: C_17  and  C_18
REMARK                            x       y       z     vdW  Elec       q    Type
REMARK                         _______ _______ _______ _____ _____    ______ ____
ROOT
ATOM      1  C   UNL     1       5.772   4.695  15.409  0.00  0.00    +0.000 A 
ATOM      2  C   UNL     1       5.328   3.527  16.043  0.00  0.00    +0.000 A 
ATOM      3  C   UNL     1       4.457   3.594  17.140  0.00  0.00    +0.000 A 
ATOM      4  C   UNL     1       4.024   4.853  17.583  0.00  0.00    +0.000 A 
ATOM      5  N   UNL     1       3.161   5.171  18.602  0.00  0.00    +0.000 NA
ATOM      6  C   UNL     1       3.081   6.487  18.595  0.00  0.00    +0.000 A 
ATOM      7  N   UNL     1       3.881   7.027  17.621  0.00  0.00    +0.000 N 
ATOM      8  C   UNL     1       4.489   5.998  16.945  0.00  0.00    +0.000 A 
ATOM      9  C   UNL     1       5.374   5.966  15.862  0.00  0.00    +0.000 A 
ATOM     10  H   UNL     1       3.982   8.013  17.432  0.00  0.00    +0.000 HD
ENDROOT
BRANCH   1  12
ATOM     11  N   UNL     1       7.644   5.445  14.094  0.00  0.00    +0.000 NA
ATOM     12  C   UNL     1       6.678   4.598  14.227  0.00  0.00    +0.000 C 
ATOM     13  N   UNL     1       6.471   3.634  13.282  0.00  0.00    +0.000 N 
ATOM     14  H   UNL     1       8.189   5.216  13.261  0.00  0.00    +0.000 HD
ATOM     15  H   UNL     1       6.885   3.814  12.375  0.00  0.00    +0.000 HD
ATOM     16  H   UNL     1       5.514   3.307  13.194  0.00  0.00    +0.000 HD
ENDBRANCH   1  12
BRANCH   6  17
ATOM     17  C   UNL     1       2.270   7.272  19.474  0.00  0.00    +0.000 A 
ATOM     18  C   UNL     1       1.761   6.916  20.708  0.00  0.00    +0.000 A 
ATOM     19  C   UNL     1       1.031   8.026  21.197  0.00  0.00    +0.000 A 
ATOM     20  C   UNL     1       1.127   9.023  20.244  0.00  0.00    +0.000 A 
ATOM     21  O   UNL     1       1.868   8.551  19.187  0.00  0.00    +0.000 OA
BRANCH  20  22
ATOM     22  C   UNL     1       0.601  10.356  20.287  0.00  0.00    +0.000 A 
ATOM     23  C   UNL     1       0.235  11.080  21.409  0.00  0.00    +0.000 A 
ATOM     24  C   UNL     1      -0.292  12.313  20.962  0.00  0.00    +0.000 A 
ATOM     25  C   UNL     1      -0.218  12.296  19.585  0.00  0.00    +0.000 A 
ATOM     26  O   UNL     1       0.345  11.118  19.173  0.00  0.00    +0.000 OA
BRANCH  25  27
ATOM     27  C   UNL     1      -0.639  13.271  18.599  0.00  0.00    +0.000 C 
ATOM     28  N   UNL     1      -1.044  12.876  17.429  0.00  0.00    +0.000 NA
ATOM     29  N   UNL     1      -0.634  14.618  18.807  0.00  0.00    +0.000 N 
ATOM     30  H   UNL     1      -1.009  11.850  17.405  0.00  0.00    +0.000 HD
ATOM     31  H   UNL     1       0.084  14.978  19.421  0.00  0.00    +0.000 HD
ATOM     32  H   UNL     1      -0.721  15.126  17.934  0.00  0.00    +0.000 HD
ENDBRANCH  25  27
ENDBRANCH  20  22
ENDBRANCH   6  17
TORSDOF 4
ENDMDL
MODEL 2
REMARK VINA RESULT:      -8.5      2.621      9.386
REMARK  Name = 
REMARK  4 active torsions:
REMARK  status: ('A' for Active; 'I' for Inactive)
REMARK    1  A    between atoms: C_2  and  C_4
REMARK    2  A    between atoms: C_9  and  C_10
REMARK    3  A    between atoms: C_13  and  C_14
REMARK    4  A    between atoms: C_17  and  C_18
REMARK                            x       y       z     vdW  Elec       q    Type
REMARK                         _______ _______ _______ _____ _____    ______ ____
ROOT
ATOM      1  C   UNL     1       0.119  10.047  21.221  0.00  0.00    +0.000 A 
ATOM      2  C   UNL     1       0.134  10.689  19.976  0.00  0.00    +0.000 A 
ATOM      3  C   UNL     1       0.825  10.133  18.891  0.00  0.00    +0.000 A 
ATOM      4  C   UNL     1       1.490   8.910  19.069  0.00  0.00    +0.000 A 
ATOM      5  N   UNL     1       2.200   8.161  18.163  0.00  0.00    +0.000 NA
ATOM      6  C   UNL     1       2.609   7.100  18.830  0.00  0.00    +0.000 A 
ATOM      7  N   UNL     1       2.205   7.151  20.139  0.00  0.00    +0.000 N 
ATOM      8  C   UNL     1       1.472   8.298  20.317  0.00  0.00    +0.000 A 
ATOM      9  C   UNL     1       0.809   8.838  21.425  0.00  0.00    +0.000 A 
ATOM     10  H   UNL     1       2.404   6.450  20.836  0.00  0.00    +0.000 HD
ENDROOT
BRANCH   1  12
ATOM     11  N   UNL     1      -0.658  10.048  23.500  0.00  0.00    +0.000 NA
ATOM     12  C   UNL     1      -0.645  10.645  22.355  0.00  0.00    +0.000 C 
ATOM     13  N   UNL     1      -1.343  11.806  22.175  0.00  0.00    +0.000 N 
ATOM     14  H   UNL     1      -1.188  10.605  24.172  0.00  0.00    +0.000 HD
ATOM     15  H   UNL     1      -2.081  11.981  22.845  0.00  0.00    +0.000 HD
ATOM     16  H   UNL     1      -1.654  11.984  21.225  0.00  0.00    +0.000 HD
ENDBRANCH   1  12
BRANCH   6  17
ATOM     17  C   UNL     1       3.369   6.020  18.281  0.00  0.00    +0.000 A 
ATOM     18  C   UNL     1       3.496   4.733  18.768  0.00  0.00    +0.000 A 
ATOM     19  C   UNL     1       4.342   4.029  17.877  0.00  0.00    +0.000 A 
ATOM     20  C   UNL     1       4.696   4.912  16.874  0.00  0.00    +0.000 A 
ATOM     21  O   UNL     1       4.114   6.130  17.135  0.00  0.00    +0.000 OA
BRANCH  20  22
ATOM     22  C   UNL     1       5.499   4.670  15.711  0.00  0.00    +0.000 A 
ATOM     23  C   UNL     1       6.774   5.146  15.455  0.00  0.00    +0.000 A 
ATOM     24  C   UNL     1       7.136   4.708  14.161  0.00  0.00    +0.000 A 
ATOM     25  C   UNL     1       6.071   3.973  13.683  0.00  0.00    +0.000 A 
ATOM     26  O   UNL     1       5.084   3.929  14.630  0.00  0.00    +0.000 OA
BRANCH  25  27
ATOM     27  C   UNL     1       5.868   3.313  12.408  0.00  0.00    +0.000 C 
ATOM     28  N   UNL     1       4.728   3.423  11.795  0.00  0.00    +0.000 NA
ATOM     29  N   UNL     1       6.811   2.550  11.786  0.00  0.00    +0.000 N 
ATOM     30  H   UNL     1       4.116   4.026  12.359  0.00  0.00    +0.000 HD
ATOM     31  H   UNL     1       7.450   2.043  12.383  0.00  0.00    +0.000 HD
ATOM     32  H   UNL     1       6.401   1.985  11.050  0.00  0.00    +0.000 HD
ENDBRANCH  25  27
ENDBRANCH  20  22
ENDBRANCH   6  17
TORSDOF 4
ENDMDL
MODEL 3
REMARK VINA RESULT:      -8.2      6.398      9.878
REMARK  Name = 
REMARK  4 active torsions:
REMARK  status: ('A' for Active; 'I' for Inactive)
REMARK    1  A    between atoms: C_2  and  C_4
REMARK    2  A    between atoms: C_9  and  C_10
REMARK    3  A    between atoms: C_13  and  C_14
REMARK    4  A    between atoms: C_17  and  C_18
REMARK                            x       y       z     vdW  Elec       q    Type
REMARK                         _______ _______ _______ _____ _____    ______ ____
ROOT
ATOM      1  C   UNL     1       9.793  13.667  18.448  0.00  0.00    +0.000 A 
ATOM      2  C   UNL     1      10.340  13.251  19.669  0.00  0.00    +0.000 A 
ATOM      3  C   UNL     1      10.198  11.926  20.102  0.00  0.00    +0.000 A 
ATOM      4  C   UNL     1       9.511  11.017  19.284  0.00  0.00    +0.000 A 
ATOM      5  N   UNL     1       9.270   9.678  19.473  0.00  0.00    +0.000 NA
ATOM      6  C   UNL     1       8.596   9.289  18.409  0.00  0.00    +0.000 A 
ATOM      7  N   UNL     1       8.377  10.337  17.552  0.00  0.00    +0.000 N 
ATOM      8  C   UNL     1       8.966  11.457  18.083  0.00  0.00    +0.000 A 
ATOM      9  C   UNL     1       9.072  12.777  17.632  0.00  0.00    +0.000 A 
ATOM     10  H   UNL     1       7.881  10.275  16.675  0.00  0.00    +0.000 HD
ENDROOT
BRANCH   1  12
ATOM     11  N   UNL     1       9.682  16.048  18.793  0.00  0.00    +0.000 NA
ATOM     12  C   UNL     1       9.979  15.078  17.994  0.00  0.00    +0.000 C 
ATOM     13  N   UNL     1      10.439  15.338  16.735  0.00  0.00    +0.000 N 
ATOM     14  H   UNL     1       9.905  16.940  18.348  0.00  0.00    +0.000 HD
ATOM     15  H   UNL     1      10.236  16.263  16.377  0.00  0.00    +0.000 HD
ATOM     16  H   UNL     1      10.243  14.621  16.042  0.00  0.00    +0.000 HD
ENDBRANCH   1  12
BRANCH   6  17
ATOM     17  C   UNL     1       8.149   7.955  18.156  0.00  0.00    +0.000 A 
ATOM     18  C   UNL     1       8.185   6.868  19.008  0.00  0.00    +0.000 A 
ATOM     19  C   UNL     1       7.620   5.772  18.313  0.00  0.00    +0.000 A 
ATOM     20  C   UNL     1       7.254   6.231  17.062  0.00  0.00    +0.000 A 
ATOM     21  O   UNL     1       7.595   7.559  16.966  0.00  0.00    +0.000 OA
BRANCH  20  22
ATOM     22  C   UNL     1       6.598   5.520  16.004  0.00  0.00    +0.000 A 
ATOM     23  C   UNL     1       5.309   5.016  16.002  0.00  0.00    +0.000 A 
ATOM     24  C   UNL     1       5.124   4.335  14.777  0.00  0.00    +0.000 A 
ATOM     25  C   UNL     1       6.305   4.462  14.075  0.00  0.00    +0.000 A 
ATOM     26  O   UNL     1       7.195   5.200  14.808  0.00  0.00    +0.000 OA
BRANCH  25  27
ATOM     27  C   UNL     1       6.701   3.942  12.781  0.00  0.00    +0.000 C 
ATOM     28  N   UNL     1       6.289   2.770  12.399  0.00  0.00    +0.000 NA
ATOM     29  N   UNL     1       7.510   4.607  11.907  0.00  0.00    +0.000 N 
ATOM     30  H   UNL     1       5.687   2.384  13.137  0.00  0.00    +0.000 HD
ATOM     31  H   UNL     1       8.213   5.210  12.311  0.00  0.00    +0.000 HD
ATOM     32  H   UNL     1       7.864   3.986  11.188  0.00  0.00    +0.000 HD
ENDBRANCH  25  27
ENDBRANCH  20  22
ENDBRANCH   6  17
TORSDOF 4
ENDMDL
MODEL 4
REMARK VINA RESULT:      -8.2      2.133      2.752
REMARK  Name = 
REMARK  4 active torsions:
REMARK  status: ('A' for Active; 'I' for Inactive)
REMARK    1  A    between atoms: C_2  and  C_4
REMARK    2  A    between atoms: C_9  and  C_10
REMARK    3  A    between atoms: C_13  and  C_14
REMARK    4  A    between atoms: C_17  and  C_18
REMARK                            x       y       z     vdW  Elec       q    Type
REMARK                         _______ _______ _______ _____ _____    ______ ____
ROOT
ATOM      1  C   UNL     1       5.590   4.939  15.815  0.00  0.00    +0.000 A 
ATOM      2  C   UNL     1       5.044   4.020  16.721  0.00  0.00    +0.000 A 
ATOM      3  C   UNL     1       4.090   4.427  17.665  0.00  0.00    +0.000 A 
ATOM      4  C   UNL     1       3.678   5.768  17.675  0.00  0.00    +0.000 A 
ATOM      5  N   UNL     1       2.749   6.391  18.471  0.00  0.00    +0.000 NA
ATOM      6  C   UNL     1       2.730   7.647  18.070  0.00  0.00    +0.000 A 
ATOM      7  N   UNL     1       3.630   7.857  17.057  0.00  0.00    +0.000 N 
ATOM      8  C   UNL     1       4.245   6.663  16.774  0.00  0.00    +0.000 A 
ATOM      9  C   UNL     1       5.214   6.294  15.835  0.00  0.00    +0.000 A 
ATOM     10  H   UNL     1       3.790   8.741  16.597  0.00  0.00    +0.000 HD
ENDROOT
BRANCH   1  12
ATOM     11  N   UNL     1       6.320   3.447  14.071  0.00  0.00    +0.000 NA
ATOM     12  C   UNL     1       6.586   4.478  14.802  0.00  0.00    +0.000 C 
ATOM     13  N   UNL     1       7.779   5.130  14.668  0.00  0.00    +0.000 N 
ATOM     14  H   UNL     1       7.080   3.292  13.407  0.00  0.00    +0.000 HD
ATOM     15  H   UNL     1       8.520   4.600  14.227  0.00  0.00    +0.000 HD
ATOM     16  H   UNL     1       8.110   5.609  15.500  0.00  0.00    +0.000 HD
ENDBRANCH   1  12
BRANCH   6  17
ATOM     17  C   UNL     1       1.885   8.672  18.600  0.00  0.00    +0.000 A 
ATOM     18  C   UNL     1       1.347   9.759  17.938  0.00  0.00    +0.000 A 
ATOM     19  C   UNL     1       0.572  10.480  18.878  0.00  0.00    +0.000 A 
ATOM     20  C   UNL     1       0.661   9.803  20.080  0.00  0.00    +0.000 A 
ATOM     21  O   UNL     1       1.478   8.711  19.908  0.00  0.00    +0.000 OA
BRANCH  20  22
ATOM     22  C   UNL     1       0.019  10.103  21.326  0.00  0.00    +0.000 A 
ATOM     23  C   UNL     1      -0.018   9.315  22.464  0.00  0.00    +0.000 A 
ATOM     24  C   UNL     1      -0.821   9.985  23.415  0.00  0.00    +0.000 A 
ATOM     25  C   UNL     1      -1.233  11.161  22.823  0.00  0.00    +0.000 A 
ATOM     26  O   UNL     1      -0.706  11.246  21.562  0.00  0.00    +0.000 OA
BRANCH  25  27
ATOM     27  C   UNL     1      -2.094  12.220  23.311  0.00  0.00    +0.000 C 
ATOM     28  N   UNL     1      -1.637  13.433  23.410  0.00  0.00    +0.000 NA
ATOM     29  N   UNL     1      -3.388  12.034  23.697  0.00  0.00    +0.000 N 
ATOM     30  H   UNL     1      -0.664  13.439  23.081  0.00  0.00    +0.000 HD
ATOM     31  H   UNL     1      -3.614  11.137  24.104  0.00  0.00    +0.000 HD
ATOM     32  H   UNL     1      -3.730  12.825  24.231  0.00  0.00    +0.000 HD
ENDBRANCH  25  27
ENDBRANCH  20  22
ENDBRANCH   6  17
TORSDOF 4
ENDMDL
MODEL 5
REMARK VINA RESULT:      -8.1      1.013      1.166
REMARK  Name = 
REMARK  4 active torsions:
REMARK  status: ('A' for Active; 'I' for Inactive)
REMARK    1  A    between atoms: C_2  and  C_4
REMARK    2  A    between atoms: C_9  and  C_10
REMARK    3  A    between atoms: C_13  and  C_14
REMARK    4  A    between atoms: C_17  and  C_18
REMARK                            x       y       z     vdW  Elec       q    Type
REMARK                         _______ _______ _______ _____ _____    ______ ____
ROOT
ATOM      1  C   UNL     1       5.526   4.854  15.673  0.00  0.00    +0.000 A 
ATOM      2  C   UNL     1       4.999   3.765  16.380  0.00  0.00    +0.000 A 
ATOM      3  C   UNL     1       4.088   3.964  17.427  0.00  0.00    +0.000 A 
ATOM      4  C   UNL     1       3.699   5.274  17.744  0.00  0.00    +0.000 A 
ATOM      5  N   UNL     1       2.810   5.717  18.693  0.00  0.00    +0.000 NA
ATOM      6  C   UNL     1       2.797   7.030  18.574  0.00  0.00    +0.000 A 
ATOM      7  N   UNL     1       3.662   7.448  17.596  0.00  0.00    +0.000 N 
ATOM      8  C   UNL     1       4.246   6.339  17.036  0.00  0.00    +0.000 A 
ATOM      9  C   UNL     1       5.173   6.175  16.002  0.00  0.00    +0.000 A 
ATOM     10  H   UNL     1       3.819   8.410  17.332  0.00  0.00    +0.000 HD
ENDROOT
BRANCH   1  12
ATOM     11  N   UNL     1       7.502   5.388  14.404  0.00  0.00    +0.000 NA
ATOM     12  C   UNL     1       6.476   4.616  14.546  0.00  0.00    +0.000 C 
ATOM     13  N   UNL     1       6.247   3.603  13.660  0.00  0.00    +0.000 N 
ATOM     14  H   UNL     1       8.067   5.067  13.616  0.00  0.00    +0.000 HD
ATOM     15  H   UNL     1       6.712   3.691  12.764  0.00  0.00    +0.000 HD
ATOM     16  H   UNL     1       5.275   3.332  13.548  0.00  0.00    +0.000 HD
ENDBRANCH   1  12
BRANCH   6  17
ATOM     17  C   UNL     1       1.989   7.922  19.347  0.00  0.00    +0.000 A 
ATOM     18  C   UNL     1       1.614   7.801  20.671  0.00  0.00    +0.000 A 
ATOM     19  C   UNL     1       0.826   8.934  20.989  0.00  0.00    +0.000 A 
ATOM     20  C   UNL     1       0.754   9.709  19.847  0.00  0.00    +0.000 A 
ATOM     21  O   UNL     1       1.450   9.078  18.844  0.00  0.00    +0.000 OA
BRANCH  20  22
ATOM     22  C   UNL     1       0.113  10.979  19.666  0.00  0.00    +0.000 A 
ATOM     23  C   UNL     1      -1.245  11.246  19.686  0.00  0.00    +0.000 A 
ATOM     24  C   UNL     1      -1.409  12.618  19.393  0.00  0.00    +0.000 A 
ATOM     25  C   UNL     1      -0.143  13.137  19.217  0.00  0.00    +0.000 A 
ATOM     26  O   UNL     1       0.785  12.149  19.404  0.00  0.00    +0.000 OA
BRANCH  25  27
ATOM     27  C   UNL     1       0.296  14.474  18.870  0.00  0.00    +0.000 C 
ATOM     28  N   UNL     1       1.566  14.741  18.795  0.00  0.00    +0.000 NA
ATOM     29  N   UNL     1      -0.550  15.513  18.615  0.00  0.00    +0.000 N 
ATOM     30  H   UNL     1       2.088  13.879  18.997  0.00  0.00    +0.000 HD
ATOM     31  H   UNL     1      -1.427  15.515  19.117  0.00  0.00    +0.000 HD
ATOM     32  H   UNL     1      -0.060  16.400  18.639  0.00  0.00    +0.000 HD
ENDBRANCH  25  27
ENDBRANCH  20  22
ENDBRANCH   6  17
TORSDOF 4
ENDMDL
MODEL 6
REMARK VINA RESULT:      -8.1      1.104      1.221
REMARK  Name = 
REMARK  4 active torsions:
REMARK  status: ('A' for Active; 'I' for Inactive)
REMARK    1  A    between atoms: C_2  and  C_4
REMARK    2  A    between atoms: C_9  and  C_10
REMARK    3  A    between atoms: C_13  and  C_14
REMARK    4  A    between atoms: C_17  and  C_18
REMARK                            x       y       z     vdW  Elec       q    Type
REMARK                         _______ _______ _______ _____ _____    ______ ____
ROOT
ATOM      1  C   UNL     1       6.429   4.978  15.480  0.00  0.00    +0.000 A 
ATOM      2  C   UNL     1       7.028   4.411  16.613  0.00  0.00    +0.000 A 
ATOM      3  C   UNL     1       6.489   4.623  17.890  0.00  0.00    +0.000 A 
ATOM      4  C   UNL     1       5.327   5.400  18.012  0.00  0.00    +0.000 A 
ATOM      5  N   UNL     1       4.604   5.720  19.135  0.00  0.00    +0.000 NA
ATOM      6  C   UNL     1       3.600   6.459  18.705  0.00  0.00    +0.000 A 
ATOM      7  N   UNL     1       3.665   6.643  17.348  0.00  0.00    +0.000 N 
ATOM      8  C   UNL     1       4.759   5.962  16.874  0.00  0.00    +0.000 A 
ATOM      9  C   UNL     1       5.284   5.787  15.589  0.00  0.00    +0.000 A 
ATOM     10  H   UNL     1       3.005   7.177  16.802  0.00  0.00    +0.000 HD
ENDROOT
BRANCH   1  12
ATOM     11  N   UNL     1       7.928   5.496  13.668  0.00  0.00    +0.000 NA
ATOM     12  C   UNL     1       7.007   4.717  14.128  0.00  0.00    +0.000 C 
ATOM     13  N   UNL     1       6.546   3.675  13.375  0.00  0.00    +0.000 N 
ATOM     14  H   UNL     1       8.241   5.158  12.757  0.00  0.00    +0.000 HD
ATOM     15  H   UNL     1       6.722   3.743  12.380  0.00  0.00    +0.000 HD
ATOM     16  H   UNL     1       5.589   3.391  13.563  0.00  0.00    +0.000 HD
ENDBRANCH   1  12
BRANCH   6  17
ATOM     17  C   UNL     1       2.563   7.003  19.526  0.00  0.00    +0.000 A 
ATOM     18  C   UNL     1       1.968   6.434  20.636  0.00  0.00    +0.000 A 
ATOM     19  C   UNL     1       1.006   7.355  21.115  0.00  0.00    +0.000 A 
ATOM     20  C   UNL     1       1.054   8.458  20.282  0.00  0.00    +0.000 A 
ATOM     21  O   UNL     1       1.992   8.230  19.305  0.00  0.00    +0.000 OA
BRANCH  20  22
ATOM     22  C   UNL     1       0.310   9.681  20.373  0.00  0.00    +0.000 A 
ATOM     23  C   UNL     1       0.037  10.417  21.513  0.00  0.00    +0.000 A 
ATOM     24  C   UNL     1      -0.783  11.502  21.128  0.00  0.00    +0.000 A 
ATOM     25  C   UNL     1      -0.968  11.391  19.765  0.00  0.00    +0.000 A 
ATOM     26  O   UNL     1      -0.288  10.298  19.300  0.00  0.00    +0.000 OA
BRANCH  25  27
ATOM     27  C   UNL     1      -1.740  12.199  18.843  0.00  0.00    +0.000 C 
ATOM     28  N   UNL     1      -2.932  12.598  19.172  0.00  0.00    +0.000 NA
ATOM     29  N   UNL     1      -1.302  12.577  17.609  0.00  0.00    +0.000 N 
ATOM     30  H   UNL     1      -3.136  12.258  20.119  0.00  0.00    +0.000 HD
ATOM     31  H   UNL     1      -0.683  11.936  17.132  0.00  0.00    +0.000 HD
ATOM     32  H   UNL     1      -2.065  12.915  17.034  0.00  0.00    +0.000 HD
ENDBRANCH  25  27
ENDBRANCH  20  22
ENDBRANCH   6  17
TORSDOF 4
ENDMDL
MODEL 7
REMARK VINA RESULT:      -8.1      0.946      1.175
REMARK  Name = 
REMARK  4 active torsions:
REMARK  status: ('A' for Active; 'I' for Inactive)
REMARK    1  A    between atoms: C_2  and  C_4
REMARK    2  A    between atoms: C_9  and  C_10
REMARK    3  A    between atoms: C_13  and  C_14
REMARK    4  A    between atoms: C_17  and  C_18
REMARK                            x       y       z     vdW  Elec       q    Type
REMARK                         _______ _______ _______ _____ _____    ______ ____
ROOT
ATOM      1  C   UNL     1       5.834   4.789  15.225  0.00  0.00    +0.000 A 
ATOM      2  C   UNL     1       5.427   3.607  15.857  0.00  0.00    +0.000 A 
ATOM      3  C   UNL     1       4.572   3.646  16.967  0.00  0.00    +0.000 A 
ATOM      4  C   UNL     1       4.116   4.891  17.426  0.00  0.00    +0.000 A 
ATOM      5  N   UNL     1       3.261   5.182  18.460  0.00  0.00    +0.000 NA
ATOM      6  C   UNL     1       3.151   6.496  18.464  0.00  0.00    +0.000 A 
ATOM      7  N   UNL     1       3.924   7.061  17.482  0.00  0.00    +0.000 N 
ATOM      8  C   UNL     1       4.545   6.051  16.790  0.00  0.00    +0.000 A 
ATOM      9  C   UNL     1       5.414   6.047  15.694  0.00  0.00    +0.000 A 
ATOM     10  H   UNL     1       3.999   8.051  17.299  0.00  0.00    +0.000 HD
ENDROOT
BRANCH   1  12
ATOM     11  N   UNL     1       6.438   3.911  13.066  0.00  0.00    +0.000 NA
ATOM     12  C   UNL     1       6.725   4.722  14.029  0.00  0.00    +0.000 C 
ATOM     13  N   UNL     1       7.848   5.497  13.966  0.00  0.00    +0.000 N 
ATOM     14  H   UNL     1       7.119   4.017  12.313  0.00  0.00    +0.000 HD
ATOM     15  H   UNL     1       8.562   5.182  13.321  0.00  0.00    +0.000 HD
ATOM     16  H   UNL     1       8.248   5.758  14.862  0.00  0.00    +0.000 HD
ENDBRANCH   1  12
BRANCH   6  17
ATOM     17  C   UNL     1       2.335   7.255  19.360  0.00  0.00    +0.000 A 
ATOM     18  C   UNL     1       2.023   6.971  20.676  0.00  0.00    +0.000 A 
ATOM     19  C   UNL     1       1.197   8.019  21.146  0.00  0.00    +0.000 A 
ATOM     20  C   UNL     1       1.039   8.910  20.101  0.00  0.00    +0.000 A 
ATOM     21  O   UNL     1       1.721   8.429  19.009  0.00  0.00    +0.000 OA
BRANCH  20  22
ATOM     22  C   UNL     1       0.331  10.156  20.086  0.00  0.00    +0.000 A 
ATOM     23  C   UNL     1       0.578  11.274  20.864  0.00  0.00    +0.000 A 
ATOM     24  C   UNL     1      -0.413  12.232  20.554  0.00  0.00    +0.000 A 
ATOM     25  C   UNL     1      -1.220  11.665  19.589  0.00  0.00    +0.000 A 
ATOM     26  O   UNL     1      -0.758  10.412  19.286  0.00  0.00    +0.000 OA
BRANCH  25  27
ATOM     27  C   UNL     1      -2.405  12.170  18.924  0.00  0.00    +0.000 C 
ATOM     28  N   UNL     1      -2.505  12.093  17.631  0.00  0.00    +0.000 NA
ATOM     29  N   UNL     1      -3.455  12.748  19.573  0.00  0.00    +0.000 N 
ATOM     30  H   UNL     1      -1.661  11.632  17.269  0.00  0.00    +0.000 HD
ATOM     31  H   UNL     1      -3.239  13.263  20.415  0.00  0.00    +0.000 HD
ATOM     32  H   UNL     1      -4.055  13.250  18.927  0.00  0.00    +0.000 HD
ENDBRANCH  25  27
ENDBRANCH  20  22
ENDBRANCH   6  17
TORSDOF 4
ENDMDL
MODEL 8
REMARK VINA RESULT:      -8.1      1.507      1.760
REMARK  Name = 
REMARK  4 active torsions:
REMARK  status: ('A' for Active; 'I' for Inactive)
REMARK    1  A    between atoms: C_2  and  C_4
REMARK    2  A    between atoms: C_9  and  C_10
REMARK    3  A    between atoms: C_13  and  C_14
REMARK    4  A    between atoms: C_17  and  C_18
REMARK                            x       y       z     vdW  Elec       q    Type
REMARK                         _______ _______ _______ _____ _____    ______ ____
ROOT
ATOM      1  C   UNL     1       5.581   4.894  15.755  0.00  0.00    +0.000 A 
ATOM      2  C   UNL     1       5.036   3.798  16.438  0.00  0.00    +0.000 A 
ATOM      3  C   UNL     1       4.086   3.986  17.452  0.00  0.00    +0.000 A 
ATOM      4  C   UNL     1       3.677   5.292  17.761  0.00  0.00    +0.000 A 
ATOM      5  N   UNL     1       2.751   5.724  18.678  0.00  0.00    +0.000 NA
ATOM      6  C   UNL     1       2.733   7.038  18.565  0.00  0.00    +0.000 A 
ATOM      7  N   UNL     1       3.630   7.466  17.622  0.00  0.00    +0.000 N 
ATOM      8  C   UNL     1       4.242   6.364  17.078  0.00  0.00    +0.000 A 
ATOM      9  C   UNL     1       5.207   6.211  16.077  0.00  0.00    +0.000 A 
ATOM     10  H   UNL     1       3.790   8.430  17.368  0.00  0.00    +0.000 HD
ENDROOT
BRANCH   1  12
ATOM     11  N   UNL     1       7.581   5.465  14.543  0.00  0.00    +0.000 NA
ATOM     12  C   UNL     1       6.572   4.668  14.662  0.00  0.00    +0.000 C 
ATOM     13  N   UNL     1       6.399   3.638  13.782  0.00  0.00    +0.000 N 
ATOM     14  H   UNL     1       8.179   5.150  13.778  0.00  0.00    +0.000 HD
ATOM     15  H   UNL     1       6.889   3.728  12.901  0.00  0.00    +0.000 HD
ATOM     16  H   UNL     1       5.438   3.341  13.643  0.00  0.00    +0.000 HD
ENDBRANCH   1  12
BRANCH   6  17
ATOM     17  C   UNL     1       1.891   7.920  19.313  0.00  0.00    +0.000 A 
ATOM     18  C   UNL     1       1.815   8.067  20.684  0.00  0.00    +0.000 A 
ATOM     19  C   UNL     1       0.848   9.067  20.946  0.00  0.00    +0.000 A 
ATOM     20  C   UNL     1       0.373   9.499  19.722  0.00  0.00    +0.000 A 
ATOM     21  O   UNL     1       0.999   8.783  18.730  0.00  0.00    +0.000 OA
BRANCH  20  22
ATOM     22  C   UNL     1      -0.584  10.531  19.447  0.00  0.00    +0.000 A 
ATOM     23  C   UNL     1      -0.748  11.728  20.124  0.00  0.00    +0.000 A 
ATOM     24  C   UNL     1      -1.854  12.391  19.545  0.00  0.00    +0.000 A 
ATOM     25  C   UNL     1      -2.314  11.577  18.531  0.00  0.00    +0.000 A 
ATOM     26  O   UNL     1      -1.531  10.457  18.454  0.00  0.00    +0.000 OA
BRANCH  25  27
ATOM     27  C   UNL     1      -3.434  11.730  17.625  0.00  0.00    +0.000 C 
ATOM     28  N   UNL     1      -4.560  12.210  18.061  0.00  0.00    +0.000 NA
ATOM     29  N   UNL     1      -3.401  11.388  16.305  0.00  0.00    +0.000 N 
ATOM     30  H   UNL     1      -4.450  12.435  19.058  0.00  0.00    +0.000 HD
ATOM     31  H   UNL     1      -2.808  10.609  16.055  0.00  0.00    +0.000 HD
ATOM     32  H   UNL     1      -4.335  11.336  15.914  0.00  0.00    +0.000 HD
ENDBRANCH  25  27
ENDBRANCH  20  22
ENDBRANCH   6  17
TORSDOF 4
ENDMDL
MODEL 9
REMARK VINA RESULT:      -8.0      6.437     10.047
REMARK  Name = 
REMARK  4 active torsions:
REMARK  status: ('A' for Active; 'I' for Inactive)
REMARK    1  A    between atoms: C_2  and  C_4
REMARK    2  A    between atoms: C_9  and  C_10
REMARK    3  A    between atoms: C_13  and  C_14
REMARK    4  A    between atoms: C_17  and  C_18
REMARK                            x       y       z     vdW  Elec       q    Type
REMARK                         _______ _______ _______ _____ _____    ______ ____
ROOT
ATOM      1  C   UNL     1      10.129  13.315  19.612  0.00  0.00    +0.000 A 
ATOM      2  C   UNL     1       9.451  13.695  18.445  0.00  0.00    +0.000 A 
ATOM      3  C   UNL     1       8.792  12.740  17.658  0.00  0.00    +0.000 A 
ATOM      4  C   UNL     1       8.808  11.398  18.068  0.00  0.00    +0.000 A 
ATOM      5  N   UNL     1       8.219  10.301  17.490  0.00  0.00    +0.000 NA
ATOM      6  C   UNL     1       8.527   9.285  18.272  0.00  0.00    +0.000 A 
ATOM      7  N   UNL     1       9.313   9.689  19.321  0.00  0.00    +0.000 N 
ATOM      8  C   UNL     1       9.498  11.045  19.222  0.00  0.00    +0.000 A 
ATOM      9  C   UNL     1      10.184  11.970  20.018  0.00  0.00    +0.000 A 
ATOM     10  H   UNL     1       9.671   9.083  20.044  0.00  0.00    +0.000 HD
ENDROOT
BRANCH   1  12
ATOM     11  N   UNL     1      11.844  14.963  19.989  0.00  0.00    +0.000 NA
ATOM     12  C   UNL     1      10.802  14.353  20.448  0.00  0.00    +0.000 C 
ATOM     13  N   UNL     1      10.332  14.636  21.699  0.00  0.00    +0.000 N 
ATOM     14  H   UNL     1      12.155  15.665  20.662  0.00  0.00    +0.000 HD
ATOM     15  H   UNL     1      10.993  15.081  22.324  0.00  0.00    +0.000 HD
ATOM     16  H   UNL     1       9.837  13.880  22.160  0.00  0.00    +0.000 HD
ENDBRANCH   1  12
BRANCH   6  17
ATOM     17  C   UNL     1       8.104   7.933  18.078  0.00  0.00    +0.000 A 
ATOM     18  C   UNL     1       8.135   6.892  18.985  0.00  0.00    +0.000 A 
ATOM     19  C   UNL     1       7.603   5.753  18.335  0.00  0.00    +0.000 A 
ATOM     20  C   UNL     1       7.261   6.142  17.054  0.00  0.00    +0.000 A 
ATOM     21  O   UNL     1       7.586   7.469  16.897  0.00  0.00    +0.000 OA
BRANCH  20  22
ATOM     22  C   UNL     1       6.641   5.368  16.018  0.00  0.00    +0.000 A 
ATOM     23  C   UNL     1       5.457   4.654  16.095  0.00  0.00    +0.000 A 
ATOM     24  C   UNL     1       5.281   3.995  14.857  0.00  0.00    +0.000 A 
ATOM     25  C   UNL     1       6.360   4.342  14.070  0.00  0.00    +0.000 A 
ATOM     26  O   UNL     1       7.177   5.193  14.764  0.00  0.00    +0.000 OA
BRANCH  25  27
ATOM     27  C   UNL     1       6.722   3.941  12.725  0.00  0.00    +0.000 C 
ATOM     28  N   UNL     1       6.278   2.820  12.241  0.00  0.00    +0.000 NA
ATOM     29  N   UNL     1       7.529   4.670  11.903  0.00  0.00    +0.000 N 
ATOM     30  H   UNL     1       5.680   2.377  12.950  0.00  0.00    +0.000 HD
ATOM     31  H   UNL     1       8.252   5.218  12.348  0.00  0.00    +0.000 HD
ATOM     32  H   UNL     1       7.857   4.114  11.121  0.00  0.00    +0.000 HD
ENDBRANCH  25  27
ENDBRANCH  20  22
ENDBRANCH   6  17
TORSDOF 4
ENDMDL
