MODEL 1
REMARK VINA RESULT:      -9.0      0.000      0.000
REMARK  Name = 
REMARK  13 active torsions:
REMARK  status: ('A' for Active; 'I' for Inactive)
REMARK    1  A    between atoms: C_1  and  O_2
REMARK    2  A    between atoms: O_2  and  C_3
REMARK    3  A    between atoms: C_5  and  N_6
REMARK    4  A    between atoms: N_6  and  C_7
REMARK    5  A    between atoms: C_7  and  C_8
REMARK    6  A    between atoms: C_7  and  C_9
REMARK    7  A    between atoms: C_9  and  C_10
REMARK    8  A    between atoms: C_10  and  C_11
REMARK    9  A    between atoms: C_11  and  N_12
REMARK   10  A    between atoms: C_15  and  C_16
REMARK   11  A    between atoms: C_16  and  C_17
REMARK   12  A    between atoms: C_17  and  C_18
REMARK   13  A    between atoms: C_17  and  C_19
REMARK                            x       y       z     vdW  Elec       q    Type
REMARK                         _______ _______ _______ _____ _____    ______ ____
ROOT
ATOM      1  C   UNL     1       2.351   6.857  18.718  0.00  0.00    +0.000 C 
ENDROOT
BRANCH   1   2
ATOM      2  C   UNL     1       1.876   8.115  19.486  0.00  0.00    +0.000 C 
BRANCH   2   3
ATOM      3  C   UNL     1       1.218   9.209  18.626  0.00  0.00    +0.000 C 
ATOM      4  C   UNL     1       2.253  10.060  17.881  0.00  0.00    +0.000 C 
BRANCH   3   5
ATOM      5  N   UNL     1       0.417  10.077  19.486  0.00  0.00    +0.000 N 
ATOM      6  H   UNL     1       0.937  10.839  19.936  0.00  0.00    +0.000 HD
BRANCH   5   9
ATOM      7  C   UNL     1      -2.728  10.492  17.522  0.00  0.00    +0.000 A 
ATOM      8  C   UNL     1      -1.481  10.036  17.932  0.00  0.00    +0.000 A 
ATOM      9  C   UNL     1      -0.828  10.582  19.049  0.00  0.00    +0.000 A 
ATOM     10  C   UNL     1      -1.480  11.569  19.825  0.00  0.00    +0.000 A 
ATOM     11  N   UNL     1      -0.865  12.106  20.912  0.00  0.00    +0.000 NA
ATOM     12  C   UNL     1      -1.542  13.028  21.637  0.00  0.00    +0.000 A 
ATOM     13  C   UNL     1      -2.827  13.454  21.352  0.00  0.00    +0.000 A 
ATOM     14  C   UNL     1      -3.445  12.920  20.232  0.00  0.00    +0.000 A 
ATOM     15  C   UNL     1      -2.777  11.975  19.440  0.00  0.00    +0.000 A 
ATOM     16  C   UNL     1      -3.380  11.445  18.291  0.00  0.00    +0.000 A 
BRANCH   7  18
ATOM     17  C   UNL     1      -2.927  10.572  15.160  0.00  0.00    +0.000 C 
ATOM     18  O   UNL     1      -3.400  10.073  16.405  0.00  0.00    +0.000 OA
ENDBRANCH   7  18
ENDBRANCH   5   9
ENDBRANCH   3   5
ENDBRANCH   2   3
ENDBRANCH   1   2
BRANCH   1  19
ATOM     19  C   UNL     1       3.185   5.838  19.527  0.00  0.00    +0.000 C 
BRANCH  19  20
ATOM     20  N   UNL     1       3.966   4.834  18.773  0.00  0.00    +0.000 N 
ATOM     21  C   UNL     1       5.181   5.140  18.175  0.00  0.00    +0.000 C 
ATOM     22  O   UNL     1       5.883   6.126  18.324  0.00  0.00    +0.000 OA
ATOM     23  C   UNL     1       5.423   4.069  17.152  0.00  0.00    +0.000 C 
ATOM     24  N   UNL     1       4.692   2.900  17.671  0.00  0.00    +0.000 NA
ATOM     25  C   UNL     1       3.653   3.402  18.637  0.00  0.00    +0.000 C 
ATOM     26  C   UNL     1       3.897   2.543  19.907  0.00  0.00    +0.000 C 
ATOM     27  C   UNL     1       2.994   2.759  21.104  0.00  0.00    +0.000 C 
ATOM     28  C   UNL     1       1.496   2.563  20.898  0.00  0.00    +0.000 C 
ATOM     29  C   UNL     1       0.803   3.598  20.024  0.00  0.00    +0.000 C 
ATOM     30  C   UNL     1       0.999   3.487  18.519  0.00  0.00    +0.000 C 
ATOM     31  C   UNL     1       2.326   2.987  17.969  0.00  0.00    +0.000 C 
ATOM     32  H   UNL     1       5.368   2.328  18.177  0.00  0.00    +0.000 HD
BRANCH  23  33
ATOM     33  C   UNL     1       4.815   4.481  15.802  0.00  0.00    +0.000 C 
BRANCH  33  34
ATOM     34  C   UNL     1       5.835   4.841  14.706  0.00  0.00    +0.000 C 
ATOM     35  C   UNL     1       7.238   5.061  15.264  0.00  0.00    +0.000 C 
ATOM     36  C   UNL     1       5.842   3.742  13.641  0.00  0.00    +0.000 C 
ENDBRANCH  33  34
ENDBRANCH  23  33
ENDBRANCH  19  20
ENDBRANCH   1  19
TORSDOF 9
ENDMDL
MODEL 2
REMARK VINA RESULT:      -8.8      0.798      1.069
REMARK  Name = 
REMARK  13 active torsions:
REMARK  status: ('A' for Active; 'I' for Inactive)
REMARK    1  A    between atoms: C_1  and  O_2
REMARK    2  A    between atoms: O_2  and  C_3
REMARK    3  A    between atoms: C_5  and  N_6
REMARK    4  A    between atoms: N_6  and  C_7
REMARK    5  A    between atoms: C_7  and  C_8
REMARK    6  A    between atoms: C_7  and  C_9
REMARK    7  A    between atoms: C_9  and  C_10
REMARK    8  A    between atoms: C_10  and  C_11
REMARK    9  A    between atoms: C_11  and  N_12
REMARK   10  A    between atoms: C_15  and  C_16
REMARK   11  A    between atoms: C_16  and  C_17
REMARK   12  A    between atoms: C_17  and  C_18
REMARK   13  A    between atoms: C_17  and  C_19
REMARK                            x       y       z     vdW  Elec       q    Type
REMARK                         _______ _______ _______ _____ _____    ______ ____
ROOT
ATOM      1  C   UNL     1       2.255   6.991  18.139  0.00  0.00    +0.000 C 
ENDROOT
BRANCH   1   2
ATOM      2  C   UNL     1       2.641   8.479  18.327  0.00  0.00    +0.000 C 
BRANCH   2   3
ATOM      3  C   UNL     1       1.555   9.501  17.943  0.00  0.00    +0.000 C 
ATOM      4  C   UNL     1       2.101  10.933  17.888  0.00  0.00    +0.000 C 
BRANCH   3   5
ATOM      5  N   UNL     1       0.473   9.441  18.923  0.00  0.00    +0.000 N 
ATOM      6  H   UNL     1       0.778   9.401  19.903  0.00  0.00    +0.000 HD
BRANCH   5   9
ATOM      7  C   UNL     1      -2.625  11.088  17.656  0.00  0.00    +0.000 A 
ATOM      8  C   UNL     1      -1.505  10.269  17.731  0.00  0.00    +0.000 A 
ATOM      9  C   UNL     1      -0.636  10.312  18.834  0.00  0.00    +0.000 A 
ATOM     10  C   UNL     1      -0.942  11.150  19.932  0.00  0.00    +0.000 A 
ATOM     11  N   UNL     1      -0.115  11.200  21.010  0.00  0.00    +0.000 NA
ATOM     12  C   UNL     1      -0.466  11.998  22.046  0.00  0.00    +0.000 A 
ATOM     13  C   UNL     1      -1.620  12.759  22.088  0.00  0.00    +0.000 A 
ATOM     14  C   UNL     1      -2.452  12.723  20.980  0.00  0.00    +0.000 A 
ATOM     15  C   UNL     1      -2.121  11.925  19.875  0.00  0.00    +0.000 A 
ATOM     16  C   UNL     1      -2.940  11.896  18.738  0.00  0.00    +0.000 A 
BRANCH   7  18
ATOM     17  C   UNL     1      -4.788  11.654  16.865  0.00  0.00    +0.000 C 
ATOM     18  O   UNL     1      -3.480  11.168  16.589  0.00  0.00    +0.000 OA
ENDBRANCH   7  18
ENDBRANCH   5   9
ENDBRANCH   3   5
ENDBRANCH   2   3
ENDBRANCH   1   2
BRANCH   1  19
ATOM     19  C   UNL     1       2.893   5.991  19.128  0.00  0.00    +0.000 C 
BRANCH  19  20
ATOM     20  N   UNL     1       3.828   4.984  18.583  0.00  0.00    +0.000 N 
ATOM     21  C   UNL     1       5.058   5.334  18.042  0.00  0.00    +0.000 C 
ATOM     22  O   UNL     1       5.649   6.399  18.105  0.00  0.00    +0.000 OA
ATOM     23  C   UNL     1       5.489   4.170  17.199  0.00  0.00    +0.000 C 
ATOM     24  N   UNL     1       4.826   3.009  17.819  0.00  0.00    +0.000 NA
ATOM     25  C   UNL     1       3.663   3.521  18.624  0.00  0.00    +0.000 C 
ATOM     26  C   UNL     1       3.872   2.866  20.016  0.00  0.00    +0.000 C 
ATOM     27  C   UNL     1       2.850   3.141  21.099  0.00  0.00    +0.000 C 
ATOM     28  C   UNL     1       1.400   2.765  20.809  0.00  0.00    +0.000 C 
ATOM     29  C   UNL     1       0.695   3.599  19.750  0.00  0.00    +0.000 C 
ATOM     30  C   UNL     1       1.034   3.313  18.294  0.00  0.00    +0.000 C 
ATOM     31  C   UNL     1       2.446   2.887  17.921  0.00  0.00    +0.000 C 
ATOM     32  H   UNL     1       5.505   2.581  18.448  0.00  0.00    +0.000 HD
BRANCH  23  33
ATOM     33  C   UNL     1       4.968   4.336  15.763  0.00  0.00    +0.000 C 
BRANCH  33  34
ATOM     34  C   UNL     1       5.965   3.949  14.655  0.00  0.00    +0.000 C 
ATOM     35  C   UNL     1       5.305   3.864  13.281  0.00  0.00    +0.000 C 
ATOM     36  C   UNL     1       7.119   4.954  14.640  0.00  0.00    +0.000 C 
ENDBRANCH  33  34
ENDBRANCH  23  33
ENDBRANCH  19  20
ENDBRANCH   1  19
TORSDOF 9
ENDMDL
MODEL 3
REMARK VINA RESULT:      -8.8      1.420      2.673
REMARK  Name = 
REMARK  13 active torsions:
REMARK  status: ('A' for Active; 'I' for Inactive)
REMARK    1  A    between atoms: C_1  and  O_2
REMARK    2  A    between atoms: O_2  and  C_3
REMARK    3  A    between atoms: C_5  and  N_6
REMARK    4  A    between atoms: N_6  and  C_7
REMARK    5  A    between atoms: C_7  and  C_8
REMARK    6  A    between atoms: C_7  and  C_9
REMARK    7  A    between atoms: C_9  and  C_10
REMARK    8  A    between atoms: C_10  and  C_11
REMARK    9  A    between atoms: C_11  and  N_12
REMARK   10  A    between atoms: C_15  and  C_16
REMARK   11  A    between atoms: C_16  and  C_17
REMARK   12  A    between atoms: C_17  and  C_18
REMARK   13  A    between atoms: C_17  and  C_19
REMARK                            x       y       z     vdW  Elec       q    Type
REMARK                         _______ _______ _______ _____ _____    ______ ____
ROOT
ATOM      1  C   UNL     1       2.064   6.782  18.283  0.00  0.00    +0.000 C 
ENDROOT
BRANCH   1   2
ATOM      2  C   UNL     1       2.509   8.253  18.085  0.00  0.00    +0.000 C 
BRANCH   2   3
ATOM      3  C   UNL     1       1.676   9.306  18.839  0.00  0.00    +0.000 C 
ATOM      4  C   UNL     1       1.087   8.753  20.142  0.00  0.00    +0.000 C 
BRANCH   3   5
ATOM      5  N   UNL     1       0.586   9.760  17.978  0.00  0.00    +0.000 N 
ATOM      6  H   UNL     1       0.190   9.038  17.365  0.00  0.00    +0.000 HD
BRANCH   5   9
ATOM      7  C   UNL     1      -1.311  12.152  20.121  0.00  0.00    +0.000 A 
ATOM      8  C   UNL     1      -0.291  11.348  19.630  0.00  0.00    +0.000 A 
ATOM      9  C   UNL     1      -0.473  10.537  18.498  0.00  0.00    +0.000 A 
ATOM     10  C   UNL     1      -1.697  10.591  17.791  0.00  0.00    +0.000 A 
ATOM     11  N   UNL     1      -1.890   9.817  16.689  0.00  0.00    +0.000 NA
ATOM     12  C   UNL     1      -3.070   9.926  16.033  0.00  0.00    +0.000 A 
ATOM     13  C   UNL     1      -4.091  10.783  16.400  0.00  0.00    +0.000 A 
ATOM     14  C   UNL     1      -3.900  11.557  17.534  0.00  0.00    +0.000 A 
ATOM     15  C   UNL     1      -2.703  11.467  18.258  0.00  0.00    +0.000 A 
ATOM     16  C   UNL     1      -2.506  12.225  19.420  0.00  0.00    +0.000 A 
BRANCH   7  18
ATOM     17  C   UNL     1      -2.281  12.708  22.213  0.00  0.00    +0.000 C 
ATOM     18  O   UNL     1      -1.246  12.912  21.259  0.00  0.00    +0.000 OA
ENDBRANCH   7  18
ENDBRANCH   5   9
ENDBRANCH   3   5
ENDBRANCH   2   3
ENDBRANCH   1   2
BRANCH   1  19
ATOM     19  C   UNL     1       2.918   5.937  19.254  0.00  0.00    +0.000 C 
BRANCH  19  20
ATOM     20  N   UNL     1       3.799   4.901  18.673  0.00  0.00    +0.000 N 
ATOM     21  C   UNL     1       5.016   5.213  18.081  0.00  0.00    +0.000 C 
ATOM     22  O   UNL     1       5.642   6.258  18.118  0.00  0.00    +0.000 OA
ATOM     23  C   UNL     1       5.376   4.034  17.224  0.00  0.00    +0.000 C 
ATOM     24  N   UNL     1       4.704   2.895  17.873  0.00  0.00    +0.000 NA
ATOM     25  C   UNL     1       3.591   3.444  18.724  0.00  0.00    +0.000 C 
ATOM     26  C   UNL     1       3.837   2.785  20.108  0.00  0.00    +0.000 C 
ATOM     27  C   UNL     1       2.868   3.092  21.231  0.00  0.00    +0.000 C 
ATOM     28  C   UNL     1       1.397   2.761  21.002  0.00  0.00    +0.000 C 
ATOM     29  C   UNL     1       0.675   3.614  19.970  0.00  0.00    +0.000 C 
ATOM     30  C   UNL     1       0.945   3.317  18.502  0.00  0.00    +0.000 C 
ATOM     31  C   UNL     1       2.327   2.847  18.073  0.00  0.00    +0.000 C 
ATOM     32  H   UNL     1       5.394   2.448  18.475  0.00  0.00    +0.000 HD
BRANCH  23  33
ATOM     33  C   UNL     1       4.802   4.215  15.810  0.00  0.00    +0.000 C 
BRANCH  33  34
ATOM     34  C   UNL     1       5.788   4.779  14.769  0.00  0.00    +0.000 C 
ATOM     35  C   UNL     1       7.220   4.837  15.294  0.00  0.00    +0.000 C 
ATOM     36  C   UNL     1       5.712   3.937  13.494  0.00  0.00    +0.000 C 
ENDBRANCH  33  34
ENDBRANCH  23  33
ENDBRANCH  19  20
ENDBRANCH   1  19
TORSDOF 9
ENDMDL
MODEL 4
REMARK VINA RESULT:      -8.6      1.639      2.719
REMARK  Name = 
REMARK  13 active torsions:
REMARK  status: ('A' for Active; 'I' for Inactive)
REMARK    1  A    between atoms: C_1  and  O_2
REMARK    2  A    between atoms: O_2  and  C_3
REMARK    3  A    between atoms: C_5  and  N_6
REMARK    4  A    between atoms: N_6  and  C_7
REMARK    5  A    between atoms: C_7  and  C_8
REMARK    6  A    between atoms: C_7  and  C_9
REMARK    7  A    between atoms: C_9  and  C_10
REMARK    8  A    between atoms: C_10  and  C_11
REMARK    9  A    between atoms: C_11  and  N_12
REMARK   10  A    between atoms: C_15  and  C_16
REMARK   11  A    between atoms: C_16  and  C_17
REMARK   12  A    between atoms: C_17  and  C_18
REMARK   13  A    between atoms: C_17  and  C_19
REMARK                            x       y       z     vdW  Elec       q    Type
REMARK                         _______ _______ _______ _____ _____    ______ ____
ROOT
ATOM      1  C   UNL     1       2.178   6.716  18.764  0.00  0.00    +0.000 C 
ENDROOT
BRANCH   1   2
ATOM      2  C   UNL     1       2.633   7.999  18.025  0.00  0.00    +0.000 C 
BRANCH   2   3
ATOM      3  C   UNL     1       1.684   9.206  18.144  0.00  0.00    +0.000 C 
ATOM      4  C   UNL     1       2.423  10.540  17.984  0.00  0.00    +0.000 C 
BRANCH   3   5
ATOM      5  N   UNL     1       1.033   9.175  19.452  0.00  0.00    +0.000 N 
ATOM      6  H   UNL     1       1.651   8.940  20.237  0.00  0.00    +0.000 HD
BRANCH   5   9
ATOM      7  C   UNL     1      -0.317  12.110  21.318  0.00  0.00    +0.000 A 
ATOM      8  C   UNL     1       0.500  11.052  20.940  0.00  0.00    +0.000 A 
ATOM      9  C   UNL     1       0.171  10.219  19.858  0.00  0.00    +0.000 A 
ATOM     10  C   UNL     1      -0.977  10.502  19.082  0.00  0.00    +0.000 A 
ATOM     11  N   UNL     1      -1.308   9.710  18.027  0.00  0.00    +0.000 NA
ATOM     12  C   UNL     1      -2.401  10.041  17.301  0.00  0.00    +0.000 A 
ATOM     13  C   UNL     1      -3.201  11.140  17.551  0.00  0.00    +0.000 A 
ATOM     14  C   UNL     1      -2.874  11.936  18.638  0.00  0.00    +0.000 A 
ATOM     15  C   UNL     1      -1.761  11.624  19.432  0.00  0.00    +0.000 A 
ATOM     16  C   UNL     1      -1.433  12.405  20.548  0.00  0.00    +0.000 A 
BRANCH   7  18
ATOM     17  C   UNL     1      -1.281  13.333  23.107  0.00  0.00    +0.000 C 
ATOM     18  O   UNL     1      -0.115  12.922  22.402  0.00  0.00    +0.000 OA
ENDBRANCH   7  18
ENDBRANCH   5   9
ENDBRANCH   3   5
ENDBRANCH   2   3
ENDBRANCH   1   2
BRANCH   1  19
ATOM     19  C   UNL     1       3.280   5.930  19.508  0.00  0.00    +0.000 C 
BRANCH  19  20
ATOM     20  N   UNL     1       4.044   4.921  18.744  0.00  0.00    +0.000 N 
ATOM     21  C   UNL     1       5.251   5.219  18.127  0.00  0.00    +0.000 C 
ATOM     22  O   UNL     1       5.962   6.200  18.265  0.00  0.00    +0.000 OA
ATOM     23  C   UNL     1       5.472   4.146  17.101  0.00  0.00    +0.000 C 
ATOM     24  N   UNL     1       4.741   2.982  17.632  0.00  0.00    +0.000 NA
ATOM     25  C   UNL     1       3.719   3.491  18.613  0.00  0.00    +0.000 C 
ATOM     26  C   UNL     1       3.977   2.631  19.879  0.00  0.00    +0.000 C 
ATOM     27  C   UNL     1       3.093   2.853  21.089  0.00  0.00    +0.000 C 
ATOM     28  C   UNL     1       1.590   2.667  20.906  0.00  0.00    +0.000 C 
ATOM     29  C   UNL     1       0.891   3.706  20.042  0.00  0.00    +0.000 C 
ATOM     30  C   UNL     1       1.064   3.594  18.534  0.00  0.00    +0.000 C 
ATOM     31  C   UNL     1       2.380   3.085  17.965  0.00  0.00    +0.000 C 
ATOM     32  H   UNL     1       5.420   2.406  18.127  0.00  0.00    +0.000 HD
BRANCH  23  33
ATOM     33  C   UNL     1       4.846   4.562  15.761  0.00  0.00    +0.000 C 
BRANCH  33  34
ATOM     34  C   UNL     1       5.851   4.852  14.630  0.00  0.00    +0.000 C 
ATOM     35  C   UNL     1       7.287   4.949  15.137  0.00  0.00    +0.000 C 
ATOM     36  C   UNL     1       5.729   3.770  13.555  0.00  0.00    +0.000 C 
ENDBRANCH  33  34
ENDBRANCH  23  33
ENDBRANCH  19  20
ENDBRANCH   1  19
TORSDOF 9
ENDMDL
MODEL 5
REMARK VINA RESULT:      -8.6      1.988      2.247
REMARK  Name = 
REMARK  13 active torsions:
REMARK  status: ('A' for Active; 'I' for Inactive)
REMARK    1  A    between atoms: C_1  and  O_2
REMARK    2  A    between atoms: O_2  and  C_3
REMARK    3  A    between atoms: C_5  and  N_6
REMARK    4  A    between atoms: N_6  and  C_7
REMARK    5  A    between atoms: C_7  and  C_8
REMARK    6  A    between atoms: C_7  and  C_9
REMARK    7  A    between atoms: C_9  and  C_10
REMARK    8  A    between atoms: C_10  and  C_11
REMARK    9  A    between atoms: C_11  and  N_12
REMARK   10  A    between atoms: C_15  and  C_16
REMARK   11  A    between atoms: C_16  and  C_17
REMARK   12  A    between atoms: C_17  and  C_18
REMARK   13  A    between atoms: C_17  and  C_19
REMARK                            x       y       z     vdW  Elec       q    Type
REMARK                         _______ _______ _______ _____ _____    ______ ____
ROOT
ATOM      1  C   UNL     1       2.605   6.955  18.996  0.00  0.00    +0.000 C 
ENDROOT
BRANCH   1   2
ATOM      2  C   UNL     1       1.780   7.933  19.868  0.00  0.00    +0.000 C 
BRANCH   2   3
ATOM      3  C   UNL     1       1.268   9.194  19.149  0.00  0.00    +0.000 C 
ATOM      4  C   UNL     1       1.841   9.326  17.733  0.00  0.00    +0.000 C 
BRANCH   3   5
ATOM      5  N   UNL     1       1.642  10.374  19.926  0.00  0.00    +0.000 N 
ATOM      6  H   UNL     1       2.575  10.750  19.720  0.00  0.00    +0.000 HD
BRANCH   5   9
ATOM      7  C   UNL     1      -0.273  13.494  19.213  0.00  0.00    +0.000 A 
ATOM      8  C   UNL     1       0.637  12.452  19.096  0.00  0.00    +0.000 A 
ATOM      9  C   UNL     1       0.747  11.456  20.080  0.00  0.00    +0.000 A 
ATOM     10  C   UNL     1      -0.139  11.464  21.183  0.00  0.00    +0.000 A 
ATOM     11  N   UNL     1      -0.051  10.505  22.142  0.00  0.00    +0.000 NA
ATOM     12  C   UNL     1      -0.940  10.542  23.164  0.00  0.00    +0.000 A 
ATOM     13  C   UNL     1      -1.942  11.486  23.291  0.00  0.00    +0.000 A 
ATOM     14  C   UNL     1      -2.018  12.475  22.323  0.00  0.00    +0.000 A 
ATOM     15  C   UNL     1      -1.109  12.489  21.255  0.00  0.00    +0.000 A 
ATOM     16  C   UNL     1      -1.158  13.496  20.282  0.00  0.00    +0.000 A 
BRANCH   7  18
ATOM     17  C   UNL     1      -0.016  15.823  18.845  0.00  0.00    +0.000 C 
ATOM     18  O   UNL     1      -0.394  14.546  18.345  0.00  0.00    +0.000 OA
ENDBRANCH   7  18
ENDBRANCH   5   9
ENDBRANCH   3   5
ENDBRANCH   2   3
ENDBRANCH   1   2
BRANCH   1  19
ATOM     19  C   UNL     1       3.320   5.809  19.746  0.00  0.00    +0.000 C 
BRANCH  19  20
ATOM     20  N   UNL     1       4.038   4.799  18.939  0.00  0.00    +0.000 N 
ATOM     21  C   UNL     1       5.256   5.070  18.330  0.00  0.00    +0.000 C 
ATOM     22  O   UNL     1       6.008   6.014  18.505  0.00  0.00    +0.000 OA
ATOM     23  C   UNL     1       5.429   4.031  17.261  0.00  0.00    +0.000 C 
ATOM     24  N   UNL     1       4.649   2.879  17.747  0.00  0.00    +0.000 NA
ATOM     25  C   UNL     1       3.652   3.391  18.751  0.00  0.00    +0.000 C 
ATOM     26  C   UNL     1       3.875   2.470  19.981  0.00  0.00    +0.000 C 
ATOM     27  C   UNL     1       3.004   2.681  21.202  0.00  0.00    +0.000 C 
ATOM     28  C   UNL     1       1.494   2.567  21.017  0.00  0.00    +0.000 C 
ATOM     29  C   UNL     1       0.839   3.668  20.198  0.00  0.00    +0.000 C 
ATOM     30  C   UNL     1       1.004   3.610  18.686  0.00  0.00    +0.000 C 
ATOM     31  C   UNL     1       2.296   3.069  18.092  0.00  0.00    +0.000 C 
ATOM     32  H   UNL     1       5.304   2.255  18.217  0.00  0.00    +0.000 HD
BRANCH  23  33
ATOM     33  C   UNL     1       4.819   4.527  15.941  0.00  0.00    +0.000 C 
BRANCH  33  34
ATOM     34  C   UNL     1       5.836   4.863  14.834  0.00  0.00    +0.000 C 
ATOM     35  C   UNL     1       7.274   4.866  15.346  0.00  0.00    +0.000 C 
ATOM     36  C   UNL     1       5.674   3.873  13.680  0.00  0.00    +0.000 C 
ENDBRANCH  33  34
ENDBRANCH  23  33
ENDBRANCH  19  20
ENDBRANCH   1  19
TORSDOF 9
ENDMDL
MODEL 6
REMARK VINA RESULT:      -8.6      1.765      2.844
REMARK  Name = 
REMARK  13 active torsions:
REMARK  status: ('A' for Active; 'I' for Inactive)
REMARK    1  A    between atoms: C_1  and  O_2
REMARK    2  A    between atoms: O_2  and  C_3
REMARK    3  A    between atoms: C_5  and  N_6
REMARK    4  A    between atoms: N_6  and  C_7
REMARK    5  A    between atoms: C_7  and  C_8
REMARK    6  A    between atoms: C_7  and  C_9
REMARK    7  A    between atoms: C_9  and  C_10
REMARK    8  A    between atoms: C_10  and  C_11
REMARK    9  A    between atoms: C_11  and  N_12
REMARK   10  A    between atoms: C_15  and  C_16
REMARK   11  A    between atoms: C_16  and  C_17
REMARK   12  A    between atoms: C_17  and  C_18
REMARK   13  A    between atoms: C_17  and  C_19
REMARK                            x       y       z     vdW  Elec       q    Type
REMARK                         _______ _______ _______ _____ _____    ______ ____
ROOT
ATOM      1  C   UNL     1       3.438   7.473  17.797  0.00  0.00    +0.000 C 
ENDROOT
BRANCH   1   2
ATOM      2  C   UNL     1       1.967   7.932  17.951  0.00  0.00    +0.000 C 
BRANCH   2   3
ATOM      3  C   UNL     1       1.754   9.218  18.770  0.00  0.00    +0.000 C 
ATOM      4  C   UNL     1       1.077   8.941  20.118  0.00  0.00    +0.000 C 
BRANCH   3   5
ATOM      5  N   UNL     1       0.925  10.144  18.002  0.00  0.00    +0.000 N 
ATOM      6  H   UNL     1       0.513   9.749  17.149  0.00  0.00    +0.000 HD
BRANCH   5   9
ATOM      7  C   UNL     1      -0.618  12.783  20.140  0.00  0.00    +0.000 A 
ATOM      8  C   UNL     1       0.325  11.956  19.544  0.00  0.00    +0.000 A 
ATOM      9  C   UNL     1      -0.046  10.947  18.639  0.00  0.00    +0.000 A 
ATOM     10  C   UNL     1      -1.403  10.813  18.263  0.00  0.00    +0.000 A 
ATOM     11  N   UNL     1      -1.781   9.847  17.384  0.00  0.00    +0.000 NA
ATOM     12  C   UNL     1      -3.088   9.777  17.036  0.00  0.00    +0.000 A 
ATOM     13  C   UNL     1      -4.067  10.634  17.505  0.00  0.00    +0.000 A 
ATOM     14  C   UNL     1      -3.684  11.607  18.415  0.00  0.00    +0.000 A 
ATOM     15  C   UNL     1      -2.345  11.707  18.821  0.00  0.00    +0.000 A 
ATOM     16  C   UNL     1      -1.947  12.669  19.759  0.00  0.00    +0.000 A 
BRANCH   7  18
ATOM     17  C   UNL     1       0.859  14.462  20.931  0.00  0.00    +0.000 C 
ATOM     18  O   UNL     1      -0.355  13.736  21.087  0.00  0.00    +0.000 OA
ENDBRANCH   7  18
ENDBRANCH   5   9
ENDBRANCH   3   5
ENDBRANCH   2   3
ENDBRANCH   1   2
BRANCH   1  19
ATOM     19  C   UNL     1       3.857   6.238  18.625  0.00  0.00    +0.000 C 
BRANCH  19  20
ATOM     20  N   UNL     1       4.569   5.148  17.925  0.00  0.00    +0.000 N 
ATOM     21  C   UNL     1       5.817   5.332  17.347  0.00  0.00    +0.000 C 
ATOM     22  O   UNL     1       6.595   6.262  17.480  0.00  0.00    +0.000 OA
ATOM     23  C   UNL     1       5.993   4.210  16.365  0.00  0.00    +0.000 C 
ATOM     24  N   UNL     1       5.156   3.124  16.905  0.00  0.00    +0.000 NA
ATOM     25  C   UNL     1       4.141   3.742  17.828  0.00  0.00    +0.000 C 
ATOM     26  C   UNL     1       4.286   2.911  19.131  0.00  0.00    +0.000 C 
ATOM     27  C   UNL     1       3.378   3.242  20.297  0.00  0.00    +0.000 C 
ATOM     28  C   UNL     1       1.873   3.162  20.062  0.00  0.00    +0.000 C 
ATOM     29  C   UNL     1       1.288   4.219  19.137  0.00  0.00    +0.000 C 
ATOM     30  C   UNL     1       1.506   4.040  17.642  0.00  0.00    +0.000 C 
ATOM     31  C   UNL     1       2.800   3.414  17.141  0.00  0.00    +0.000 C 
ATOM     32  H   UNL     1       5.771   2.516  17.445  0.00  0.00    +0.000 HD
BRANCH  23  33
ATOM     33  C   UNL     1       5.450   4.623  14.989  0.00  0.00    +0.000 C 
BRANCH  33  34
ATOM     34  C   UNL     1       6.122   3.935  13.786  0.00  0.00    +0.000 C 
ATOM     35  C   UNL     1       5.140   3.656  12.651  0.00  0.00    +0.000 C 
ATOM     36  C   UNL     1       7.286   4.798  13.295  0.00  0.00    +0.000 C 
ENDBRANCH  33  34
ENDBRANCH  23  33
ENDBRANCH  19  20
ENDBRANCH   1  19
TORSDOF 9
ENDMDL
MODEL 7
REMARK VINA RESULT:      -8.6      1.853      2.503
REMARK  Name = 
REMARK  13 active torsions:
REMARK  status: ('A' for Active; 'I' for Inactive)
REMARK    1  A    between atoms: C_1  and  O_2
REMARK    2  A    between atoms: O_2  and  C_3
REMARK    3  A    between atoms: C_5  and  N_6
REMARK    4  A    between atoms: N_6  and  C_7
REMARK    5  A    between atoms: C_7  and  C_8
REMARK    6  A    between atoms: C_7  and  C_9
REMARK    7  A    between atoms: C_9  and  C_10
REMARK    8  A    between atoms: C_10  and  C_11
REMARK    9  A    between atoms: C_11  and  N_12
REMARK   10  A    between atoms: C_15  and  C_16
REMARK   11  A    between atoms: C_16  and  C_17
REMARK   12  A    between atoms: C_17  and  C_18
REMARK   13  A    between atoms: C_17  and  C_19
REMARK                            x       y       z     vdW  Elec       q    Type
REMARK                         _______ _______ _______ _____ _____    ______ ____
ROOT
ATOM      1  C   UNL     1       2.555   6.902  18.993  0.00  0.00    +0.000 C 
ENDROOT
BRANCH   1   2
ATOM      2  C   UNL     1       1.833   7.937  19.891  0.00  0.00    +0.000 C 
BRANCH   2   3
ATOM      3  C   UNL     1       1.204   9.133  19.152  0.00  0.00    +0.000 C 
ATOM      4  C   UNL     1       1.879   9.399  17.801  0.00  0.00    +0.000 C 
BRANCH   3   5
ATOM      5  N   UNL     1       1.319  10.326  19.986  0.00  0.00    +0.000 N 
ATOM      6  H   UNL     1       2.274  10.687  20.095  0.00  0.00    +0.000 HD
BRANCH   5   9
ATOM      7  C   UNL     1      -1.772  12.414  20.038  0.00  0.00    +0.000 A 
ATOM      8  C   UNL     1      -0.913  11.329  20.161  0.00  0.00    +0.000 A 
ATOM      9  C   UNL     1       0.444  11.421  19.810  0.00  0.00    +0.000 A 
ATOM     10  C   UNL     1       0.974  12.665  19.392  0.00  0.00    +0.000 A 
ATOM     11  N   UNL     1       2.287  12.774  19.054  0.00  0.00    +0.000 NA
ATOM     12  C   UNL     1       2.750  13.992  18.686  0.00  0.00    +0.000 A 
ATOM     13  C   UNL     1       1.980  15.139  18.642  0.00  0.00    +0.000 A 
ATOM     14  C   UNL     1       0.638  15.022  18.968  0.00  0.00    +0.000 A 
ATOM     15  C   UNL     1       0.107  13.779  19.339  0.00  0.00    +0.000 A 
ATOM     16  C   UNL     1      -1.253  13.640  19.648  0.00  0.00    +0.000 A 
BRANCH   7  18
ATOM     17  C   UNL     1      -3.698  13.613  20.729  0.00  0.00    +0.000 C 
ATOM     18  O   UNL     1      -3.119  12.393  20.281  0.00  0.00    +0.000 OA
ENDBRANCH   7  18
ENDBRANCH   5   9
ENDBRANCH   3   5
ENDBRANCH   2   3
ENDBRANCH   1   2
BRANCH   1  19
ATOM     19  C   UNL     1       3.362   5.808  19.727  0.00  0.00    +0.000 C 
BRANCH  19  20
ATOM     20  N   UNL     1       4.060   4.797  18.904  0.00  0.00    +0.000 N 
ATOM     21  C   UNL     1       5.276   5.058  18.287  0.00  0.00    +0.000 C 
ATOM     22  O   UNL     1       6.042   5.990  18.464  0.00  0.00    +0.000 OA
ATOM     23  C   UNL     1       5.426   4.027  17.207  0.00  0.00    +0.000 C 
ATOM     24  N   UNL     1       4.636   2.880  17.689  0.00  0.00    +0.000 NA
ATOM     25  C   UNL     1       3.655   3.395  18.707  0.00  0.00    +0.000 C 
ATOM     26  C   UNL     1       3.876   2.461  19.927  0.00  0.00    +0.000 C 
ATOM     27  C   UNL     1       3.019   2.671  21.157  0.00  0.00    +0.000 C 
ATOM     28  C   UNL     1       1.506   2.578  20.985  0.00  0.00    +0.000 C 
ATOM     29  C   UNL     1       0.858   3.695  20.181  0.00  0.00    +0.000 C 
ATOM     30  C   UNL     1       1.009   3.649  18.668  0.00  0.00    +0.000 C 
ATOM     31  C   UNL     1       2.288   3.097  18.057  0.00  0.00    +0.000 C 
ATOM     32  H   UNL     1       5.287   2.243  18.147  0.00  0.00    +0.000 HD
BRANCH  23  33
ATOM     33  C   UNL     1       4.811   4.543  15.897  0.00  0.00    +0.000 C 
BRANCH  33  34
ATOM     34  C   UNL     1       5.822   4.874  14.784  0.00  0.00    +0.000 C 
ATOM     35  C   UNL     1       7.264   4.867  15.285  0.00  0.00    +0.000 C 
ATOM     36  C   UNL     1       5.645   3.886  13.629  0.00  0.00    +0.000 C 
ENDBRANCH  33  34
ENDBRANCH  23  33
ENDBRANCH  19  20
ENDBRANCH   1  19
TORSDOF 9
ENDMDL
MODEL 8
REMARK VINA RESULT:      -8.5      1.132      1.551
REMARK  Name = 
REMARK  13 active torsions:
REMARK  status: ('A' for Active; 'I' for Inactive)
REMARK    1  A    between atoms: C_1  and  O_2
REMARK    2  A    between atoms: O_2  and  C_3
REMARK    3  A    between atoms: C_5  and  N_6
REMARK    4  A    between atoms: N_6  and  C_7
REMARK    5  A    between atoms: C_7  and  C_8
REMARK    6  A    between atoms: C_7  and  C_9
REMARK    7  A    between atoms: C_9  and  C_10
REMARK    8  A    between atoms: C_10  and  C_11
REMARK    9  A    between atoms: C_11  and  N_12
REMARK   10  A    between atoms: C_15  and  C_16
REMARK   11  A    between atoms: C_16  and  C_17
REMARK   12  A    between atoms: C_17  and  C_18
REMARK   13  A    between atoms: C_17  and  C_19
REMARK                            x       y       z     vdW  Elec       q    Type
REMARK                         _______ _______ _______ _____ _____    ______ ____
ROOT
ATOM      1  C   UNL     1       2.198   6.730  20.028  0.00  0.00    +0.000 C 
ENDROOT
BRANCH   1   2
ATOM      2  C   UNL     1       1.702   8.181  19.809  0.00  0.00    +0.000 C 
BRANCH   2   3
ATOM      3  C   UNL     1       1.157   8.893  21.060  0.00  0.00    +0.000 C 
ATOM      4  C   UNL     1      -0.245   8.403  21.441  0.00  0.00    +0.000 C 
BRANCH   3   5
ATOM      5  N   UNL     1       1.107  10.331  20.809  0.00  0.00    +0.000 N 
ATOM      6  H   UNL     1       1.932  10.717  20.335  0.00  0.00    +0.000 HD
BRANCH   5   9
ATOM      7  C   UNL     1      -1.633  11.171  18.421  0.00  0.00    +0.000 A 
ATOM      8  C   UNL     1      -0.474  10.623  18.956  0.00  0.00    +0.000 A 
ATOM      9  C   UNL     1      -0.047  10.932  20.258  0.00  0.00    +0.000 A 
ATOM     10  C   UNL     1      -0.849  11.759  21.078  0.00  0.00    +0.000 A 
ATOM     11  N   UNL     1      -0.455  12.064  22.343  0.00  0.00    +0.000 NA
ATOM     12  C   UNL     1      -1.272  12.838  23.096  0.00  0.00    +0.000 A 
ATOM     13  C   UNL     1      -2.491  13.332  22.670  0.00  0.00    +0.000 A 
ATOM     14  C   UNL     1      -2.883  13.036  21.373  0.00  0.00    +0.000 A 
ATOM     15  C   UNL     1      -2.062  12.253  20.548  0.00  0.00    +0.000 A 
ATOM     16  C   UNL     1      -2.434  11.966  19.228  0.00  0.00    +0.000 A 
BRANCH   7  18
ATOM     17  C   UNL     1      -3.476  11.169  16.929  0.00  0.00    +0.000 C 
ATOM     18  O   UNL     1      -2.081  10.988  17.140  0.00  0.00    +0.000 OA
ENDBRANCH   7  18
ENDBRANCH   5   9
ENDBRANCH   3   5
ENDBRANCH   2   3
ENDBRANCH   1   2
BRANCH   1  19
ATOM     19  C   UNL     1       2.183   5.809  18.788  0.00  0.00    +0.000 C 
BRANCH  19  20
ATOM     20  N   UNL     1       3.377   4.975  18.533  0.00  0.00    +0.000 N 
ATOM     21  C   UNL     1       4.541   5.499  17.988  0.00  0.00    +0.000 C 
ATOM     22  O   UNL     1       4.860   6.666  17.836  0.00  0.00    +0.000 OA
ATOM     23  C   UNL     1       5.315   4.329  17.454  0.00  0.00    +0.000 C 
ATOM     24  N   UNL     1       4.878   3.195  18.289  0.00  0.00    +0.000 NA
ATOM     25  C   UNL     1       3.551   3.559  18.897  0.00  0.00    +0.000 C 
ATOM     26  C   UNL     1       3.761   3.282  20.411  0.00  0.00    +0.000 C 
ATOM     27  C   UNL     1       2.597   3.514  21.351  0.00  0.00    +0.000 C 
ATOM     28  C   UNL     1       1.311   2.738  21.083  0.00  0.00    +0.000 C 
ATOM     29  C   UNL     1       0.545   3.130  19.829  0.00  0.00    +0.000 C 
ATOM     30  C   UNL     1       1.090   2.640  18.494  0.00  0.00    +0.000 C 
ATOM     31  C   UNL     1       2.593   2.510  18.298  0.00  0.00    +0.000 C 
ATOM     32  H   UNL     1       5.568   3.091  19.032  0.00  0.00    +0.000 HD
BRANCH  23  33
ATOM     33  C   UNL     1       4.920   4.057  15.994  0.00  0.00    +0.000 C 
BRANCH  33  34
ATOM     34  C   UNL     1       6.098   3.826  15.029  0.00  0.00    +0.000 C 
ATOM     35  C   UNL     1       5.669   3.871  13.565  0.00  0.00    +0.000 C 
ATOM     36  C   UNL     1       7.189   4.863  15.306  0.00  0.00    +0.000 C 
ENDBRANCH  33  34
ENDBRANCH  23  33
ENDBRANCH  19  20
ENDBRANCH   1  19
TORSDOF 9
ENDMDL
MODEL 9
REMARK VINA RESULT:      -8.5      1.959      2.603
REMARK  Name = 
REMARK  13 active torsions:
REMARK  status: ('A' for Active; 'I' for Inactive)
REMARK    1  A    between atoms: C_1  and  O_2
REMARK    2  A    between atoms: O_2  and  C_3
REMARK    3  A    between atoms: C_5  and  N_6
REMARK    4  A    between atoms: N_6  and  C_7
REMARK    5  A    between atoms: C_7  and  C_8
REMARK    6  A    between atoms: C_7  and  C_9
REMARK    7  A    between atoms: C_9  and  C_10
REMARK    8  A    between atoms: C_10  and  C_11
REMARK    9  A    between atoms: C_11  and  N_12
REMARK   10  A    between atoms: C_15  and  C_16
REMARK   11  A    between atoms: C_16  and  C_17
REMARK   12  A    between atoms: C_17  and  C_18
REMARK   13  A    between atoms: C_17  and  C_19
REMARK                            x       y       z     vdW  Elec       q    Type
REMARK                         _______ _______ _______ _____ _____    ______ ____
ROOT
ATOM      1  C   UNL     1       3.126   7.357  18.058  0.00  0.00    +0.000 C 
ENDROOT
BRANCH   1   2
ATOM      2  C   UNL     1       1.884   8.090  18.623  0.00  0.00    +0.000 C 
BRANCH   2   3
ATOM      3  C   UNL     1       1.405   9.308  17.812  0.00  0.00    +0.000 C 
ATOM      4  C   UNL     1       2.338  10.513  17.972  0.00  0.00    +0.000 C 
BRANCH   3   5
ATOM      5  N   UNL     1       0.064   9.680  18.255  0.00  0.00    +0.000 N 
ATOM      6  H   UNL     1      -0.526   8.896  18.557  0.00  0.00    +0.000 HD
BRANCH   5   9
ATOM      7  C   UNL     1      -0.518  13.132  19.546  0.00  0.00    +0.000 A 
ATOM      8  C   UNL     1      -0.278  12.073  18.680  0.00  0.00    +0.000 A 
ATOM      9  C   UNL     1      -0.132  10.757  19.149  0.00  0.00    +0.000 A 
ATOM     10  C   UNL     1      -0.307  10.483  20.526  0.00  0.00    +0.000 A 
ATOM     11  N   UNL     1      -0.174   9.215  20.998  0.00  0.00    +0.000 NA
ATOM     12  C   UNL     1      -0.378   9.002  22.320  0.00  0.00    +0.000 A 
ATOM     13  C   UNL     1      -0.725   9.989  23.224  0.00  0.00    +0.000 A 
ATOM     14  C   UNL     1      -0.840  11.285  22.746  0.00  0.00    +0.000 A 
ATOM     15  C   UNL     1      -0.621  11.558  21.388  0.00  0.00    +0.000 A 
ATOM     16  C   UNL     1      -0.710  12.867  20.894  0.00  0.00    +0.000 A 
BRANCH   7  18
ATOM     17  C   UNL     1       0.526  15.261  19.515  0.00  0.00    +0.000 C 
ATOM     18  O   UNL     1      -0.596  14.451  19.186  0.00  0.00    +0.000 OA
ENDBRANCH   7  18
ENDBRANCH   5   9
ENDBRANCH   3   5
ENDBRANCH   2   3
ENDBRANCH   1   2
BRANCH   1  19
ATOM     19  C   UNL     1       3.679   6.194  18.911  0.00  0.00    +0.000 C 
BRANCH  19  20
ATOM     20  N   UNL     1       4.441   5.133  18.219  0.00  0.00    +0.000 N 
ATOM     21  C   UNL     1       5.716   5.349  17.714  0.00  0.00    +0.000 C 
ATOM     22  O   UNL     1       6.474   6.283  17.915  0.00  0.00    +0.000 OA
ATOM     23  C   UNL     1       5.958   4.258  16.712  0.00  0.00    +0.000 C 
ATOM     24  N   UNL     1       5.108   3.147  17.174  0.00  0.00    +0.000 NA
ATOM     25  C   UNL     1       4.038   3.726  18.059  0.00  0.00    +0.000 C 
ATOM     26  C   UNL     1       4.123   2.859  19.344  0.00  0.00    +0.000 C 
ATOM     27  C   UNL     1       3.151   3.145  20.469  0.00  0.00    +0.000 C 
ATOM     28  C   UNL     1       1.661   3.056  20.151  0.00  0.00    +0.000 C 
ATOM     29  C   UNL     1       1.112   4.133  19.226  0.00  0.00    +0.000 C 
ATOM     30  C   UNL     1       1.413   4.000  17.740  0.00  0.00    +0.000 C 
ATOM     31  C   UNL     1       2.739   3.404  17.292  0.00  0.00    +0.000 C 
ATOM     32  H   UNL     1       5.701   2.531  17.729  0.00  0.00    +0.000 HD
BRANCH  23  33
ATOM     33  C   UNL     1       5.484   4.705  15.320  0.00  0.00    +0.000 C 
BRANCH  33  34
ATOM     34  C   UNL     1       6.218   4.049  14.136  0.00  0.00    +0.000 C 
ATOM     35  C   UNL     1       5.283   3.743  12.968  0.00  0.00    +0.000 C 
ATOM     36  C   UNL     1       7.366   4.955  13.687  0.00  0.00    +0.000 C 
ENDBRANCH  33  34
ENDBRANCH  23  33
ENDBRANCH  19  20
ENDBRANCH   1  19
TORSDOF 9
ENDMDL
