MODEL 1
REMARK VINA RESULT:      -8.6      0.000      0.000
REMARK  Name = 
REMARK  11 active torsions:
REMARK  status: ('A' for Active; 'I' for Inactive)
REMARK    1  A    between atoms: C_1  and  C_2
REMARK    2  A    between atoms: C_2  and  S_4
REMARK    3  A    between atoms: S_4  and  C_5
REMARK    4  A    between atoms: C_5  and  C_6
REMARK    5  A    between atoms: C_5  and  C_17
REMARK    6  A    between atoms: C_6  and  C_7
REMARK    7  A    between atoms: C_13  and  C_14
REMARK    8  A    between atoms: C_14  and  O_16
REMARK    9  A    between atoms: C_17  and  C_19
REMARK   10  A    between atoms: C_22  and  O_23
REMARK   11  A    between atoms: O_23  and  C_24
REMARK                            x       y       z     vdW  Elec       q    Type
REMARK                         _______ _______ _______ _____ _____    ______ ____
ROOT
ATOM      1  C   UNL     1       3.159   5.357  19.039  0.00  0.00    +0.000 C 
ENDROOT
BRANCH   1   2
ATOM      2  C   UNL     1       3.117   6.667  18.253  0.00  0.00    +0.000 C 
ATOM      3  O   UNL     1       3.775   6.825  17.222  0.00  0.00    +0.000 OA
BRANCH   2   4
ATOM      4  C   UNL     1       2.297   7.815  18.759  0.00  0.00    +0.000 A 
ATOM      5  C   UNL     1       2.032   8.875  17.877  0.00  0.00    +0.000 A 
ATOM      6  C   UNL     1       1.246   9.959  18.284  0.00  0.00    +0.000 A 
ATOM      7  C   UNL     1       0.710   9.990  19.571  0.00  0.00    +0.000 A 
ATOM      8  C   UNL     1       1.025   8.972  20.472  0.00  0.00    +0.000 A 
ATOM      9  C   UNL     1       1.790   7.874  20.062  0.00  0.00    +0.000 A 
BRANCH   7  10
ATOM     10  O   UNL     1      -0.064  11.084  19.888  0.00  0.00    +0.000 OA
BRANCH  10  11
ATOM     11  C   UNL     1      -1.333  11.196  19.362  0.00  0.00    +0.000 A 
ATOM     12  C   UNL     1      -1.672  10.252  18.389  0.00  0.00    +0.000 A 
ATOM     13  C   UNL     1      -2.941  10.282  17.794  0.00  0.00    +0.000 A 
ATOM     14  C   UNL     1      -3.861  11.251  18.174  0.00  0.00    +0.000 A 
ATOM     15 CL   UNL     1      -5.408  11.304  17.425  0.00  0.00    +0.000 Cl
ATOM     16  C   UNL     1      -3.542  12.173  19.170  0.00  0.00    +0.000 A 
ATOM     17  C   UNL     1      -2.287  12.129  19.782  0.00  0.00    +0.000 A 
ENDBRANCH  10  11
ENDBRANCH   7  10
ENDBRANCH   2   4
ENDBRANCH   1   2
BRANCH   1  18
ATOM     18  S   UNL     1       1.448   4.695  19.304  0.00  0.00    +0.000 S 
BRANCH  18  20
ATOM     19  C   UNL     1       2.238   3.554  21.650  0.00  0.00    +0.000 C 
ATOM     20  C   UNL     1       1.792   3.264  20.244  0.00  0.00    +0.000 C 
ATOM     21  O   UNL     1       1.677   2.143  19.770  0.00  0.00    +0.000 OA
ENDBRANCH  18  20
ENDBRANCH   1  18
BRANCH   1  22
ATOM     22  C   UNL     1       3.808   4.231  18.253  0.00  0.00    +0.000 C 
BRANCH  22  23
ATOM     23  C   UNL     1       5.312   4.086  18.254  0.00  0.00    +0.000 C 
ATOM     24  O   UNL     1       5.999   4.048  19.273  0.00  0.00    +0.000 OA
ATOM     25  N   UNL     1       5.885   4.281  17.014  0.00  0.00    +0.000 N 
ATOM     26  C   UNL     1       5.221   4.092  15.738  0.00  0.00    +0.000 C 
ATOM     27  C   UNL     1       6.352   3.984  14.742  0.00  0.00    +0.000 C 
ATOM     28  C   UNL     1       7.428   4.896  15.314  0.00  0.00    +0.000 C 
ATOM     29  C   UNL     1       7.211   4.882  16.839  0.00  0.00    +0.000 C 
BRANCH  29  30
ATOM     30  C   UNL     1       7.208   6.321  17.409  0.00  0.00    +0.000 C 
ATOM     31  O   UNL     1       6.793   7.311  16.822  0.00  0.00    +0.000 OA
BRANCH  30  32
ATOM     32  O   UNL     1       7.710   6.408  18.665  0.00  0.00    +0.000 OA
ATOM     33  H   UNL     1       7.079   6.105  19.363  0.00  0.00    +0.000 HD
ENDBRANCH  30  32
ENDBRANCH  29  30
ENDBRANCH  22  23
ENDBRANCH   1  22
TORSDOF 10
ENDMDL
MODEL 2
REMARK VINA RESULT:      -8.5      2.063      2.462
REMARK  Name = 
REMARK  11 active torsions:
REMARK  status: ('A' for Active; 'I' for Inactive)
REMARK    1  A    between atoms: C_1  and  C_2
REMARK    2  A    between atoms: C_2  and  S_4
REMARK    3  A    between atoms: S_4  and  C_5
REMARK    4  A    between atoms: C_5  and  C_6
REMARK    5  A    between atoms: C_5  and  C_17
REMARK    6  A    between atoms: C_6  and  C_7
REMARK    7  A    between atoms: C_13  and  C_14
REMARK    8  A    between atoms: C_14  and  O_16
REMARK    9  A    between atoms: C_17  and  C_19
REMARK   10  A    between atoms: C_22  and  O_23
REMARK   11  A    between atoms: O_23  and  C_24
REMARK                            x       y       z     vdW  Elec       q    Type
REMARK                         _______ _______ _______ _____ _____    ______ ____
ROOT
ATOM      1  C   UNL     1       3.145   5.348  19.085  0.00  0.00    +0.000 C 
ENDROOT
BRANCH   1   2
ATOM      2  C   UNL     1       3.068   6.683  18.345  0.00  0.00    +0.000 C 
ATOM      3  O   UNL     1       3.732   6.900  17.329  0.00  0.00    +0.000 OA
BRANCH   2   4
ATOM      4  C   UNL     1       2.204   7.784  18.882  0.00  0.00    +0.000 A 
ATOM      5  C   UNL     1       1.729   8.748  17.978  0.00  0.00    +0.000 A 
ATOM      6  C   UNL     1       0.893   9.782  18.415  0.00  0.00    +0.000 A 
ATOM      7  C   UNL     1       0.516   9.857  19.755  0.00  0.00    +0.000 A 
ATOM      8  C   UNL     1       1.038   8.940  20.669  0.00  0.00    +0.000 A 
ATOM      9  C   UNL     1       1.854   7.891  20.232  0.00  0.00    +0.000 A 
BRANCH   7  10
ATOM     10  O   UNL     1      -0.320  10.895  20.101  0.00  0.00    +0.000 OA
BRANCH  10  11
ATOM     11  C   UNL     1       0.033  12.189  19.784  0.00  0.00    +0.000 A 
ATOM     12  C   UNL     1       1.193  12.670  20.398  0.00  0.00    +0.000 A 
ATOM     13  C   UNL     1       1.635  13.974  20.139  0.00  0.00    +0.000 A 
ATOM     14  C   UNL     1       0.919  14.788  19.270  0.00  0.00    +0.000 A 
ATOM     15 CL   UNL     1       1.448  16.397  18.972  0.00  0.00    +0.000 Cl
ATOM     16  C   UNL     1      -0.217  14.302  18.625  0.00  0.00    +0.000 A 
ATOM     17  C   UNL     1      -0.646  12.994  18.863  0.00  0.00    +0.000 A 
ENDBRANCH  10  11
ENDBRANCH   7  10
ENDBRANCH   2   4
ENDBRANCH   1   2
BRANCH   1  18
ATOM     18  S   UNL     1       1.448   4.664  19.386  0.00  0.00    +0.000 S 
BRANCH  18  20
ATOM     19  C   UNL     1       2.219   3.433  21.692  0.00  0.00    +0.000 C 
ATOM     20  C   UNL     1       1.833   3.201  20.257  0.00  0.00    +0.000 C 
ATOM     21  O   UNL     1       1.790   2.104  19.719  0.00  0.00    +0.000 OA
ENDBRANCH  18  20
ENDBRANCH   1  18
BRANCH   1  22
ATOM     22  C   UNL     1       3.774   4.253  18.240  0.00  0.00    +0.000 C 
BRANCH  22  23
ATOM     23  C   UNL     1       5.276   4.088  18.225  0.00  0.00    +0.000 C 
ATOM     24  O   UNL     1       5.971   4.028  19.238  0.00  0.00    +0.000 OA
ATOM     25  N   UNL     1       5.840   4.289  16.982  0.00  0.00    +0.000 N 
ATOM     26  C   UNL     1       5.161   4.126  15.711  0.00  0.00    +0.000 C 
ATOM     27  C   UNL     1       6.282   4.014  14.703  0.00  0.00    +0.000 C 
ATOM     28  C   UNL     1       7.376   4.904  15.275  0.00  0.00    +0.000 C 
ATOM     29  C   UNL     1       7.172   4.875  16.803  0.00  0.00    +0.000 C 
BRANCH  29  30
ATOM     30  C   UNL     1       7.195   6.306  17.389  0.00  0.00    +0.000 C 
ATOM     31  O   UNL     1       6.768   7.305  16.827  0.00  0.00    +0.000 OA
BRANCH  30  32
ATOM     32  O   UNL     1       7.735   6.375  18.631  0.00  0.00    +0.000 OA
ATOM     33  H   UNL     1       8.653   6.010  18.681  0.00  0.00    +0.000 HD
ENDBRANCH  30  32
ENDBRANCH  29  30
ENDBRANCH  22  23
ENDBRANCH   1  22
TORSDOF 10
ENDMDL
MODEL 3
REMARK VINA RESULT:      -8.5      2.058      2.670
REMARK  Name = 
REMARK  11 active torsions:
REMARK  status: ('A' for Active; 'I' for Inactive)
REMARK    1  A    between atoms: C_1  and  C_2
REMARK    2  A    between atoms: C_2  and  S_4
REMARK    3  A    between atoms: S_4  and  C_5
REMARK    4  A    between atoms: C_5  and  C_6
REMARK    5  A    between atoms: C_5  and  C_17
REMARK    6  A    between atoms: C_6  and  C_7
REMARK    7  A    between atoms: C_13  and  C_14
REMARK    8  A    between atoms: C_14  and  O_16
REMARK    9  A    between atoms: C_17  and  C_19
REMARK   10  A    between atoms: C_22  and  O_23
REMARK   11  A    between atoms: O_23  and  C_24
REMARK                            x       y       z     vdW  Elec       q    Type
REMARK                         _______ _______ _______ _____ _____    ______ ____
ROOT
ATOM      1  C   UNL     1       3.127   5.292  19.040  0.00  0.00    +0.000 C 
ENDROOT
BRANCH   1   2
ATOM      2  C   UNL     1       3.086   6.599  18.249  0.00  0.00    +0.000 C 
ATOM      3  O   UNL     1       3.757   6.760  17.227  0.00  0.00    +0.000 OA
BRANCH   2   4
ATOM      4  C   UNL     1       2.248   7.741  18.739  0.00  0.00    +0.000 A 
ATOM      5  C   UNL     1       1.921   7.780  20.104  0.00  0.00    +0.000 A 
ATOM      6  C   UNL     1       1.168   8.838  20.626  0.00  0.00    +0.000 A 
ATOM      7  C   UNL     1       0.743   9.871  19.791  0.00  0.00    +0.000 A 
ATOM      8  C   UNL     1       1.008   9.803  18.423  0.00  0.00    +0.000 A 
ATOM      9  C   UNL     1       1.781   8.759  17.901  0.00  0.00    +0.000 A 
BRANCH   7  10
ATOM     10  O   UNL     1       0.019  10.881  20.384  0.00  0.00    +0.000 OA
BRANCH  10  11
ATOM     11  C   UNL     1       0.238  12.188  20.005  0.00  0.00    +0.000 A 
ATOM     12  C   UNL     1       1.426  12.763  20.465  0.00  0.00    +0.000 A 
ATOM     13  C   UNL     1       1.739  14.088  20.133  0.00  0.00    +0.000 A 
ATOM     14  C   UNL     1       0.867  14.829  19.345  0.00  0.00    +0.000 A 
ATOM     15 CL   UNL     1       1.239  16.463  18.960  0.00  0.00    +0.000 Cl
ATOM     16  C   UNL     1      -0.302  14.251  18.853  0.00  0.00    +0.000 A 
ATOM     17  C   UNL     1      -0.604  12.922  19.162  0.00  0.00    +0.000 A 
ENDBRANCH  10  11
ENDBRANCH   7  10
ENDBRANCH   2   4
ENDBRANCH   1   2
BRANCH   1  18
ATOM     18  S   UNL     1       1.419   4.615  19.281  0.00  0.00    +0.000 S 
BRANCH  18  20
ATOM     19  C   UNL     1       2.212   3.464  21.621  0.00  0.00    +0.000 C 
ATOM     20  C   UNL     1       1.763   3.180  20.215  0.00  0.00    +0.000 C 
ATOM     21  O   UNL     1       1.646   2.061  19.738  0.00  0.00    +0.000 OA
ENDBRANCH  18  20
ENDBRANCH   1  18
BRANCH   1  22
ATOM     22  C   UNL     1       3.799   4.169  18.267  0.00  0.00    +0.000 C 
BRANCH  22  23
ATOM     23  C   UNL     1       5.306   4.059  18.264  0.00  0.00    +0.000 C 
ATOM     24  O   UNL     1       5.997   4.042  19.281  0.00  0.00    +0.000 OA
ATOM     25  N   UNL     1       5.870   4.258  17.020  0.00  0.00    +0.000 N 
ATOM     26  C   UNL     1       5.205   4.046  15.749  0.00  0.00    +0.000 C 
ATOM     27  C   UNL     1       6.335   3.957  14.749  0.00  0.00    +0.000 C 
ATOM     28  C   UNL     1       7.392   4.897  15.311  0.00  0.00    +0.000 C 
ATOM     29  C   UNL     1       7.181   4.888  16.837  0.00  0.00    +0.000 C 
BRANCH  29  30
ATOM     30  C   UNL     1       7.148   6.330  17.398  0.00  0.00    +0.000 C 
ATOM     31  O   UNL     1       7.733   6.709  18.402  0.00  0.00    +0.000 OA
BRANCH  30  32
ATOM     32  O   UNL     1       6.400   7.184  16.655  0.00  0.00    +0.000 OA
ATOM     33  H   UNL     1       5.968   6.753  15.877  0.00  0.00    +0.000 HD
ENDBRANCH  30  32
ENDBRANCH  29  30
ENDBRANCH  22  23
ENDBRANCH   1  22
TORSDOF 10
ENDMDL
MODEL 4
REMARK VINA RESULT:      -8.5      1.014      1.384
REMARK  Name = 
REMARK  11 active torsions:
REMARK  status: ('A' for Active; 'I' for Inactive)
REMARK    1  A    between atoms: C_1  and  C_2
REMARK    2  A    between atoms: C_2  and  S_4
REMARK    3  A    between atoms: S_4  and  C_5
REMARK    4  A    between atoms: C_5  and  C_6
REMARK    5  A    between atoms: C_5  and  C_17
REMARK    6  A    between atoms: C_6  and  C_7
REMARK    7  A    between atoms: C_13  and  C_14
REMARK    8  A    between atoms: C_14  and  O_16
REMARK    9  A    between atoms: C_17  and  C_19
REMARK   10  A    between atoms: C_22  and  O_23
REMARK   11  A    between atoms: O_23  and  C_24
REMARK                            x       y       z     vdW  Elec       q    Type
REMARK                         _______ _______ _______ _____ _____    ______ ____
ROOT
ATOM      1  C   UNL     1       3.656   5.223  19.769  0.00  0.00    +0.000 C 
ENDROOT
BRANCH   1   2
ATOM      2  C   UNL     1       2.882   5.912  18.646  0.00  0.00    +0.000 C 
ATOM      3  O   UNL     1       2.749   5.392  17.535  0.00  0.00    +0.000 OA
BRANCH   2   4
ATOM      4  C   UNL     1       2.303   7.277  18.868  0.00  0.00    +0.000 A 
ATOM      5  C   UNL     1       2.325   8.184  17.796  0.00  0.00    +0.000 A 
ATOM      6  C   UNL     1       1.772   9.462  17.934  0.00  0.00    +0.000 A 
ATOM      7  C   UNL     1       1.183   9.842  19.140  0.00  0.00    +0.000 A 
ATOM      8  C   UNL     1       1.217   8.968  20.227  0.00  0.00    +0.000 A 
ATOM      9  C   UNL     1       1.747   7.681  20.086  0.00  0.00    +0.000 A 
BRANCH   7  10
ATOM     10  O   UNL     1       0.648  11.110  19.190  0.00  0.00    +0.000 OA
BRANCH  10  11
ATOM     11  C   UNL     1      -0.708  11.284  19.017  0.00  0.00    +0.000 A 
ATOM     12  C   UNL     1      -1.322  12.183  19.895  0.00  0.00    +0.000 A 
ATOM     13  C   UNL     1      -2.698  12.429  19.799  0.00  0.00    +0.000 A 
ATOM     14  C   UNL     1      -3.452  11.780  18.829  0.00  0.00    +0.000 A 
ATOM     15 CL   UNL     1      -5.145  12.063  18.729  0.00  0.00    +0.000 Cl
ATOM     16  C   UNL     1      -2.841  10.911  17.926  0.00  0.00    +0.000 A 
ATOM     17  C   UNL     1      -1.464  10.683  18.004  0.00  0.00    +0.000 A 
ENDBRANCH  10  11
ENDBRANCH   7  10
ENDBRANCH   2   4
ENDBRANCH   1   2
BRANCH   1  18
ATOM     18  S   UNL     1       2.513   4.245  20.851  0.00  0.00    +0.000 S 
BRANCH  18  20
ATOM     19  C   UNL     1       0.726   3.006  19.207  0.00  0.00    +0.000 C 
ATOM     20  C   UNL     1       2.110   2.919  19.788  0.00  0.00    +0.000 C 
ATOM     21  O   UNL     1       2.900   2.014  19.563  0.00  0.00    +0.000 OA
ENDBRANCH  18  20
ENDBRANCH   1  18
BRANCH   1  22
ATOM     22  C   UNL     1       4.590   4.143  19.249  0.00  0.00    +0.000 C 
BRANCH  22  23
ATOM     23  C   UNL     1       5.988   4.510  18.809  0.00  0.00    +0.000 C 
ATOM     24  O   UNL     1       6.830   5.020  19.546  0.00  0.00    +0.000 OA
ATOM     25  N   UNL     1       6.159   4.485  17.440  0.00  0.00    +0.000 N 
ATOM     26  C   UNL     1       5.375   3.700  16.506  0.00  0.00    +0.000 C 
ATOM     27  C   UNL     1       6.216   3.665  15.251  0.00  0.00    +0.000 C 
ATOM     28  C   UNL     1       6.928   5.011  15.253  0.00  0.00    +0.000 C 
ATOM     29  C   UNL     1       7.061   5.403  16.737  0.00  0.00    +0.000 C 
BRANCH  29  30
ATOM     30  C   UNL     1       6.599   6.862  16.965  0.00  0.00    +0.000 C 
ATOM     31  O   UNL     1       5.569   7.352  16.523  0.00  0.00    +0.000 OA
BRANCH  30  32
ATOM     32  O   UNL     1       7.449   7.586  17.735  0.00  0.00    +0.000 OA
ATOM     33  H   UNL     1       8.158   8.040  17.217  0.00  0.00    +0.000 HD
ENDBRANCH  30  32
ENDBRANCH  29  30
ENDBRANCH  22  23
ENDBRANCH   1  22
TORSDOF 10
ENDMDL
MODEL 5
REMARK VINA RESULT:      -8.4      2.256      2.815
REMARK  Name = 
REMARK  11 active torsions:
REMARK  status: ('A' for Active; 'I' for Inactive)
REMARK    1  A    between atoms: C_1  and  C_2
REMARK    2  A    between atoms: C_2  and  S_4
REMARK    3  A    between atoms: S_4  and  C_5
REMARK    4  A    between atoms: C_5  and  C_6
REMARK    5  A    between atoms: C_5  and  C_17
REMARK    6  A    between atoms: C_6  and  C_7
REMARK    7  A    between atoms: C_13  and  C_14
REMARK    8  A    between atoms: C_14  and  O_16
REMARK    9  A    between atoms: C_17  and  C_19
REMARK   10  A    between atoms: C_22  and  O_23
REMARK   11  A    between atoms: O_23  and  C_24
REMARK                            x       y       z     vdW  Elec       q    Type
REMARK                         _______ _______ _______ _____ _____    ______ ____
ROOT
ATOM      1  C   UNL     1       3.295   5.478  19.346  0.00  0.00    +0.000 C 
ENDROOT
BRANCH   1   2
ATOM      2  C   UNL     1       3.040   6.628  18.373  0.00  0.00    +0.000 C 
ATOM      3  O   UNL     1       3.538   6.645  17.244  0.00  0.00    +0.000 OA
BRANCH   2   4
ATOM      4  C   UNL     1       2.205   7.797  18.802  0.00  0.00    +0.000 A 
ATOM      5  C   UNL     1       1.907   7.928  20.167  0.00  0.00    +0.000 A 
ATOM      6  C   UNL     1       1.157   9.014  20.631  0.00  0.00    +0.000 A 
ATOM      7  C   UNL     1       0.706   9.985  19.737  0.00  0.00    +0.000 A 
ATOM      8  C   UNL     1       0.943   9.825  18.371  0.00  0.00    +0.000 A 
ATOM      9  C   UNL     1       1.713   8.753  17.906  0.00  0.00    +0.000 A 
BRANCH   7  10
ATOM     10  O   UNL     1      -0.011  11.030  20.275  0.00  0.00    +0.000 OA
BRANCH  10  11
ATOM     11  C   UNL     1       0.272  12.322  19.888  0.00  0.00    +0.000 A 
ATOM     12  C   UNL     1       1.523  12.811  20.276  0.00  0.00    +0.000 A 
ATOM     13  C   UNL     1       1.905  14.114  19.930  0.00  0.00    +0.000 A 
ATOM     14  C   UNL     1       1.039  14.919  19.200  0.00  0.00    +0.000 A 
ATOM     15 CL   UNL     1       1.498  16.526  18.799  0.00  0.00    +0.000 Cl
ATOM     16  C   UNL     1      -0.194  14.425  18.778  0.00  0.00    +0.000 A 
ATOM     17  C   UNL     1      -0.567  13.117  19.100  0.00  0.00    +0.000 A 
ENDBRANCH  10  11
ENDBRANCH   7  10
ENDBRANCH   2   4
ENDBRANCH   1   2
BRANCH   1  18
ATOM     18  S   UNL     1       1.697   4.718  19.897  0.00  0.00    +0.000 S 
BRANCH  18  20
ATOM     19  C   UNL     1       1.217   2.275  18.788  0.00  0.00    +0.000 C 
ATOM     20  C   UNL     1       1.295   3.748  18.501  0.00  0.00    +0.000 C 
ATOM     21  O   UNL     1       1.107   4.252  17.403  0.00  0.00    +0.000 OA
ENDBRANCH  18  20
ENDBRANCH   1  18
BRANCH   1  22
ATOM     22  C   UNL     1       3.984   4.299  18.680  0.00  0.00    +0.000 C 
BRANCH  22  23
ATOM     23  C   UNL     1       5.492   4.274  18.576  0.00  0.00    +0.000 C 
ATOM     24  O   UNL     1       6.250   4.422  19.533  0.00  0.00    +0.000 OA
ATOM     25  N   UNL     1       5.956   4.350  17.279  0.00  0.00    +0.000 N 
ATOM     26  C   UNL     1       5.222   3.946  16.095  0.00  0.00    +0.000 C 
ATOM     27  C   UNL     1       6.285   3.798  15.031  0.00  0.00    +0.000 C 
ATOM     28  C   UNL     1       7.314   4.858  15.396  0.00  0.00    +0.000 C 
ATOM     29  C   UNL     1       7.208   5.026  16.924  0.00  0.00    +0.000 C 
BRANCH  29  30
ATOM     30  C   UNL     1       7.119   6.522  17.309  0.00  0.00    +0.000 C 
ATOM     31  O   UNL     1       6.475   7.368  16.705  0.00  0.00    +0.000 OA
BRANCH  30  32
ATOM     32  O   UNL     1       7.827   6.838  18.422  0.00  0.00    +0.000 OA
ATOM     33  H   UNL     1       8.492   7.554  18.274  0.00  0.00    +0.000 HD
ENDBRANCH  30  32
ENDBRANCH  29  30
ENDBRANCH  22  23
ENDBRANCH   1  22
TORSDOF 10
ENDMDL
MODEL 6
REMARK VINA RESULT:      -8.4      1.083      1.304
REMARK  Name = 
REMARK  11 active torsions:
REMARK  status: ('A' for Active; 'I' for Inactive)
REMARK    1  A    between atoms: C_1  and  C_2
REMARK    2  A    between atoms: C_2  and  S_4
REMARK    3  A    between atoms: S_4  and  C_5
REMARK    4  A    between atoms: C_5  and  C_6
REMARK    5  A    between atoms: C_5  and  C_17
REMARK    6  A    between atoms: C_6  and  C_7
REMARK    7  A    between atoms: C_13  and  C_14
REMARK    8  A    between atoms: C_14  and  O_16
REMARK    9  A    between atoms: C_17  and  C_19
REMARK   10  A    between atoms: C_22  and  O_23
REMARK   11  A    between atoms: O_23  and  C_24
REMARK                            x       y       z     vdW  Elec       q    Type
REMARK                         _______ _______ _______ _____ _____    ______ ____
ROOT
ATOM      1  C   UNL     1       3.430   5.496  19.816  0.00  0.00    +0.000 C 
ENDROOT
BRANCH   1   2
ATOM      2  C   UNL     1       2.590   6.150  18.721  0.00  0.00    +0.000 C 
ATOM      3  O   UNL     1       2.335   5.568  17.664  0.00  0.00    +0.000 OA
BRANCH   2   4
ATOM      4  C   UNL     1       2.094   7.554  18.899  0.00  0.00    +0.000 A 
ATOM      5  C   UNL     1       2.202   8.434  17.809  0.00  0.00    +0.000 A 
ATOM      6  C   UNL     1       1.728   9.747  17.906  0.00  0.00    +0.000 A 
ATOM      7  C   UNL     1       1.135  10.190  19.087  0.00  0.00    +0.000 A 
ATOM      8  C   UNL     1       1.085   9.341  20.194  0.00  0.00    +0.000 A 
ATOM      9  C   UNL     1       1.535   8.020  20.093  0.00  0.00    +0.000 A 
BRANCH   7  10
ATOM     10  O   UNL     1       0.682  11.491  19.097  0.00  0.00    +0.000 OA
BRANCH  10  11
ATOM     11  C   UNL     1      -0.666  11.741  19.238  0.00  0.00    +0.000 A 
ATOM     12  C   UNL     1      -1.484  11.260  18.211  0.00  0.00    +0.000 A 
ATOM     13  C   UNL     1      -2.870  11.464  18.263  0.00  0.00    +0.000 A 
ATOM     14  C   UNL     1      -3.429  12.145  19.337  0.00  0.00    +0.000 A 
ATOM     15 CL   UNL     1      -5.126  12.418  19.387  0.00  0.00    +0.000 Cl
ATOM     16  C   UNL     1      -2.624  12.596  20.382  0.00  0.00    +0.000 A 
ATOM     17  C   UNL     1      -1.246  12.371  20.345  0.00  0.00    +0.000 A 
ENDBRANCH  10  11
ENDBRANCH   7  10
ENDBRANCH   2   4
ENDBRANCH   1   2
BRANCH   1  18
ATOM     18  S   UNL     1       2.350   4.595  21.023  0.00  0.00    +0.000 S 
BRANCH  18  20
ATOM     19  C   UNL     1       0.913   2.940  19.404  0.00  0.00    +0.000 C 
ATOM     20  C   UNL     1       2.171   3.056  20.219  0.00  0.00    +0.000 C 
ATOM     21  O   UNL     1       3.007   2.171  20.333  0.00  0.00    +0.000 OA
ENDBRANCH  18  20
ENDBRANCH   1  18
BRANCH   1  22
ATOM     22  C   UNL     1       4.302   4.372  19.283  0.00  0.00    +0.000 C 
BRANCH  22  23
ATOM     23  C   UNL     1       5.739   4.652  18.907  0.00  0.00    +0.000 C 
ATOM     24  O   UNL     1       6.569   5.136  19.675  0.00  0.00    +0.000 OA
ATOM     25  N   UNL     1       5.977   4.581  17.550  0.00  0.00    +0.000 N 
ATOM     26  C   UNL     1       5.199   3.814  16.596  0.00  0.00    +0.000 C 
ATOM     27  C   UNL     1       6.100   3.701  15.387  0.00  0.00    +0.000 C 
ATOM     28  C   UNL     1       6.883   5.006  15.394  0.00  0.00    +0.000 C 
ATOM     29  C   UNL     1       6.962   5.431  16.874  0.00  0.00    +0.000 C 
BRANCH  29  30
ATOM     30  C   UNL     1       6.569   6.918  17.042  0.00  0.00    +0.000 C 
ATOM     31  O   UNL     1       7.340   7.821  17.337  0.00  0.00    +0.000 OA
BRANCH  30  32
ATOM     32  O   UNL     1       5.254   7.160  16.818  0.00  0.00    +0.000 OA
ATOM     33  H   UNL     1       4.654   6.501  17.246  0.00  0.00    +0.000 HD
ENDBRANCH  30  32
ENDBRANCH  29  30
ENDBRANCH  22  23
ENDBRANCH   1  22
TORSDOF 10
ENDMDL
MODEL 7
REMARK VINA RESULT:      -8.3      2.140      2.621
REMARK  Name = 
REMARK  11 active torsions:
REMARK  status: ('A' for Active; 'I' for Inactive)
REMARK    1  A    between atoms: C_1  and  C_2
REMARK    2  A    between atoms: C_2  and  S_4
REMARK    3  A    between atoms: S_4  and  C_5
REMARK    4  A    between atoms: C_5  and  C_6
REMARK    5  A    between atoms: C_5  and  C_17
REMARK    6  A    between atoms: C_6  and  C_7
REMARK    7  A    between atoms: C_13  and  C_14
REMARK    8  A    between atoms: C_14  and  O_16
REMARK    9  A    between atoms: C_17  and  C_19
REMARK   10  A    between atoms: C_22  and  O_23
REMARK   11  A    between atoms: O_23  and  C_24
REMARK                            x       y       z     vdW  Elec       q    Type
REMARK                         _______ _______ _______ _____ _____    ______ ____
ROOT
ATOM      1  C   UNL     1       3.156   5.478  19.171  0.00  0.00    +0.000 C 
ENDROOT
BRANCH   1   2
ATOM      2  C   UNL     1       3.146   6.819  18.439  0.00  0.00    +0.000 C 
ATOM      3  O   UNL     1       3.951   7.073  17.539  0.00  0.00    +0.000 OA
BRANCH   2   4
ATOM      4  C   UNL     1       2.171   7.882  18.844  0.00  0.00    +0.000 A 
ATOM      5  C   UNL     1       1.611   8.682  17.834  0.00  0.00    +0.000 A 
ATOM      6  C   UNL     1       0.671   9.670  18.149  0.00  0.00    +0.000 A 
ATOM      7  C   UNL     1       0.275   9.862  19.472  0.00  0.00    +0.000 A 
ATOM      8  C   UNL     1       0.876   9.115  20.485  0.00  0.00    +0.000 A 
ATOM      9  C   UNL     1       1.798   8.110  20.173  0.00  0.00    +0.000 A 
BRANCH   7  10
ATOM     10  O   UNL     1      -0.665  10.844  19.695  0.00  0.00    +0.000 OA
BRANCH  10  11
ATOM     11  C   UNL     1      -0.321  11.963  20.422  0.00  0.00    +0.000 A 
ATOM     12  C   UNL     1       0.548  12.855  19.787  0.00  0.00    +0.000 A 
ATOM     13  C   UNL     1       0.957  14.024  20.444  0.00  0.00    +0.000 A 
ATOM     14  C   UNL     1       0.495  14.295  21.726  0.00  0.00    +0.000 A 
ATOM     15 CL   UNL     1       1.018  15.716  22.541  0.00  0.00    +0.000 Cl
ATOM     16  C   UNL     1      -0.400  13.428  22.351  0.00  0.00    +0.000 A 
ATOM     17  C   UNL     1      -0.828  12.275  21.688  0.00  0.00    +0.000 A 
ENDBRANCH  10  11
ENDBRANCH   7  10
ENDBRANCH   2   4
ENDBRANCH   1   2
BRANCH   1  18
ATOM     18  S   UNL     1       1.428   4.881  19.473  0.00  0.00    +0.000 S 
BRANCH  18  20
ATOM     19  C   UNL     1       2.206   3.477  21.676  0.00  0.00    +0.000 C 
ATOM     20  C   UNL     1       1.740   3.350  20.252  0.00  0.00    +0.000 C 
ATOM     21  O   UNL     1       1.590   2.289  19.664  0.00  0.00    +0.000 OA
ENDBRANCH  18  20
ENDBRANCH   1  18
BRANCH   1  22
ATOM     22  C   UNL     1       3.725   4.357  18.317  0.00  0.00    +0.000 C 
BRANCH  22  23
ATOM     23  C   UNL     1       5.217   4.115  18.295  0.00  0.00    +0.000 C 
ATOM     24  O   UNL     1       5.912   4.012  19.305  0.00  0.00    +0.000 OA
ATOM     25  N   UNL     1       5.786   4.295  17.052  0.00  0.00    +0.000 N 
ATOM     26  C   UNL     1       5.095   4.175  15.782  0.00  0.00    +0.000 C 
ATOM     27  C   UNL     1       6.205   4.013  14.769  0.00  0.00    +0.000 C 
ATOM     28  C   UNL     1       7.345   4.842  15.343  0.00  0.00    +0.000 C 
ATOM     29  C   UNL     1       7.146   4.813  16.871  0.00  0.00    +0.000 C 
BRANCH  29  30
ATOM     30  C   UNL     1       7.244   6.237  17.467  0.00  0.00    +0.000 C 
ATOM     31  O   UNL     1       7.834   6.531  18.497  0.00  0.00    +0.000 OA
BRANCH  30  32
ATOM     32  O   UNL     1       6.612   7.180  16.725  0.00  0.00    +0.000 OA
ATOM     33  H   UNL     1       7.045   8.068  16.766  0.00  0.00    +0.000 HD
ENDBRANCH  30  32
ENDBRANCH  29  30
ENDBRANCH  22  23
ENDBRANCH   1  22
TORSDOF 10
ENDMDL
MODEL 8
REMARK VINA RESULT:      -8.2      1.142      1.788
REMARK  Name = 
REMARK  11 active torsions:
REMARK  status: ('A' for Active; 'I' for Inactive)
REMARK    1  A    between atoms: C_1  and  C_2
REMARK    2  A    between atoms: C_2  and  S_4
REMARK    3  A    between atoms: S_4  and  C_5
REMARK    4  A    between atoms: C_5  and  C_6
REMARK    5  A    between atoms: C_5  and  C_17
REMARK    6  A    between atoms: C_6  and  C_7
REMARK    7  A    between atoms: C_13  and  C_14
REMARK    8  A    between atoms: C_14  and  O_16
REMARK    9  A    between atoms: C_17  and  C_19
REMARK   10  A    between atoms: C_22  and  O_23
REMARK   11  A    between atoms: O_23  and  C_24
REMARK                            x       y       z     vdW  Elec       q    Type
REMARK                         _______ _______ _______ _____ _____    ______ ____
ROOT
ATOM      1  C   UNL     1       3.474   5.470  19.802  0.00  0.00    +0.000 C 
ENDROOT
BRANCH   1   2
ATOM      2  C   UNL     1       2.618   6.087  18.696  0.00  0.00    +0.000 C 
ATOM      3  O   UNL     1       2.349   5.469  17.663  0.00  0.00    +0.000 OA
BRANCH   2   4
ATOM      4  C   UNL     1       2.124   7.495  18.833  0.00  0.00    +0.000 A 
ATOM      5  C   UNL     1       1.593   7.889  20.072  0.00  0.00    +0.000 A 
ATOM      6  C   UNL     1       1.144   9.200  20.269  0.00  0.00    +0.000 A 
ATOM      7  C   UNL     1       1.232  10.132  19.235  0.00  0.00    +0.000 A 
ATOM      8  C   UNL     1       1.698   9.728  17.983  0.00  0.00    +0.000 A 
ATOM      9  C   UNL     1       2.170   8.425  17.789  0.00  0.00    +0.000 A 
BRANCH   7  10
ATOM     10  O   UNL     1       0.784  11.403  19.515  0.00  0.00    +0.000 OA
BRANCH  10  11
ATOM     11  C   UNL     1      -0.570  11.662  19.522  0.00  0.00    +0.000 A 
ATOM     12  C   UNL     1      -1.059  12.308  20.661  0.00  0.00    +0.000 A 
ATOM     13  C   UNL     1      -2.422  12.616  20.763  0.00  0.00    +0.000 A 
ATOM     14  C   UNL     1      -3.287  12.279  19.729  0.00  0.00    +0.000 A 
ATOM     15 CL   UNL     1      -4.964  12.633  19.867  0.00  0.00    +0.000 Cl
ATOM     16  C   UNL     1      -2.801  11.668  18.575  0.00  0.00    +0.000 A 
ATOM     17  C   UNL     1      -1.438  11.383  18.460  0.00  0.00    +0.000 A 
ENDBRANCH  10  11
ENDBRANCH   7  10
ENDBRANCH   2   4
ENDBRANCH   1   2
BRANCH   1  18
ATOM     18  S   UNL     1       2.413   4.580  21.034  0.00  0.00    +0.000 S 
BRANCH  18  20
ATOM     19  C   UNL     1       0.754   3.053  19.504  0.00  0.00    +0.000 C 
ATOM     20  C   UNL     1       2.096   3.091  20.180  0.00  0.00    +0.000 C 
ATOM     21  O   UNL     1       2.909   2.178  20.159  0.00  0.00    +0.000 OA
ENDBRANCH  18  20
ENDBRANCH   1  18
BRANCH   1  22
ATOM     22  C   UNL     1       4.360   4.347  19.289  0.00  0.00    +0.000 C 
BRANCH  22  23
ATOM     23  C   UNL     1       5.791   4.640  18.902  0.00  0.00    +0.000 C 
ATOM     24  O   UNL     1       6.623   5.132  19.662  0.00  0.00    +0.000 OA
ATOM     25  N   UNL     1       6.019   4.570  17.543  0.00  0.00    +0.000 N 
ATOM     26  C   UNL     1       5.240   3.796  16.595  0.00  0.00    +0.000 C 
ATOM     27  C   UNL     1       6.132   3.689  15.379  0.00  0.00    +0.000 C 
ATOM     28  C   UNL     1       6.904   5.002  15.379  0.00  0.00    +0.000 C 
ATOM     29  C   UNL     1       6.991   5.428  16.858  0.00  0.00    +0.000 C 
BRANCH  29  30
ATOM     30  C   UNL     1       6.586   6.912  17.029  0.00  0.00    +0.000 C 
ATOM     31  O   UNL     1       7.352   7.823  17.309  0.00  0.00    +0.000 OA
BRANCH  30  32
ATOM     32  O   UNL     1       5.265   7.141  16.824  0.00  0.00    +0.000 OA
ATOM     33  H   UNL     1       4.783   6.359  16.460  0.00  0.00    +0.000 HD
ENDBRANCH  30  32
ENDBRANCH  29  30
ENDBRANCH  22  23
ENDBRANCH   1  22
TORSDOF 10
ENDMDL
MODEL 9
REMARK VINA RESULT:      -8.2      2.154      2.797
REMARK  Name = 
REMARK  11 active torsions:
REMARK  status: ('A' for Active; 'I' for Inactive)
REMARK    1  A    between atoms: C_1  and  C_2
REMARK    2  A    between atoms: C_2  and  S_4
REMARK    3  A    between atoms: S_4  and  C_5
REMARK    4  A    between atoms: C_5  and  C_6
REMARK    5  A    between atoms: C_5  and  C_17
REMARK    6  A    between atoms: C_6  and  C_7
REMARK    7  A    between atoms: C_13  and  C_14
REMARK    8  A    between atoms: C_14  and  O_16
REMARK    9  A    between atoms: C_17  and  C_19
REMARK   10  A    between atoms: C_22  and  O_23
REMARK   11  A    between atoms: O_23  and  C_24
REMARK                            x       y       z     vdW  Elec       q    Type
REMARK                         _______ _______ _______ _____ _____    ______ ____
ROOT
ATOM      1  C   UNL     1       3.160   5.555  19.258  0.00  0.00    +0.000 C 
ENDROOT
BRANCH   1   2
ATOM      2  C   UNL     1       3.062   6.805  18.385  0.00  0.00    +0.000 C 
ATOM      3  O   UNL     1       3.736   6.935  17.361  0.00  0.00    +0.000 OA
BRANCH   2   4
ATOM      4  C   UNL     1       2.163   7.932  18.796  0.00  0.00    +0.000 A 
ATOM      5  C   UNL     1       1.841   8.056  20.157  0.00  0.00    +0.000 A 
ATOM      6  C   UNL     1       1.031   9.106  20.604  0.00  0.00    +0.000 A 
ATOM      7  C   UNL     1       0.543  10.047  19.697  0.00  0.00    +0.000 A 
ATOM      8  C   UNL     1       0.806   9.891  18.336  0.00  0.00    +0.000 A 
ATOM      9  C   UNL     1       1.635   8.856  17.888  0.00  0.00    +0.000 A 
BRANCH   7  10
ATOM     10  O   UNL     1      -0.233  11.057  20.219  0.00  0.00    +0.000 OA
BRANCH  10  11
ATOM     11  C   UNL     1       0.153  12.369  20.052  0.00  0.00    +0.000 A 
ATOM     12  C   UNL     1      -0.864  13.261  19.700  0.00  0.00    +0.000 A 
ATOM     13  C   UNL     1      -0.572  14.619  19.507  0.00  0.00    +0.000 A 
ATOM     14  C   UNL     1       0.729  15.076  19.668  0.00  0.00    +0.000 A 
ATOM     15 CL   UNL     1       1.092  16.736  19.406  0.00  0.00    +0.000 Cl
ATOM     16  C   UNL     1       1.742  14.199  20.054  0.00  0.00    +0.000 A 
ATOM     17  C   UNL     1       1.448  12.850  20.271  0.00  0.00    +0.000 A 
ENDBRANCH  10  11
ENDBRANCH   7  10
ENDBRANCH   2   4
ENDBRANCH   1   2
BRANCH   1  18
ATOM     18  S   UNL     1       1.473   4.933  19.708  0.00  0.00    +0.000 S 
BRANCH  18  20
ATOM     19  C   UNL     1       1.552   2.231  20.058  0.00  0.00    +0.000 C 
ATOM     20  C   UNL     1       1.884   3.552  20.695  0.00  0.00    +0.000 C 
ATOM     21  O   UNL     1       2.388   3.681  21.800  0.00  0.00    +0.000 OA
ENDBRANCH  18  20
ENDBRANCH   1  18
BRANCH   1  22
ATOM     22  C   UNL     1       3.736   4.367  18.504  0.00  0.00    +0.000 C 
BRANCH  22  23
ATOM     23  C   UNL     1       5.233   4.165  18.455  0.00  0.00    +0.000 C 
ATOM     24  O   UNL     1       5.955   4.126  19.450  0.00  0.00    +0.000 OA
ATOM     25  N   UNL     1       5.766   4.307  17.191  0.00  0.00    +0.000 N 
ATOM     26  C   UNL     1       5.049   4.112  15.945  0.00  0.00    +0.000 C 
ATOM     27  C   UNL     1       6.138   3.936  14.912  0.00  0.00    +0.000 C 
ATOM     28  C   UNL     1       7.268   4.820  15.421  0.00  0.00    +0.000 C 
ATOM     29  C   UNL     1       7.106   4.853  16.953  0.00  0.00    +0.000 C 
BRANCH  29  30
ATOM     30  C   UNL     1       7.178   6.305  17.484  0.00  0.00    +0.000 C 
ATOM     31  O   UNL     1       7.830   6.669  18.454  0.00  0.00    +0.000 OA
BRANCH  30  32
ATOM     32  O   UNL     1       6.444   7.185  16.759  0.00  0.00    +0.000 OA
ATOM     33  H   UNL     1       5.472   7.113  16.922  0.00  0.00    +0.000 HD
ENDBRANCH  30  32
ENDBRANCH  29  30
ENDBRANCH  22  23
ENDBRANCH   1  22
TORSDOF 10
ENDMDL
