MODEL 1
REMARK VINA RESULT:      -7.2      0.000      0.000
REMARK  Name = 
REMARK  12 active torsions:
REMARK  status: ('A' for Active; 'I' for Inactive)
REMARK    1  A    between atoms: N_3  and  C_4
REMARK    2  A    between atoms: C_4  and  C_5
REMARK    3  A    between atoms: C_5  and  C_6
REMARK    4  A    between atoms: C_6  and  C_7
REMARK    5  A    between atoms: C_7  and  C_8
REMARK    6  A    between atoms: C_8  and  C_9
REMARK    7  A    between atoms: C_9  and  N_10
REMARK    8  A    between atoms: N_10  and  C_11
REMARK    9  A    between atoms: C_13  and  C_14
REMARK   10  A    between atoms: N_16  and  C_17
REMARK   11  A    between atoms: C_17  and  C_18
REMARK   12  A    between atoms: C_25  and  O_26
REMARK                            x       y       z     vdW  Elec       q    Type
REMARK                         _______ _______ _______ _____ _____    ______ ____
ROOT
ATOM      1  C   UNL     1       4.641   4.703  19.086  0.00  0.00    +0.000 A 
ATOM      2  N   UNL     1       3.684   5.307  19.820  0.00  0.00    +0.000 NA
ATOM      3  C   UNL     1       3.120   6.422  19.278  0.00  0.00    +0.000 A 
ATOM      4  C   UNL     1       3.465   6.957  18.036  0.00  0.00    +0.000 A 
ATOM      5  C   UNL     1       4.417   6.305  17.262  0.00  0.00    +0.000 A 
ATOM      6  N   UNL     1       4.727   6.756  16.023  0.00  0.00    +0.000 NA
ATOM      7  C   UNL     1       5.600   6.062  15.264  0.00  0.00    +0.000 A 
ATOM      8  C   UNL     1       6.228   4.915  15.688  0.00  0.00    +0.000 A 
ATOM      9  C   UNL     1       5.944   4.464  16.969  0.00  0.00    +0.000 A 
ATOM     10  C   UNL     1       5.020   5.152  17.794  0.00  0.00    +0.000 A 
ENDROOT
BRANCH   3  11
ATOM     11  C   UNL     1       2.040   7.083  20.081  0.00  0.00    +0.000 C 
ATOM     12  O   UNL     1       1.410   6.432  20.913  0.00  0.00    +0.000 OA
ATOM     13  N   UNL     1       1.814   8.420  19.845  0.00  0.00    +0.000 N 
ATOM     14  H   UNL     1       2.354   8.868  19.111  0.00  0.00    +0.000 HD
BRANCH  13  15
ATOM     15  C   UNL     1       0.762   9.142  20.525  0.00  0.00    +0.000 C 
BRANCH  15  16
ATOM     16  C   UNL     1       0.444  10.464  19.870  0.00  0.00    +0.000 A 
ATOM     17  C   UNL     1      -0.745  11.141  20.185  0.00  0.00    +0.000 A 
ATOM     18  C   UNL     1      -1.012  12.398  19.637  0.00  0.00    +0.000 A 
ATOM     19  C   UNL     1      -0.094  12.977  18.771  0.00  0.00    +0.000 A 
ATOM     20  F   UNL     1      -0.351  14.185  18.250  0.00  0.00    +0.000 F 
ATOM     21  C   UNL     1       1.089  12.326  18.448  0.00  0.00    +0.000 A 
ATOM     22  C   UNL     1       1.361  11.073  18.999  0.00  0.00    +0.000 A 
ENDBRANCH  15  16
ENDBRANCH  13  15
ENDBRANCH   3  11
BRANCH   1  23
ATOM     23  N   UNL     1       5.267   3.569  19.581  0.00  0.00    +0.000 N 
ATOM     24  H   UNL     1       6.157   3.743  20.032  0.00  0.00    +0.000 HD
BRANCH  23  25
ATOM     25  C   UNL     1       4.553   2.384  19.994  0.00  0.00    +0.000 C 
BRANCH  25  26
ATOM     26  C   UNL     1       4.237   1.561  18.733  0.00  0.00    +0.000 C 
BRANCH  26  27
ATOM     27  C   UNL     1       2.737   1.517  18.405  0.00  0.00    +0.000 C 
BRANCH  27  28
ATOM     28  C   UNL     1       2.311   2.679  17.504  0.00  0.00    +0.000 C 
BRANCH  28  29
ATOM     29  C   UNL     1       1.216   3.518  18.170  0.00  0.00    +0.000 C 
BRANCH  29  30
ATOM     30  C   UNL     1       0.693   2.849  19.439  0.00  0.00    +0.000 C 
BRANCH  30  33
ATOM     31  O   UNL     1       1.822   2.030  21.944  0.00  0.00    +0.000 OA
ATOM     32  C   UNL     1       1.464   3.183  21.759  0.00  0.00    +0.000 C 
ATOM     33  N   UNL     1       0.908   3.677  20.608  0.00  0.00    +0.000 N 
ATOM     34  H   UNL     1       0.692   4.664  20.558  0.00  0.00    +0.000 HD
ENDBRANCH  30  33
ENDBRANCH  29  30
ENDBRANCH  28  29
ENDBRANCH  27  28
ENDBRANCH  26  27
ENDBRANCH  25  26
ENDBRANCH  23  25
ENDBRANCH   1  23
BRANCH   4  35
ATOM     35  O   UNL     1       2.880   8.095  17.523  0.00  0.00    +0.000 OA
ATOM     36  H   UNL     1       2.490   8.618  18.258  0.00  0.00    +0.000 HD
ENDBRANCH   4  35
TORSDOF 12
ENDMDL
MODEL 2
REMARK VINA RESULT:      -7.1      2.678      5.052
REMARK  Name = 
REMARK  12 active torsions:
REMARK  status: ('A' for Active; 'I' for Inactive)
REMARK    1  A    between atoms: N_3  and  C_4
REMARK    2  A    between atoms: C_4  and  C_5
REMARK    3  A    between atoms: C_5  and  C_6
REMARK    4  A    between atoms: C_6  and  C_7
REMARK    5  A    between atoms: C_7  and  C_8
REMARK    6  A    between atoms: C_8  and  C_9
REMARK    7  A    between atoms: C_9  and  N_10
REMARK    8  A    between atoms: N_10  and  C_11
REMARK    9  A    between atoms: C_13  and  C_14
REMARK   10  A    between atoms: N_16  and  C_17
REMARK   11  A    between atoms: C_17  and  C_18
REMARK   12  A    between atoms: C_25  and  O_26
REMARK                            x       y       z     vdW  Elec       q    Type
REMARK                         _______ _______ _______ _____ _____    ______ ____
ROOT
ATOM      1  C   UNL     1       5.017   4.946  18.845  0.00  0.00    +0.000 A 
ATOM      2  N   UNL     1       4.550   6.199  18.673  0.00  0.00    +0.000 NA
ATOM      3  C   UNL     1       3.259   6.311  18.255  0.00  0.00    +0.000 A 
ATOM      4  C   UNL     1       2.414   5.229  18.004  0.00  0.00    +0.000 A 
ATOM      5  C   UNL     1       2.884   3.941  18.227  0.00  0.00    +0.000 A 
ATOM      6  N   UNL     1       2.071   2.870  18.061  0.00  0.00    +0.000 NA
ATOM      7  C   UNL     1       2.531   1.637  18.356  0.00  0.00    +0.000 A 
ATOM      8  C   UNL     1       3.808   1.390  18.800  0.00  0.00    +0.000 A 
ATOM      9  C   UNL     1       4.660   2.477  18.940  0.00  0.00    +0.000 A 
ATOM     10  C   UNL     1       4.214   3.791  18.658  0.00  0.00    +0.000 A 
ENDROOT
BRANCH   3  11
ATOM     11  C   UNL     1       2.729   7.703  18.084  0.00  0.00    +0.000 C 
ATOM     12  O   UNL     1       3.082   8.379  17.119  0.00  0.00    +0.000 OA
ATOM     13  N   UNL     1       1.843   8.157  19.035  0.00  0.00    +0.000 N 
ATOM     14  H   UNL     1       1.640   7.546  19.820  0.00  0.00    +0.000 HD
BRANCH  13  15
ATOM     15  C   UNL     1       1.313   9.502  18.996  0.00  0.00    +0.000 C 
BRANCH  15  16
ATOM     16  C   UNL     1       0.584   9.878  20.263  0.00  0.00    +0.000 A 
ATOM     17  C   UNL     1      -0.248  11.009  20.290  0.00  0.00    +0.000 A 
ATOM     18  C   UNL     1      -0.982  11.322  21.437  0.00  0.00    +0.000 A 
ATOM     19  C   UNL     1      -0.881  10.509  22.559  0.00  0.00    +0.000 A 
ATOM     20  F   UNL     1      -1.589  10.810  23.656  0.00  0.00    +0.000 F 
ATOM     21  C   UNL     1      -0.066   9.385  22.552  0.00  0.00    +0.000 A 
ATOM     22  C   UNL     1       0.663   9.066  21.406  0.00  0.00    +0.000 A 
ENDBRANCH  15  16
ENDBRANCH  13  15
ENDBRANCH   3  11
BRANCH   1  23
ATOM     23  N   UNL     1       6.327   4.757  19.259  0.00  0.00    +0.000 N 
ATOM     24  H   UNL     1       6.461   3.970  19.883  0.00  0.00    +0.000 HD
BRANCH  23  25
ATOM     25  C   UNL     1       7.473   5.172  18.485  0.00  0.00    +0.000 C 
BRANCH  25  26
ATOM     26  C   UNL     1       7.329   4.579  17.073  0.00  0.00    +0.000 C 
BRANCH  26  27
ATOM     27  C   UNL     1       6.930   5.624  16.020  0.00  0.00    +0.000 C 
BRANCH  27  28
ATOM     28  C   UNL     1       5.727   5.172  15.188  0.00  0.00    +0.000 C 
BRANCH  28  29
ATOM     29  C   UNL     1       5.978   3.798  14.559  0.00  0.00    +0.000 C 
BRANCH  29  30
ATOM     30  C   UNL     1       6.502   3.924  13.130  0.00  0.00    +0.000 C 
BRANCH  30  33
ATOM     31  O   UNL     1       4.228   3.409  11.462  0.00  0.00    +0.000 OA
ATOM     32  C   UNL     1       5.120   2.585  11.586  0.00  0.00    +0.000 C 
ATOM     33  N   UNL     1       6.243   2.726  12.359  0.00  0.00    +0.000 N 
ATOM     34  H   UNL     1       6.937   1.989  12.346  0.00  0.00    +0.000 HD
ENDBRANCH  30  33
ENDBRANCH  29  30
ENDBRANCH  28  29
ENDBRANCH  27  28
ENDBRANCH  26  27
ENDBRANCH  25  26
ENDBRANCH  23  25
ENDBRANCH   1  23
BRANCH   4  35
ATOM     35  O   UNL     1       1.114   5.380  17.569  0.00  0.00    +0.000 OA
ATOM     36  H   UNL     1       1.076   5.220  16.601  0.00  0.00    +0.000 HD
ENDBRANCH   4  35
TORSDOF 12
ENDMDL
MODEL 3
REMARK VINA RESULT:      -6.9      2.495      5.096
REMARK  Name = 
REMARK  12 active torsions:
REMARK  status: ('A' for Active; 'I' for Inactive)
REMARK    1  A    between atoms: N_3  and  C_4
REMARK    2  A    between atoms: C_4  and  C_5
REMARK    3  A    between atoms: C_5  and  C_6
REMARK    4  A    between atoms: C_6  and  C_7
REMARK    5  A    between atoms: C_7  and  C_8
REMARK    6  A    between atoms: C_8  and  C_9
REMARK    7  A    between atoms: C_9  and  N_10
REMARK    8  A    between atoms: N_10  and  C_11
REMARK    9  A    between atoms: C_13  and  C_14
REMARK   10  A    between atoms: N_16  and  C_17
REMARK   11  A    between atoms: C_17  and  C_18
REMARK   12  A    between atoms: C_25  and  O_26
REMARK                            x       y       z     vdW  Elec       q    Type
REMARK                         _______ _______ _______ _____ _____    ______ ____
ROOT
ATOM      1  C   UNL     1       3.495   4.684  17.957  0.00  0.00    +0.000 A 
ATOM      2  N   UNL     1       3.273   5.977  17.643  0.00  0.00    +0.000 NA
ATOM      3  C   UNL     1       2.633   6.727  18.582  0.00  0.00    +0.000 A 
ATOM      4  C   UNL     1       2.210   6.245  19.822  0.00  0.00    +0.000 A 
ATOM      5  C   UNL     1       2.484   4.925  20.162  0.00  0.00    +0.000 A 
ATOM      6  N   UNL     1       2.150   4.443  21.383  0.00  0.00    +0.000 NA
ATOM      7  C   UNL     1       2.493   3.181  21.714  0.00  0.00    +0.000 A 
ATOM      8  C   UNL     1       3.152   2.326  20.861  0.00  0.00    +0.000 A 
ATOM      9  C   UNL     1       3.468   2.800  19.595  0.00  0.00    +0.000 A 
ATOM     10  C   UNL     1       3.141   4.124  19.212  0.00  0.00    +0.000 A 
ENDROOT
BRANCH   3  11
ATOM     11  C   UNL     1       2.404   8.170  18.246  0.00  0.00    +0.000 C 
ATOM     12  O   UNL     1       3.027   8.688  17.321  0.00  0.00    +0.000 OA
ATOM     13  N   UNL     1       1.477   8.850  19.002  0.00  0.00    +0.000 N 
ATOM     14  H   UNL     1       1.040   8.353  19.772  0.00  0.00    +0.000 HD
BRANCH  13  15
ATOM     15  C   UNL     1       1.218  10.257  18.797  0.00  0.00    +0.000 C 
BRANCH  15  16
ATOM     16  C   UNL     1      -0.235  10.547  18.508  0.00  0.00    +0.000 A 
ATOM     17  C   UNL     1      -0.917   9.821  17.519  0.00  0.00    +0.000 A 
ATOM     18  C   UNL     1      -2.279  10.034  17.296  0.00  0.00    +0.000 A 
ATOM     19  C   UNL     1      -2.960  10.976  18.058  0.00  0.00    +0.000 A 
ATOM     20  F   UNL     1      -4.268  11.174  17.844  0.00  0.00    +0.000 F 
ATOM     21  C   UNL     1      -2.305  11.702  19.043  0.00  0.00    +0.000 A 
ATOM     22  C   UNL     1      -0.946  11.487  19.272  0.00  0.00    +0.000 A 
ENDBRANCH  15  16
ENDBRANCH  13  15
ENDBRANCH   3  11
BRANCH   1  23
ATOM     23  N   UNL     1       4.132   3.859  17.042  0.00  0.00    +0.000 N 
ATOM     24  H   UNL     1       3.902   2.877  17.131  0.00  0.00    +0.000 HD
BRANCH  23  25
ATOM     25  C   UNL     1       4.573   4.306  15.742  0.00  0.00    +0.000 C 
BRANCH  25  26
ATOM     26  C   UNL     1       6.054   3.919  15.588  0.00  0.00    +0.000 C 
BRANCH  26  27
ATOM     27  C   UNL     1       7.014   4.983  16.138  0.00  0.00    +0.000 C 
BRANCH  27  28
ATOM     28  C   UNL     1       7.488   4.654  17.556  0.00  0.00    +0.000 C 
BRANCH  28  29
ATOM     29  C   UNL     1       7.086   5.757  18.540  0.00  0.00    +0.000 C 
BRANCH  29  30
ATOM     30  C   UNL     1       8.132   6.868  18.592  0.00  0.00    +0.000 C 
BRANCH  30  33
ATOM     31  O   UNL     1       8.927   9.606  18.899  0.00  0.00    +0.000 OA
ATOM     32  C   UNL     1       8.217   9.255  17.969  0.00  0.00    +0.000 C 
ATOM     33  N   UNL     1       7.776   7.979  17.733  0.00  0.00    +0.000 N 
ATOM     34  H   UNL     1       7.227   7.801  16.902  0.00  0.00    +0.000 HD
ENDBRANCH  30  33
ENDBRANCH  29  30
ENDBRANCH  28  29
ENDBRANCH  27  28
ENDBRANCH  26  27
ENDBRANCH  25  26
ENDBRANCH  23  25
ENDBRANCH   1  23
BRANCH   4  35
ATOM     35  O   UNL     1       1.554   7.030  20.746  0.00  0.00    +0.000 OA
ATOM     36  H   UNL     1       0.658   6.663  20.906  0.00  0.00    +0.000 HD
ENDBRANCH   4  35
TORSDOF 12
ENDMDL
MODEL 4
REMARK VINA RESULT:      -6.9      4.647      7.393
REMARK  Name = 
REMARK  12 active torsions:
REMARK  status: ('A' for Active; 'I' for Inactive)
REMARK    1  A    between atoms: N_3  and  C_4
REMARK    2  A    between atoms: C_4  and  C_5
REMARK    3  A    between atoms: C_5  and  C_6
REMARK    4  A    between atoms: C_6  and  C_7
REMARK    5  A    between atoms: C_7  and  C_8
REMARK    6  A    between atoms: C_8  and  C_9
REMARK    7  A    between atoms: C_9  and  N_10
REMARK    8  A    between atoms: N_10  and  C_11
REMARK    9  A    between atoms: C_13  and  C_14
REMARK   10  A    between atoms: N_16  and  C_17
REMARK   11  A    between atoms: C_17  and  C_18
REMARK   12  A    between atoms: C_25  and  O_26
REMARK                            x       y       z     vdW  Elec       q    Type
REMARK                         _______ _______ _______ _____ _____    ______ ____
ROOT
ATOM      1  C   UNL     1       3.620   6.510  18.254  0.00  0.00    +0.000 A 
ATOM      2  N   UNL     1       4.701   7.155  17.770  0.00  0.00    +0.000 NA
ATOM      3  C   UNL     1       5.895   6.515  17.898  0.00  0.00    +0.000 A 
ATOM      4  C   UNL     1       6.058   5.258  18.484  0.00  0.00    +0.000 A 
ATOM      5  C   UNL     1       4.937   4.576  18.939  0.00  0.00    +0.000 A 
ATOM      6  N   UNL     1       5.048   3.326  19.450  0.00  0.00    +0.000 NA
ATOM      7  C   UNL     1       3.935   2.658  19.816  0.00  0.00    +0.000 A 
ATOM      8  C   UNL     1       2.669   3.187  19.725  0.00  0.00    +0.000 A 
ATOM      9  C   UNL     1       2.547   4.479  19.235  0.00  0.00    +0.000 A 
ATOM     10  C   UNL     1       3.688   5.211  18.823  0.00  0.00    +0.000 A 
ENDROOT
BRANCH   3  11
ATOM     11  C   UNL     1       7.096   7.218  17.340  0.00  0.00    +0.000 C 
ATOM     12  O   UNL     1       7.752   6.691  16.443  0.00  0.00    +0.000 OA
ATOM     13  N   UNL     1       7.400   8.453  17.867  0.00  0.00    +0.000 N 
ATOM     14  H   UNL     1       6.827   8.792  18.633  0.00  0.00    +0.000 HD
BRANCH  13  15
ATOM     15  C   UNL     1       8.566   9.193  17.440  0.00  0.00    +0.000 C 
BRANCH  15  16
ATOM     16  C   UNL     1       8.878  10.362  18.341  0.00  0.00    +0.000 A 
ATOM     17  C   UNL     1       9.281  10.144  19.668  0.00  0.00    +0.000 A 
ATOM     18  C   UNL     1       9.640  11.218  20.486  0.00  0.00    +0.000 A 
ATOM     19  C   UNL     1       9.592  12.511  19.980  0.00  0.00    +0.000 A 
ATOM     20  F   UNL     1       9.942  13.538  20.767  0.00  0.00    +0.000 F 
ATOM     21  C   UNL     1       9.199  12.748  18.670  0.00  0.00    +0.000 A 
ATOM     22  C   UNL     1       8.846  11.678  17.849  0.00  0.00    +0.000 A 
ENDBRANCH  15  16
ENDBRANCH  13  15
ENDBRANCH   3  11
BRANCH   1  23
ATOM     23  N   UNL     1       2.372   7.109  18.168  0.00  0.00    +0.000 N 
ATOM     24  H   UNL     1       1.624   6.484  17.889  0.00  0.00    +0.000 HD
BRANCH  23  25
ATOM     25  C   UNL     1       1.992   8.270  18.937  0.00  0.00    +0.000 C 
BRANCH  25  26
ATOM     26  C   UNL     1       1.308   9.264  17.983  0.00  0.00    +0.000 C 
BRANCH  26  27
ATOM     27  C   UNL     1       1.295  10.702  18.522  0.00  0.00    +0.000 C 
BRANCH  27  28
ATOM     28  C   UNL     1      -0.125  11.265  18.627  0.00  0.00    +0.000 C 
BRANCH  28  29
ATOM     29  C   UNL     1      -1.144  10.145  18.861  0.00  0.00    +0.000 C 
BRANCH  29  30
ATOM     30  C   UNL     1      -2.343  10.275  17.924  0.00  0.00    +0.000 C 
BRANCH  30  33
ATOM     31  O   UNL     1      -3.615  10.032  15.366  0.00  0.00    +0.000 OA
ATOM     32  C   UNL     1      -2.680  10.799  15.537  0.00  0.00    +0.000 C 
ATOM     33  N   UNL     1      -1.999  10.988  16.711  0.00  0.00    +0.000 N 
ATOM     34  H   UNL     1      -1.268  11.686  16.742  0.00  0.00    +0.000 HD
ENDBRANCH  30  33
ENDBRANCH  29  30
ENDBRANCH  28  29
ENDBRANCH  27  28
ENDBRANCH  26  27
ENDBRANCH  25  26
ENDBRANCH  23  25
ENDBRANCH   1  23
BRANCH   4  35
ATOM     35  O   UNL     1       7.286   4.644  18.607  0.00  0.00    +0.000 OA
ATOM     36  H   UNL     1       7.988   5.257  18.296  0.00  0.00    +0.000 HD
ENDBRANCH   4  35
TORSDOF 12
ENDMDL
MODEL 5
REMARK VINA RESULT:      -6.8      4.148      6.898
REMARK  Name = 
REMARK  12 active torsions:
REMARK  status: ('A' for Active; 'I' for Inactive)
REMARK    1  A    between atoms: N_3  and  C_4
REMARK    2  A    between atoms: C_4  and  C_5
REMARK    3  A    between atoms: C_5  and  C_6
REMARK    4  A    between atoms: C_6  and  C_7
REMARK    5  A    between atoms: C_7  and  C_8
REMARK    6  A    between atoms: C_8  and  C_9
REMARK    7  A    between atoms: C_9  and  N_10
REMARK    8  A    between atoms: N_10  and  C_11
REMARK    9  A    between atoms: C_13  and  C_14
REMARK   10  A    between atoms: N_16  and  C_17
REMARK   11  A    between atoms: C_17  and  C_18
REMARK   12  A    between atoms: C_25  and  O_26
REMARK                            x       y       z     vdW  Elec       q    Type
REMARK                         _______ _______ _______ _____ _____    ______ ____
ROOT
ATOM      1  C   UNL     1       3.336   6.696  18.034  0.00  0.00    +0.000 A 
ATOM      2  N   UNL     1       4.514   7.238  17.663  0.00  0.00    +0.000 NA
ATOM      3  C   UNL     1       5.589   6.403  17.655  0.00  0.00    +0.000 A 
ATOM      4  C   UNL     1       5.539   5.050  17.996  0.00  0.00    +0.000 A 
ATOM      5  C   UNL     1       4.316   4.484  18.332  0.00  0.00    +0.000 A 
ATOM      6  N   UNL     1       4.217   3.160  18.600  0.00  0.00    +0.000 NA
ATOM      7  C   UNL     1       3.006   2.622  18.850  0.00  0.00    +0.000 A 
ATOM      8  C   UNL     1       1.842   3.354  18.875  0.00  0.00    +0.000 A 
ATOM      9  C   UNL     1       1.937   4.718  18.635  0.00  0.00    +0.000 A 
ATOM     10  C   UNL     1       3.187   5.321  18.351  0.00  0.00    +0.000 A 
ENDROOT
BRANCH   3  11
ATOM     11  C   UNL     1       6.896   6.996  17.222  0.00  0.00    +0.000 C 
ATOM     12  O   UNL     1       7.583   6.416  16.382  0.00  0.00    +0.000 OA
ATOM     13  N   UNL     1       7.260   8.194  17.794  0.00  0.00    +0.000 N 
ATOM     14  H   UNL     1       6.651   8.580  18.508  0.00  0.00    +0.000 HD
BRANCH  13  15
ATOM     15  C   UNL     1       8.524   8.826  17.488  0.00  0.00    +0.000 C 
BRANCH  15  16
ATOM     16  C   UNL     1       8.766  10.072  18.304  0.00  0.00    +0.000 A 
ATOM     17  C   UNL     1       9.206   9.971  19.633  0.00  0.00    +0.000 A 
ATOM     18  C   UNL     1       9.501  11.120  20.371  0.00  0.00    +0.000 A 
ATOM     19  C   UNL     1       9.352  12.371  19.784  0.00  0.00    +0.000 A 
ATOM     20  F   UNL     1       9.639  13.470  20.494  0.00  0.00    +0.000 F 
ATOM     21  C   UNL     1       8.921  12.492  18.470  0.00  0.00    +0.000 A 
ATOM     22  C   UNL     1       8.631  11.346  17.728  0.00  0.00    +0.000 A 
ENDBRANCH  15  16
ENDBRANCH  13  15
ENDBRANCH   3  11
BRANCH   1  23
ATOM     23  N   UNL     1       2.201   7.492  18.076  0.00  0.00    +0.000 N 
ATOM     24  H   UNL     1       1.463   7.140  18.673  0.00  0.00    +0.000 HD
BRANCH  23  25
ATOM     25  C   UNL     1       2.221   8.917  17.841  0.00  0.00    +0.000 C 
BRANCH  25  26
ATOM     26  C   UNL     1       0.771   9.426  17.914  0.00  0.00    +0.000 C 
BRANCH  26  27
ATOM     27  C   UNL     1       0.642  10.766  18.653  0.00  0.00    +0.000 C 
BRANCH  27  28
ATOM     28  C   UNL     1      -0.726  10.925  19.322  0.00  0.00    +0.000 C 
BRANCH  28  29
ATOM     29  C   UNL     1      -0.582  11.476  20.744  0.00  0.00    +0.000 C 
BRANCH  29  30
ATOM     30  C   UNL     1       0.313  10.584  21.602  0.00  0.00    +0.000 C 
BRANCH  30  33
ATOM     31  O   UNL     1       1.550   8.057  21.049  0.00  0.00    +0.000 OA
ATOM     32  C   UNL     1       0.418   8.121  21.502  0.00  0.00    +0.000 C 
ATOM     33  N   UNL     1      -0.267   9.272  21.795  0.00  0.00    +0.000 N 
ATOM     34  H   UNL     1      -1.187   9.197  22.209  0.00  0.00    +0.000 HD
ENDBRANCH  30  33
ENDBRANCH  29  30
ENDBRANCH  28  29
ENDBRANCH  27  28
ENDBRANCH  26  27
ENDBRANCH  25  26
ENDBRANCH  23  25
ENDBRANCH   1  23
BRANCH   4  35
ATOM     35  O   UNL     1       6.651   4.235  17.988  0.00  0.00    +0.000 OA
ATOM     36  H   UNL     1       7.329   4.619  17.389  0.00  0.00    +0.000 HD
ENDBRANCH   4  35
TORSDOF 12
ENDMDL
MODEL 6
REMARK VINA RESULT:      -6.6      3.746      6.169
REMARK  Name = 
REMARK  12 active torsions:
REMARK  status: ('A' for Active; 'I' for Inactive)
REMARK    1  A    between atoms: N_3  and  C_4
REMARK    2  A    between atoms: C_4  and  C_5
REMARK    3  A    between atoms: C_5  and  C_6
REMARK    4  A    between atoms: C_6  and  C_7
REMARK    5  A    between atoms: C_7  and  C_8
REMARK    6  A    between atoms: C_8  and  C_9
REMARK    7  A    between atoms: C_9  and  N_10
REMARK    8  A    between atoms: N_10  and  C_11
REMARK    9  A    between atoms: C_13  and  C_14
REMARK   10  A    between atoms: N_16  and  C_17
REMARK   11  A    between atoms: C_17  and  C_18
REMARK   12  A    between atoms: C_25  and  O_26
REMARK                            x       y       z     vdW  Elec       q    Type
REMARK                         _______ _______ _______ _____ _____    ______ ____
ROOT
ATOM      1  C   UNL     1       3.732   6.095  17.725  0.00  0.00    +0.000 A 
ATOM      2  N   UNL     1       3.166   7.264  18.090  0.00  0.00    +0.000 NA
ATOM      3  C   UNL     1       2.321   7.220  19.157  0.00  0.00    +0.000 A 
ATOM      4  C   UNL     1       2.020   6.063  19.878  0.00  0.00    +0.000 A 
ATOM      5  C   UNL     1       2.641   4.871  19.529  0.00  0.00    +0.000 A 
ATOM      6  N   UNL     1       2.427   3.743  20.249  0.00  0.00    +0.000 NA
ATOM      7  C   UNL     1       3.099   2.617  19.933  0.00  0.00    +0.000 A 
ATOM      8  C   UNL     1       3.989   2.533  18.889  0.00  0.00    +0.000 A 
ATOM      9  C   UNL     1       4.190   3.674  18.124  0.00  0.00    +0.000 A 
ATOM     10  C   UNL     1       3.518   4.882  18.430  0.00  0.00    +0.000 A 
ENDROOT
BRANCH   3  11
ATOM     11  C   UNL     1       1.708   8.521  19.580  0.00  0.00    +0.000 C 
ATOM     12  O   UNL     1       1.545   8.760  20.776  0.00  0.00    +0.000 OA
ATOM     13  N   UNL     1       1.362   9.404  18.583  0.00  0.00    +0.000 N 
ATOM     14  H   UNL     1       1.495   9.106  17.622  0.00  0.00    +0.000 HD
BRANCH  13  15
ATOM     15  C   UNL     1       0.715  10.664  18.877  0.00  0.00    +0.000 C 
BRANCH  15  16
ATOM     16  C   UNL     1      -0.739  10.681  18.474  0.00  0.00    +0.000 A 
ATOM     17  C   UNL     1      -1.628  11.586  19.075  0.00  0.00    +0.000 A 
ATOM     18  C   UNL     1      -2.959  11.656  18.656  0.00  0.00    +0.000 A 
ATOM     19  C   UNL     1      -3.404  10.819  17.640  0.00  0.00    +0.000 A 
ATOM     20  F   UNL     1      -4.680  10.893  17.239  0.00  0.00    +0.000 F 
ATOM     21  C   UNL     1      -2.540   9.919  17.031  0.00  0.00    +0.000 A 
ATOM     22  C   UNL     1      -1.209   9.851  17.443  0.00  0.00    +0.000 A 
ENDBRANCH  15  16
ENDBRANCH  13  15
ENDBRANCH   3  11
BRANCH   1  23
ATOM     23  N   UNL     1       4.594   6.064  16.639  0.00  0.00    +0.000 N 
ATOM     24  H   UNL     1       4.141   5.900  15.748  0.00  0.00    +0.000 HD
BRANCH  23  25
ATOM     25  C   UNL     1       5.855   6.766  16.605  0.00  0.00    +0.000 C 
BRANCH  25  26
ATOM     26  C   UNL     1       6.480   6.681  18.009  0.00  0.00    +0.000 C 
BRANCH  26  27
ATOM     27  C   UNL     1       7.907   7.245  18.066  0.00  0.00    +0.000 C 
BRANCH  27  28
ATOM     28  C   UNL     1       7.959   8.722  17.667  0.00  0.00    +0.000 C 
BRANCH  28  29
ATOM     29  C   UNL     1       8.846   9.520  18.628  0.00  0.00    +0.000 C 
BRANCH  29  30
ATOM     30  C   UNL     1       8.857  11.006  18.275  0.00  0.00    +0.000 C 
BRANCH  30  33
ATOM     31  O   UNL     1      11.639  11.590  17.903  0.00  0.00    +0.000 OA
ATOM     32  C   UNL     1      11.037  11.987  18.888  0.00  0.00    +0.000 C 
ATOM     33  N   UNL     1       9.714  11.760  19.167  0.00  0.00    +0.000 N 
ATOM     34  H   UNL     1       9.314  12.180  19.996  0.00  0.00    +0.000 HD
ENDBRANCH  30  33
ENDBRANCH  29  30
ENDBRANCH  28  29
ENDBRANCH  27  28
ENDBRANCH  26  27
ENDBRANCH  25  26
ENDBRANCH  23  25
ENDBRANCH   1  23
BRANCH   4  35
ATOM     35  O   UNL     1       1.150   6.054  20.948  0.00  0.00    +0.000 OA
ATOM     36  H   UNL     1       1.543   5.529  21.679  0.00  0.00    +0.000 HD
ENDBRANCH   4  35
TORSDOF 12
ENDMDL
MODEL 7
REMARK VINA RESULT:      -6.6      4.529      7.392
REMARK  Name = 
REMARK  12 active torsions:
REMARK  status: ('A' for Active; 'I' for Inactive)
REMARK    1  A    between atoms: N_3  and  C_4
REMARK    2  A    between atoms: C_4  and  C_5
REMARK    3  A    between atoms: C_5  and  C_6
REMARK    4  A    between atoms: C_6  and  C_7
REMARK    5  A    between atoms: C_7  and  C_8
REMARK    6  A    between atoms: C_8  and  C_9
REMARK    7  A    between atoms: C_9  and  N_10
REMARK    8  A    between atoms: N_10  and  C_11
REMARK    9  A    between atoms: C_13  and  C_14
REMARK   10  A    between atoms: N_16  and  C_17
REMARK   11  A    between atoms: C_17  and  C_18
REMARK   12  A    between atoms: C_25  and  O_26
REMARK                            x       y       z     vdW  Elec       q    Type
REMARK                         _______ _______ _______ _____ _____    ______ ____
ROOT
ATOM      1  C   UNL     1       3.324   6.649  18.156  0.00  0.00    +0.000 A 
ATOM      2  N   UNL     1       4.480   7.201  17.733  0.00  0.00    +0.000 NA
ATOM      3  C   UNL     1       5.567   6.383  17.706  0.00  0.00    +0.000 A 
ATOM      4  C   UNL     1       5.552   5.038  18.080  0.00  0.00    +0.000 A 
ATOM      5  C   UNL     1       4.350   4.461  18.470  0.00  0.00    +0.000 A 
ATOM      6  N   UNL     1       4.284   3.141  18.772  0.00  0.00    +0.000 NA
ATOM      7  C   UNL     1       3.090   2.590  19.076  0.00  0.00    +0.000 A 
ATOM      8  C   UNL     1       1.916   3.304  19.124  0.00  0.00    +0.000 A 
ATOM      9  C   UNL     1       1.980   4.663  18.850  0.00  0.00    +0.000 A 
ATOM     10  C   UNL     1       3.209   5.279  18.510  0.00  0.00    +0.000 A 
ENDROOT
BRANCH   3  11
ATOM     11  C   UNL     1       6.849   6.987  17.215  0.00  0.00    +0.000 C 
ATOM     12  O   UNL     1       7.498   6.416  16.339  0.00  0.00    +0.000 OA
ATOM     13  N   UNL     1       7.234   8.183  17.777  0.00  0.00    +0.000 N 
ATOM     14  H   UNL     1       6.658   8.561  18.522  0.00  0.00    +0.000 HD
BRANCH  13  15
ATOM     15  C   UNL     1       8.478   8.825  17.414  0.00  0.00    +0.000 C 
BRANCH  15  16
ATOM     16  C   UNL     1       8.802  10.008  18.293  0.00  0.00    +0.000 A 
ATOM     17  C   UNL     1       8.724  11.312  17.780  0.00  0.00    +0.000 A 
ATOM     18  C   UNL     1       8.953  12.414  18.607  0.00  0.00    +0.000 A 
ATOM     19  C   UNL     1       9.263  12.215  19.946  0.00  0.00    +0.000 A 
ATOM     20  F   UNL     1       9.477  13.275  20.737  0.00  0.00    +0.000 F 
ATOM     21  C   UNL     1       9.341  10.933  20.474  0.00  0.00    +0.000 A 
ATOM     22  C   UNL     1       9.108   9.830  19.653  0.00  0.00    +0.000 A 
ENDBRANCH  15  16
ENDBRANCH  13  15
ENDBRANCH   3  11
BRANCH   1  23
ATOM     23  N   UNL     1       2.179   7.428  18.219  0.00  0.00    +0.000 N 
ATOM     24  H   UNL     1       1.560   7.203  18.989  0.00  0.00    +0.000 HD
BRANCH  23  25
ATOM     25  C   UNL     1       2.102   8.772  17.698  0.00  0.00    +0.000 C 
BRANCH  25  26
ATOM     26  C   UNL     1       1.624   9.692  18.834  0.00  0.00    +0.000 C 
BRANCH  26  27
ATOM     27  C   UNL     1       0.486  10.631  18.409  0.00  0.00    +0.000 C 
BRANCH  27  28
ATOM     28  C   UNL     1      -0.893  10.029  18.692  0.00  0.00    +0.000 C 
BRANCH  28  29
ATOM     29  C   UNL     1      -1.996  11.079  18.526  0.00  0.00    +0.000 C 
BRANCH  29  30
ATOM     30  C   UNL     1      -3.168  10.535  17.711  0.00  0.00    +0.000 C 
BRANCH  30  33
ATOM     31  O   UNL     1      -3.344  11.153  14.917  0.00  0.00    +0.000 OA
ATOM     32  C   UNL     1      -2.844  10.108  15.303  0.00  0.00    +0.000 C 
ATOM     33  N   UNL     1      -2.716   9.712  16.608  0.00  0.00    +0.000 N 
ATOM     34  H   UNL     1      -2.242   8.840  16.807  0.00  0.00    +0.000 HD
ENDBRANCH  30  33
ENDBRANCH  29  30
ENDBRANCH  28  29
ENDBRANCH  27  28
ENDBRANCH  26  27
ENDBRANCH  25  26
ENDBRANCH  23  25
ENDBRANCH   1  23
BRANCH   4  35
ATOM     35  O   UNL     1       6.677   4.241  18.051  0.00  0.00    +0.000 OA
ATOM     36  H   UNL     1       6.429   3.323  18.299  0.00  0.00    +0.000 HD
ENDBRANCH   4  35
TORSDOF 12
ENDMDL
MODEL 8
REMARK VINA RESULT:      -6.6      3.720      8.458
REMARK  Name = 
REMARK  12 active torsions:
REMARK  status: ('A' for Active; 'I' for Inactive)
REMARK    1  A    between atoms: N_3  and  C_4
REMARK    2  A    between atoms: C_4  and  C_5
REMARK    3  A    between atoms: C_5  and  C_6
REMARK    4  A    between atoms: C_6  and  C_7
REMARK    5  A    between atoms: C_7  and  C_8
REMARK    6  A    between atoms: C_8  and  C_9
REMARK    7  A    between atoms: C_9  and  N_10
REMARK    8  A    between atoms: N_10  and  C_11
REMARK    9  A    between atoms: C_13  and  C_14
REMARK   10  A    between atoms: N_16  and  C_17
REMARK   11  A    between atoms: C_17  and  C_18
REMARK   12  A    between atoms: C_25  and  O_26
REMARK                            x       y       z     vdW  Elec       q    Type
REMARK                         _______ _______ _______ _____ _____    ______ ____
ROOT
ATOM      1  C   UNL     1       2.748   6.351  19.538  0.00  0.00    +0.000 A 
ATOM      2  N   UNL     1       3.574   6.668  18.520  0.00  0.00    +0.000 NA
ATOM      3  C   UNL     1       4.162   5.625  17.870  0.00  0.00    +0.000 A 
ATOM      4  C   UNL     1       3.958   4.281  18.189  0.00  0.00    +0.000 A 
ATOM      5  C   UNL     1       3.070   3.957  19.207  0.00  0.00    +0.000 A 
ATOM      6  N   UNL     1       2.795   2.663  19.498  0.00  0.00    +0.000 NA
ATOM      7  C   UNL     1       1.873   2.377  20.440  0.00  0.00    +0.000 A 
ATOM      8  C   UNL     1       1.200   3.337  21.159  0.00  0.00    +0.000 A 
ATOM      9  C   UNL     1       1.500   4.665  20.892  0.00  0.00    +0.000 A 
ATOM     10  C   UNL     1       2.449   5.011  19.899  0.00  0.00    +0.000 A 
ENDROOT
BRANCH   3  11
ATOM     11  C   UNL     1       5.063   5.972  16.724  0.00  0.00    +0.000 C 
ATOM     12  O   UNL     1       4.759   6.890  15.963  0.00  0.00    +0.000 OA
ATOM     13  N   UNL     1       6.217   5.234  16.587  0.00  0.00    +0.000 N 
ATOM     14  H   UNL     1       6.366   4.470  17.237  0.00  0.00    +0.000 HD
BRANCH  13  15
ATOM     15  C   UNL     1       7.129   5.451  15.487  0.00  0.00    +0.000 C 
BRANCH  15  16
ATOM     16  C   UNL     1       6.715   4.718  14.234  0.00  0.00    +0.000 A 
ATOM     17  C   UNL     1       7.538   4.742  13.097  0.00  0.00    +0.000 A 
ATOM     18  C   UNL     1       7.196   4.008  11.958  0.00  0.00    +0.000 A 
ATOM     19  C   UNL     1       6.030   3.253  11.954  0.00  0.00    +0.000 A 
ATOM     20  F   UNL     1       5.707   2.546  10.862  0.00  0.00    +0.000 F 
ATOM     21  C   UNL     1       5.204   3.213  13.069  0.00  0.00    +0.000 A 
ATOM     22  C   UNL     1       5.546   3.940  14.209  0.00  0.00    +0.000 A 
ENDBRANCH  15  16
ENDBRANCH  13  15
ENDBRANCH   3  11
BRANCH   1  23
ATOM     23  N   UNL     1       2.125   7.363  20.251  0.00  0.00    +0.000 N 
ATOM     24  H   UNL     1       2.506   7.522  21.176  0.00  0.00    +0.000 HD
BRANCH  23  25
ATOM     25  C   UNL     1       1.455   8.480  19.626  0.00  0.00    +0.000 C 
BRANCH  25  26
ATOM     26  C   UNL     1       1.035   9.459  20.736  0.00  0.00    +0.000 C 
BRANCH  26  27
ATOM     27  C   UNL     1      -0.114   8.927  21.604  0.00  0.00    +0.000 C 
BRANCH  27  28
ATOM     28  C   UNL     1      -0.077   9.500  23.023  0.00  0.00    +0.000 C 
BRANCH  28  29
ATOM     29  C   UNL     1      -1.208  10.510  23.237  0.00  0.00    +0.000 C 
BRANCH  29  30
ATOM     30  C   UNL     1      -0.892  11.852  22.581  0.00  0.00    +0.000 C 
BRANCH  30  33
ATOM     31  O   UNL     1      -0.019  12.801  20.020  0.00  0.00    +0.000 OA
ATOM     32  C   UNL     1      -1.193  12.534  20.228  0.00  0.00    +0.000 C 
ATOM     33  N   UNL     1      -1.716  12.082  21.412  0.00  0.00    +0.000 N 
ATOM     34  H   UNL     1      -2.701  11.852  21.451  0.00  0.00    +0.000 HD
ENDBRANCH  30  33
ENDBRANCH  29  30
ENDBRANCH  28  29
ENDBRANCH  27  28
ENDBRANCH  26  27
ENDBRANCH  25  26
ENDBRANCH  23  25
ENDBRANCH   1  23
BRANCH   4  35
ATOM     35  O   UNL     1       4.579   3.251  17.516  0.00  0.00    +0.000 OA
ATOM     36  H   UNL     1       4.219   2.394  17.833  0.00  0.00    +0.000 HD
ENDBRANCH   4  35
TORSDOF 12
ENDMDL
MODEL 9
REMARK VINA RESULT:      -6.6      4.240      9.197
REMARK  Name = 
REMARK  12 active torsions:
REMARK  status: ('A' for Active; 'I' for Inactive)
REMARK    1  A    between atoms: N_3  and  C_4
REMARK    2  A    between atoms: C_4  and  C_5
REMARK    3  A    between atoms: C_5  and  C_6
REMARK    4  A    between atoms: C_6  and  C_7
REMARK    5  A    between atoms: C_7  and  C_8
REMARK    6  A    between atoms: C_8  and  C_9
REMARK    7  A    between atoms: C_9  and  N_10
REMARK    8  A    between atoms: N_10  and  C_11
REMARK    9  A    between atoms: C_13  and  C_14
REMARK   10  A    between atoms: N_16  and  C_17
REMARK   11  A    between atoms: C_17  and  C_18
REMARK   12  A    between atoms: C_25  and  O_26
REMARK                            x       y       z     vdW  Elec       q    Type
REMARK                         _______ _______ _______ _____ _____    ______ ____
ROOT
ATOM      1  C   UNL     1       0.325  11.300  19.532  0.00  0.00    +0.000 A 
ATOM      2  N   UNL     1       1.019  10.484  18.713  0.00  0.00    +0.000 NA
ATOM      3  C   UNL     1       1.406   9.288  19.235  0.00  0.00    +0.000 A 
ATOM      4  C   UNL     1       1.126   8.868  20.537  0.00  0.00    +0.000 A 
ATOM      5  C   UNL     1       0.371   9.692  21.363  0.00  0.00    +0.000 A 
ATOM      6  N   UNL     1       0.021   9.288  22.609  0.00  0.00    +0.000 NA
ATOM      7  C   UNL     1      -0.775  10.075  23.361  0.00  0.00    +0.000 A 
ATOM      8  C   UNL     1      -1.243  11.299  22.945  0.00  0.00    +0.000 A 
ATOM      9  C   UNL     1      -0.863  11.736  21.684  0.00  0.00    +0.000 A 
ATOM     10  C   UNL     1      -0.042  10.935  20.854  0.00  0.00    +0.000 A 
ENDROOT
BRANCH   3  11
ATOM     11  C   UNL     1       2.158   8.368  18.321  0.00  0.00    +0.000 C 
ATOM     12  O   UNL     1       2.350   8.693  17.150  0.00  0.00    +0.000 OA
ATOM     13  N   UNL     1       2.613   7.185  18.857  0.00  0.00    +0.000 N 
ATOM     14  H   UNL     1       2.373   6.982  19.821  0.00  0.00    +0.000 HD
BRANCH  13  15
ATOM     15  C   UNL     1       3.303   6.204  18.050  0.00  0.00    +0.000 C 
BRANCH  15  16
ATOM     16  C   UNL     1       2.782   4.804  18.263  0.00  0.00    +0.000 A 
ATOM     17  C   UNL     1       3.364   3.722  17.582  0.00  0.00    +0.000 A 
ATOM     18  C   UNL     1       2.934   2.416  17.829  0.00  0.00    +0.000 A 
ATOM     19  C   UNL     1       1.920   2.190  18.751  0.00  0.00    +0.000 A 
ATOM     20  F   UNL     1       1.513   0.935  18.988  0.00  0.00    +0.000 F 
ATOM     21  C   UNL     1       1.333   3.245  19.436  0.00  0.00    +0.000 A 
ATOM     22  C   UNL     1       1.764   4.550  19.197  0.00  0.00    +0.000 A 
ENDBRANCH  15  16
ENDBRANCH  13  15
ENDBRANCH   3  11
BRANCH   1  23
ATOM     23  N   UNL     1      -0.090  12.540  19.069  0.00  0.00    +0.000 N 
ATOM     24  H   UNL     1       0.555  13.297  19.261  0.00  0.00    +0.000 HD
BRANCH  23  25
ATOM     25  C   UNL     1      -0.974  12.711  17.941  0.00  0.00    +0.000 C 
BRANCH  25  26
ATOM     26  C   UNL     1      -2.232  11.862  18.194  0.00  0.00    +0.000 C 
BRANCH  26  27
ATOM     27  C   UNL     1      -2.668  11.052  16.964  0.00  0.00    +0.000 C 
BRANCH  27  28
ATOM     28  C   UNL     1      -4.187  11.063  16.777  0.00  0.00    +0.000 C 
BRANCH  28  29
ATOM     29  C   UNL     1      -4.887  11.674  17.996  0.00  0.00    +0.000 C 
BRANCH  29  30
ATOM     30  C   UNL     1      -6.203  10.963  18.300  0.00  0.00    +0.000 C 
BRANCH  30  33
ATOM     31  O   UNL     1      -7.335  10.029  20.763  0.00  0.00    +0.000 OA
ATOM     32  C   UNL     1      -7.508  11.177  20.384  0.00  0.00    +0.000 C 
ATOM     33  N   UNL     1      -7.019  11.722  19.225  0.00  0.00    +0.000 N 
ATOM     34  H   UNL     1      -7.192  12.701  19.039  0.00  0.00    +0.000 HD
ENDBRANCH  30  33
ENDBRANCH  29  30
ENDBRANCH  28  29
ENDBRANCH  27  28
ENDBRANCH  26  27
ENDBRANCH  25  26
ENDBRANCH  23  25
ENDBRANCH   1  23
BRANCH   4  35
ATOM     35  O   UNL     1       1.544   7.653  21.038  0.00  0.00    +0.000 OA
ATOM     36  H   UNL     1       1.503   7.676  22.019  0.00  0.00    +0.000 HD
ENDBRANCH   4  35
TORSDOF 12
ENDMDL
