MODEL 1
REMARK VINA RESULT:      -7.1      0.000      0.000
REMARK  Name = 
REMARK  5 active torsions:
REMARK  status: ('A' for Active; 'I' for Inactive)
REMARK    1  A    between atoms: C_1  and  C_2
REMARK    2  A    between atoms: C_4  and  O_5
REMARK    3  A    between atoms: C_6  and  C_7
REMARK    4  A    between atoms: C_9  and  N_10
REMARK    5  A    between atoms: N_10  and  C_11
REMARK                            x       y       z     vdW  Elec       q    Type
REMARK                         _______ _______ _______ _____ _____    ______ ____
ROOT
ATOM      1  C   UNL     1       0.702   2.308  18.626  0.00  0.00    +0.000 C 
ATOM      2  C   UNL     1       2.035   2.960  18.822  0.00  0.00    +0.000 A 
ATOM      3  N   UNL     1       3.039   2.240  19.336  0.00  0.00    +0.000 NA
ATOM      4  C   UNL     1       4.193   2.900  19.478  0.00  0.00    +0.000 A 
ATOM      5  C   UNL     1       4.417   4.213  19.130  0.00  0.00    +0.000 A 
ATOM      6  C   UNL     1       3.333   4.874  18.575  0.00  0.00    +0.000 A 
ATOM      7  N   UNL     1       2.143   4.245  18.451  0.00  0.00    +0.000 NA
ENDROOT
BRANCH   4   8
ATOM      8  O   UNL     1       5.171   2.126  20.019  0.00  0.00    +0.000 OA
ATOM      9  H   UNL     1       5.701   2.796  20.491  0.00  0.00    +0.000 HD
ENDBRANCH   4   8
BRANCH   5  10
ATOM     10  C   UNL     1       5.681   4.834  19.328  0.00  0.00    +0.000 C 
ATOM     11  N   UNL     1       6.680   5.395  19.515  0.00  0.00    +0.000 NA
ENDBRANCH   5  10
BRANCH   6  12
ATOM     12  N   UNL     1       3.409   6.252  18.248  0.00  0.00    +0.000 N 
ATOM     13  H   UNL     1       3.591   6.407  17.257  0.00  0.00    +0.000 HD
BRANCH  12  14
ATOM     14  C   UNL     1       2.586   7.296  18.736  0.00  0.00    +0.000 A 
ATOM     15  C   UNL     1       2.187   8.304  17.846  0.00  0.00    +0.000 A 
ATOM     16  C   UNL     1       1.389   9.368  18.280  0.00  0.00    +0.000 A 
ATOM     17  C   UNL     1       0.966   9.421  19.605  0.00  0.00    +0.000 A 
ATOM     18 CL   UNL     1       0.003  10.738  20.150  0.00  0.00    +0.000 Cl
ATOM     19  C   UNL     1       1.314   8.408  20.492  0.00  0.00    +0.000 A 
ATOM     20  C   UNL     1       2.111   7.348  20.052  0.00  0.00    +0.000 A 
ENDBRANCH  12  14
ENDBRANCH   6  12
TORSDOF 4
ENDMDL
MODEL 2
REMARK VINA RESULT:      -7.0      4.082      5.881
REMARK  Name = 
REMARK  5 active torsions:
REMARK  status: ('A' for Active; 'I' for Inactive)
REMARK    1  A    between atoms: C_1  and  C_2
REMARK    2  A    between atoms: C_4  and  O_5
REMARK    3  A    between atoms: C_6  and  C_7
REMARK    4  A    between atoms: C_9  and  N_10
REMARK    5  A    between atoms: N_10  and  C_11
REMARK                            x       y       z     vdW  Elec       q    Type
REMARK                         _______ _______ _______ _____ _____    ______ ____
ROOT
ATOM      1  C   UNL     1       7.511   6.336  18.361  0.00  0.00    +0.000 C 
ATOM      2  C   UNL     1       6.993   5.707  17.106  0.00  0.00    +0.000 A 
ATOM      3  N   UNL     1       7.666   5.892  15.964  0.00  0.00    +0.000 NA
ATOM      4  C   UNL     1       7.134   5.296  14.891  0.00  0.00    +0.000 A 
ATOM      5  C   UNL     1       5.995   4.522  14.884  0.00  0.00    +0.000 A 
ATOM      6  C   UNL     1       5.381   4.356  16.114  0.00  0.00    +0.000 A 
ATOM      7  N   UNL     1       5.874   4.973  17.211  0.00  0.00    +0.000 NA
ENDROOT
BRANCH   4   8
ATOM      8  O   UNL     1       7.847   5.531  13.759  0.00  0.00    +0.000 OA
ATOM      9  H   UNL     1       7.332   6.258  13.360  0.00  0.00    +0.000 HD
ENDBRANCH   4   8
BRANCH   5  10
ATOM     10  C   UNL     1       5.499   3.934  13.687  0.00  0.00    +0.000 C 
ATOM     11  N   UNL     1       5.071   3.516  12.692  0.00  0.00    +0.000 NA
ENDBRANCH   5  10
BRANCH   6  12
ATOM     12  N   UNL     1       4.158   3.646  16.229  0.00  0.00    +0.000 N 
ATOM     13  H   UNL     1       4.139   2.808  15.651  0.00  0.00    +0.000 HD
BRANCH  12  14
ATOM     14  C   UNL     1       3.410   3.412  17.409  0.00  0.00    +0.000 A 
ATOM     15  C   UNL     1       2.452   4.361  17.792  0.00  0.00    +0.000 A 
ATOM     16  C   UNL     1       1.699   4.188  18.958  0.00  0.00    +0.000 A 
ATOM     17  C   UNL     1       1.884   3.051  19.740  0.00  0.00    +0.000 A 
ATOM     18 CL   UNL     1       0.977   2.843  21.186  0.00  0.00    +0.000 Cl
ATOM     19  C   UNL     1       2.799   2.078  19.354  0.00  0.00    +0.000 A 
ATOM     20  C   UNL     1       3.547   2.256  18.187  0.00  0.00    +0.000 A 
ENDBRANCH  12  14
ENDBRANCH   6  12
TORSDOF 4
ENDMDL
MODEL 3
REMARK VINA RESULT:      -6.9      0.184      1.150
REMARK  Name = 
REMARK  5 active torsions:
REMARK  status: ('A' for Active; 'I' for Inactive)
REMARK    1  A    between atoms: C_1  and  C_2
REMARK    2  A    between atoms: C_4  and  O_5
REMARK    3  A    between atoms: C_6  and  C_7
REMARK    4  A    between atoms: C_9  and  N_10
REMARK    5  A    between atoms: N_10  and  C_11
REMARK                            x       y       z     vdW  Elec       q    Type
REMARK                         _______ _______ _______ _____ _____    ______ ____
ROOT
ATOM      1  C   UNL     1       0.609   2.524  18.934  0.00  0.00    +0.000 C 
ATOM      2  C   UNL     1       1.976   3.127  19.026  0.00  0.00    +0.000 A 
ATOM      3  N   UNL     1       2.984   2.378  19.490  0.00  0.00    +0.000 NA
ATOM      4  C   UNL     1       4.170   2.994  19.539  0.00  0.00    +0.000 A 
ATOM      5  C   UNL     1       4.420   4.290  19.146  0.00  0.00    +0.000 A 
ATOM      6  C   UNL     1       3.328   4.982  18.647  0.00  0.00    +0.000 A 
ATOM      7  N   UNL     1       2.109   4.398  18.617  0.00  0.00    +0.000 NA
ENDROOT
BRANCH   4   8
ATOM      8  O   UNL     1       5.151   2.195  20.033  0.00  0.00    +0.000 OA
ATOM      9  H   UNL     1       5.929   2.779  19.952  0.00  0.00    +0.000 HD
ENDBRANCH   4   8
BRANCH   5  10
ATOM     10  C   UNL     1       5.718   4.864  19.244  0.00  0.00    +0.000 C 
ATOM     11  N   UNL     1       6.766   5.363  19.263  0.00  0.00    +0.000 NA
ENDBRANCH   5  10
BRANCH   6  12
ATOM     12  N   UNL     1       3.435   6.348  18.282  0.00  0.00    +0.000 N 
ATOM     13  H   UNL     1       3.696   6.469  17.305  0.00  0.00    +0.000 HD
BRANCH  12  14
ATOM     14  C   UNL     1       2.578   7.408  18.667  0.00  0.00    +0.000 A 
ATOM     15  C   UNL     1       2.153   7.471  20.002  0.00  0.00    +0.000 A 
ATOM     16  C   UNL     1       1.291   8.486  20.432  0.00  0.00    +0.000 A 
ATOM     17  C   UNL     1       0.865   9.460  19.532  0.00  0.00    +0.000 A 
ATOM     18 CL   UNL     1      -0.212  10.698  20.049  0.00  0.00    +0.000 Cl
ATOM     19  C   UNL     1       1.310   9.439  18.215  0.00  0.00    +0.000 A 
ATOM     20  C   UNL     1       2.171   8.423  17.792  0.00  0.00    +0.000 A 
ENDBRANCH  12  14
ENDBRANCH   6  12
TORSDOF 4
ENDMDL
MODEL 4
REMARK VINA RESULT:      -6.9      4.087      5.917
REMARK  Name = 
REMARK  5 active torsions:
REMARK  status: ('A' for Active; 'I' for Inactive)
REMARK    1  A    between atoms: C_1  and  C_2
REMARK    2  A    between atoms: C_4  and  O_5
REMARK    3  A    between atoms: C_6  and  C_7
REMARK    4  A    between atoms: C_9  and  N_10
REMARK    5  A    between atoms: N_10  and  C_11
REMARK                            x       y       z     vdW  Elec       q    Type
REMARK                         _______ _______ _______ _____ _____    ______ ____
ROOT
ATOM      1  C   UNL     1       7.554   6.416  18.317  0.00  0.00    +0.000 C 
ATOM      2  C   UNL     1       7.017   5.769  17.079  0.00  0.00    +0.000 A 
ATOM      3  N   UNL     1       7.684   5.919  15.929  0.00  0.00    +0.000 NA
ATOM      4  C   UNL     1       7.134   5.309  14.873  0.00  0.00    +0.000 A 
ATOM      5  C   UNL     1       5.984   4.554  14.890  0.00  0.00    +0.000 A 
ATOM      6  C   UNL     1       5.376   4.424  16.128  0.00  0.00    +0.000 A 
ATOM      7  N   UNL     1       5.887   5.056  17.207  0.00  0.00    +0.000 NA
ENDROOT
BRANCH   4   8
ATOM      8  O   UNL     1       7.843   5.509  13.730  0.00  0.00    +0.000 OA
ATOM      9  H   UNL     1       8.726   5.191  13.999  0.00  0.00    +0.000 HD
ENDBRANCH   4   8
BRANCH   5  10
ATOM     10  C   UNL     1       5.469   3.949  13.710  0.00  0.00    +0.000 C 
ATOM     11  N   UNL     1       5.097   3.488  12.711  0.00  0.00    +0.000 NA
ENDBRANCH   5  10
BRANCH   6  12
ATOM     12  N   UNL     1       4.142   3.737  16.266  0.00  0.00    +0.000 N 
ATOM     13  H   UNL     1       4.112   2.879  15.718  0.00  0.00    +0.000 HD
BRANCH  12  14
ATOM     14  C   UNL     1       3.390   3.556  17.452  0.00  0.00    +0.000 A 
ATOM     15  C   UNL     1       3.721   2.486  18.296  0.00  0.00    +0.000 A 
ATOM     16  C   UNL     1       2.998   2.250  19.470  0.00  0.00    +0.000 A 
ATOM     17  C   UNL     1       1.951   3.098  19.821  0.00  0.00    +0.000 A 
ATOM     18 CL   UNL     1       1.044   2.801  21.252  0.00  0.00    +0.000 Cl
ATOM     19  C   UNL     1       1.636   4.190  19.020  0.00  0.00    +0.000 A 
ATOM     20  C   UNL     1       2.361   4.420  17.849  0.00  0.00    +0.000 A 
ENDBRANCH  12  14
ENDBRANCH   6  12
TORSDOF 4
ENDMDL
MODEL 5
REMARK VINA RESULT:      -6.8      1.693      3.477
REMARK  Name = 
REMARK  5 active torsions:
REMARK  status: ('A' for Active; 'I' for Inactive)
REMARK    1  A    between atoms: C_1  and  C_2
REMARK    2  A    between atoms: C_4  and  O_5
REMARK    3  A    between atoms: C_6  and  C_7
REMARK    4  A    between atoms: C_9  and  N_10
REMARK    5  A    between atoms: N_10  and  C_11
REMARK                            x       y       z     vdW  Elec       q    Type
REMARK                         _______ _______ _______ _____ _____    ______ ____
ROOT
ATOM      1  C   UNL     1       7.824   5.816  19.315  0.00  0.00    +0.000 C 
ATOM      2  C   UNL     1       6.487   5.327  18.854  0.00  0.00    +0.000 A 
ATOM      3  N   UNL     1       6.431   4.463  17.833  0.00  0.00    +0.000 NA
ATOM      4  C   UNL     1       5.198   4.078  17.486  0.00  0.00    +0.000 A 
ATOM      5  C   UNL     1       4.029   4.480  18.092  0.00  0.00    +0.000 A 
ATOM      6  C   UNL     1       4.182   5.349  19.160  0.00  0.00    +0.000 A 
ATOM      7  N   UNL     1       5.412   5.784  19.514  0.00  0.00    +0.000 NA
ENDROOT
BRANCH   4   8
ATOM      8  O   UNL     1       5.200   3.216  16.435  0.00  0.00    +0.000 OA
ATOM      9  H   UNL     1       4.249   3.187  16.214  0.00  0.00    +0.000 HD
ENDBRANCH   4   8
BRANCH   5  10
ATOM     10  C   UNL     1       2.759   4.022  17.645  0.00  0.00    +0.000 C 
ATOM     11  N   UNL     1       1.725   3.600  17.328  0.00  0.00    +0.000 NA
ENDBRANCH   5  10
BRANCH   6  12
ATOM     12  N   UNL     1       3.053   5.899  19.819  0.00  0.00    +0.000 N 
ATOM     13  H   UNL     1       3.097   5.779  20.830  0.00  0.00    +0.000 HD
BRANCH  12  14
ATOM     14  C   UNL     1       2.400   7.121  19.526  0.00  0.00    +0.000 A 
ATOM     15  C   UNL     1       1.699   7.767  20.554  0.00  0.00    +0.000 A 
ATOM     16  C   UNL     1       1.020   8.967  20.314  0.00  0.00    +0.000 A 
ATOM     17  C   UNL     1       1.056   9.541  19.046  0.00  0.00    +0.000 A 
ATOM     18 CL   UNL     1       0.206  11.005  18.739  0.00  0.00    +0.000 Cl
ATOM     19  C   UNL     1       1.782   8.938  18.025  0.00  0.00    +0.000 A 
ATOM     20  C   UNL     1       2.458   7.740  18.271  0.00  0.00    +0.000 A 
ENDBRANCH  12  14
ENDBRANCH   6  12
TORSDOF 4
ENDMDL
MODEL 6
REMARK VINA RESULT:      -6.7      3.820      5.410
REMARK  Name = 
REMARK  5 active torsions:
REMARK  status: ('A' for Active; 'I' for Inactive)
REMARK    1  A    between atoms: C_1  and  C_2
REMARK    2  A    between atoms: C_4  and  O_5
REMARK    3  A    between atoms: C_6  and  C_7
REMARK    4  A    between atoms: C_9  and  N_10
REMARK    5  A    between atoms: N_10  and  C_11
REMARK                            x       y       z     vdW  Elec       q    Type
REMARK                         _______ _______ _______ _____ _____    ______ ____
ROOT
ATOM      1  C   UNL     1       6.786   4.317  12.734  0.00  0.00    +0.000 C 
ATOM      2  C   UNL     1       6.685   4.515  14.214  0.00  0.00    +0.000 A 
ATOM      3  N   UNL     1       7.313   5.557  14.772  0.00  0.00    +0.000 NA
ATOM      4  C   UNL     1       7.170   5.659  16.099  0.00  0.00    +0.000 A 
ATOM      5  C   UNL     1       6.437   4.809  16.896  0.00  0.00    +0.000 A 
ATOM      6  C   UNL     1       5.793   3.777  16.232  0.00  0.00    +0.000 A 
ATOM      7  N   UNL     1       5.946   3.627  14.898  0.00  0.00    +0.000 NA
ENDROOT
BRANCH   4   8
ATOM      8  O   UNL     1       7.841   6.722  16.613  0.00  0.00    +0.000 OA
ATOM      9  H   UNL     1       8.119   6.368  17.480  0.00  0.00    +0.000 HD
ENDBRANCH   4   8
BRANCH   5  10
ATOM     10  C   UNL     1       6.351   4.993  18.304  0.00  0.00    +0.000 C 
ATOM     11  N   UNL     1       6.233   5.191  19.442  0.00  0.00    +0.000 NA
ENDBRANCH   5  10
BRANCH   6  12
ATOM     12  N   UNL     1       5.071   2.788  16.948  0.00  0.00    +0.000 N 
ATOM     13  H   UNL     1       5.681   2.084  17.359  0.00  0.00    +0.000 HD
BRANCH  12  14
ATOM     14  C   UNL     1       3.955   2.988  17.797  0.00  0.00    +0.000 A 
ATOM     15  C   UNL     1       2.919   3.822  17.353  0.00  0.00    +0.000 A 
ATOM     16  C   UNL     1       1.803   4.068  18.160  0.00  0.00    +0.000 A 
ATOM     17  C   UNL     1       1.704   3.464  19.410  0.00  0.00    +0.000 A 
ATOM     18 CL   UNL     1       0.345   3.779  20.415  0.00  0.00    +0.000 Cl
ATOM     19  C   UNL     1       2.701   2.599  19.849  0.00  0.00    +0.000 A 
ATOM     20  C   UNL     1       3.813   2.357  19.039  0.00  0.00    +0.000 A 
ENDBRANCH  12  14
ENDBRANCH   6  12
TORSDOF 4
ENDMDL
MODEL 7
REMARK VINA RESULT:      -6.7      1.270      3.248
REMARK  Name = 
REMARK  5 active torsions:
REMARK  status: ('A' for Active; 'I' for Inactive)
REMARK    1  A    between atoms: C_1  and  C_2
REMARK    2  A    between atoms: C_4  and  O_5
REMARK    3  A    between atoms: C_6  and  C_7
REMARK    4  A    between atoms: C_9  and  N_10
REMARK    5  A    between atoms: N_10  and  C_11
REMARK                            x       y       z     vdW  Elec       q    Type
REMARK                         _______ _______ _______ _____ _____    ______ ____
ROOT
ATOM      1  C   UNL     1       7.676   5.748  19.046  0.00  0.00    +0.000 C 
ATOM      2  C   UNL     1       6.280   5.289  18.766  0.00  0.00    +0.000 A 
ATOM      3  N   UNL     1       5.974   3.999  18.949  0.00  0.00    +0.000 NA
ATOM      4  C   UNL     1       4.705   3.675  18.675  0.00  0.00    +0.000 A 
ATOM      5  C   UNL     1       3.726   4.545  18.250  0.00  0.00    +0.000 A 
ATOM      6  C   UNL     1       4.121   5.867  18.120  0.00  0.00    +0.000 A 
ATOM      7  N   UNL     1       5.404   6.220  18.355  0.00  0.00    +0.000 NA
ENDROOT
BRANCH   4   8
ATOM      8  O   UNL     1       4.455   2.352  18.861  0.00  0.00    +0.000 OA
ATOM      9  H   UNL     1       3.761   2.387  19.547  0.00  0.00    +0.000 HD
ENDBRANCH   4   8
BRANCH   5  10
ATOM     10  C   UNL     1       2.402   4.105  17.975  0.00  0.00    +0.000 C 
ATOM     11  N   UNL     1       1.338   3.745  17.683  0.00  0.00    +0.000 NA
ENDBRANCH   5  10
BRANCH   6  12
ATOM     12  N   UNL     1       3.230   6.848  17.615  0.00  0.00    +0.000 N 
ATOM     13  H   UNL     1       2.701   6.515  16.810  0.00  0.00    +0.000 HD
BRANCH  12  14
ATOM     14  C   UNL     1       2.421   7.738  18.364  0.00  0.00    +0.000 A 
ATOM     15  C   UNL     1       2.209   7.464  19.723  0.00  0.00    +0.000 A 
ATOM     16  C   UNL     1       1.403   8.300  20.504  0.00  0.00    +0.000 A 
ATOM     17  C   UNL     1       0.821   9.430  19.936  0.00  0.00    +0.000 A 
ATOM     18 CL   UNL     1      -0.187  10.449  20.886  0.00  0.00    +0.000 Cl
ATOM     19  C   UNL     1       1.055   9.742  18.602  0.00  0.00    +0.000 A 
ATOM     20  C   UNL     1       1.861   8.904  17.827  0.00  0.00    +0.000 A 
ENDBRANCH  12  14
ENDBRANCH   6  12
TORSDOF 4
ENDMDL
MODEL 8
REMARK VINA RESULT:      -6.7      3.917      5.534
REMARK  Name = 
REMARK  5 active torsions:
REMARK  status: ('A' for Active; 'I' for Inactive)
REMARK    1  A    between atoms: C_1  and  C_2
REMARK    2  A    between atoms: C_4  and  O_5
REMARK    3  A    between atoms: C_6  and  C_7
REMARK    4  A    between atoms: C_9  and  N_10
REMARK    5  A    between atoms: N_10  and  C_11
REMARK                            x       y       z     vdW  Elec       q    Type
REMARK                         _______ _______ _______ _____ _____    ______ ____
ROOT
ATOM      1  C   UNL     1       6.728   4.288  12.768  0.00  0.00    +0.000 C 
ATOM      2  C   UNL     1       6.648   4.511  14.245  0.00  0.00    +0.000 A 
ATOM      3  N   UNL     1       7.275   5.569  14.775  0.00  0.00    +0.000 NA
ATOM      4  C   UNL     1       7.151   5.692  16.102  0.00  0.00    +0.000 A 
ATOM      5  C   UNL     1       6.438   4.850  16.925  0.00  0.00    +0.000 A 
ATOM      6  C   UNL     1       5.793   3.802  16.289  0.00  0.00    +0.000 A 
ATOM      7  N   UNL     1       5.927   3.629  14.955  0.00  0.00    +0.000 NA
ENDROOT
BRANCH   4   8
ATOM      8  O   UNL     1       7.820   6.770  16.587  0.00  0.00    +0.000 OA
ATOM      9  H   UNL     1       7.335   6.935  17.418  0.00  0.00    +0.000 HD
ENDBRANCH   4   8
BRANCH   5  10
ATOM     10  C   UNL     1       6.371   5.058  18.330  0.00  0.00    +0.000 C 
ATOM     11  N   UNL     1       6.282   5.169  19.482  0.00  0.00    +0.000 NA
ENDBRANCH   5  10
BRANCH   6  12
ATOM     12  N   UNL     1       5.091   2.819  17.032  0.00  0.00    +0.000 N 
ATOM     13  H   UNL     1       5.716   2.177  17.516  0.00  0.00    +0.000 HD
BRANCH  12  14
ATOM     14  C   UNL     1       3.925   3.007  17.815  0.00  0.00    +0.000 A 
ATOM     15  C   UNL     1       3.897   2.469  19.110  0.00  0.00    +0.000 A 
ATOM     16  C   UNL     1       2.764   2.609  19.919  0.00  0.00    +0.000 A 
ATOM     17  C   UNL     1       1.657   3.308  19.446  0.00  0.00    +0.000 A 
ATOM     18 CL   UNL     1       0.253   3.465  20.426  0.00  0.00    +0.000 Cl
ATOM     19  C   UNL     1       1.683   3.887  18.181  0.00  0.00    +0.000 A 
ATOM     20  C   UNL     1       2.817   3.744  17.378  0.00  0.00    +0.000 A 
ENDBRANCH  12  14
ENDBRANCH   6  12
TORSDOF 4
ENDMDL
MODEL 9
REMARK VINA RESULT:      -6.7      1.311      3.033
REMARK  Name = 
REMARK  5 active torsions:
REMARK  status: ('A' for Active; 'I' for Inactive)
REMARK    1  A    between atoms: C_1  and  C_2
REMARK    2  A    between atoms: C_4  and  O_5
REMARK    3  A    between atoms: C_6  and  C_7
REMARK    4  A    between atoms: C_9  and  N_10
REMARK    5  A    between atoms: N_10  and  C_11
REMARK                            x       y       z     vdW  Elec       q    Type
REMARK                         _______ _______ _______ _____ _____    ______ ____
ROOT
ATOM      1  C   UNL     1       7.574   5.678  19.419  0.00  0.00    +0.000 C 
ATOM      2  C   UNL     1       6.206   5.251  18.989  0.00  0.00    +0.000 A 
ATOM      3  N   UNL     1       5.884   3.953  19.048  0.00  0.00    +0.000 NA
ATOM      4  C   UNL     1       4.643   3.660  18.645  0.00  0.00    +0.000 A 
ATOM      5  C   UNL     1       3.704   4.566  18.207  0.00  0.00    +0.000 A 
ATOM      6  C   UNL     1       4.109   5.891  18.210  0.00  0.00    +0.000 A 
ATOM      7  N   UNL     1       5.368   6.216  18.578  0.00  0.00    +0.000 NA
ENDROOT
BRANCH   4   8
ATOM      8  O   UNL     1       4.377   2.329  18.709  0.00  0.00    +0.000 OA
ATOM      9  H   UNL     1       4.028   2.163  17.812  0.00  0.00    +0.000 HD
ENDBRANCH   4   8
BRANCH   5  10
ATOM     10  C   UNL     1       2.407   4.157  17.789  0.00  0.00    +0.000 C 
ATOM     11  N   UNL     1       1.330   3.825  17.513  0.00  0.00    +0.000 NA
ENDBRANCH   5  10
BRANCH   6  12
ATOM     12  N   UNL     1       3.264   6.914  17.708  0.00  0.00    +0.000 N 
ATOM     13  H   UNL     1       2.772   6.631  16.862  0.00  0.00    +0.000 HD
BRANCH  12  14
ATOM     14  C   UNL     1       2.435   7.785  18.457  0.00  0.00    +0.000 A 
ATOM     15  C   UNL     1       1.883   8.900  17.810  0.00  0.00    +0.000 A 
ATOM     16  C   UNL     1       1.073   9.803  18.507  0.00  0.00    +0.000 A 
ATOM     17  C   UNL     1       0.791   9.585  19.853  0.00  0.00    +0.000 A 
ATOM     18 CL   UNL     1      -0.186  10.703  20.721  0.00  0.00    +0.000 Cl
ATOM     19  C   UNL     1       1.294   8.462  20.500  0.00  0.00    +0.000 A 
ATOM     20  C   UNL     1       2.102   7.563  19.799  0.00  0.00    +0.000 A 
ENDBRANCH  12  14
ENDBRANCH   6  12
TORSDOF 4
ENDMDL
