MODEL 1
REMARK VINA RESULT:      -8.0      0.000      0.000
REMARK  Name = 
REMARK  7 active torsions:
REMARK  status: ('A' for Active; 'I' for Inactive)
REMARK    1  A    between atoms: C_1  and  C_2
REMARK    2  A    between atoms: C_2  and  C_3
REMARK    3  A    between atoms: C_2  and  C_4
REMARK    4  A    between atoms: C_4  and  C_5
REMARK    5  A    between atoms: C_8  and  C_9
REMARK    6  A    between atoms: C_9  and  N_10
REMARK    7  A    between atoms: N_10  and  C_11
REMARK                            x       y       z     vdW  Elec       q    Type
REMARK                         _______ _______ _______ _____ _____    ______ ____
ROOT
ATOM      1  N   UNL     1       7.327   4.478  18.094  0.00  0.00    +0.000 N 
ATOM      2  H   UNL     1       7.811   3.581  18.009  0.00  0.00    +0.000 HD
ENDROOT
BRANCH   1   3
ATOM      3  C   UNL     1       5.936   4.361  18.098  0.00  0.00    +0.000 A 
ATOM      4  C   UNL     1       5.171   4.671  19.230  0.00  0.00    +0.000 A 
ATOM      5  C   UNL     1       3.778   4.590  19.200  0.00  0.00    +0.000 A 
ATOM      6  C   UNL     1       3.111   4.273  18.018  0.00  0.00    +0.000 A 
ATOM      7  C   UNL     1       3.840   4.033  16.860  0.00  0.00    +0.000 A 
ATOM      8  C   UNL     1       5.237   4.063  16.906  0.00  0.00    +0.000 A 
ATOM      9 CL   UNL     1       6.100   3.710  15.444  0.00  0.00    +0.000 Cl
ATOM     10  O   UNL     1       1.748   4.273  17.919  0.00  0.00    +0.000 OA
ATOM     11  C   UNL     1       1.158   3.253  18.727  0.00  0.00    +0.000 C 
ATOM     12  C   UNL     1       1.030   3.663  20.188  0.00  0.00    +0.000 C 
ATOM     13  C   UNL     1       2.389   3.787  20.858  0.00  0.00    +0.000 C 
ATOM     14  O   UNL     1       3.121   4.908  20.358  0.00  0.00    +0.000 OA
ENDBRANCH   1   3
BRANCH   1  15
ATOM     15  C   UNL     1       8.033   5.449  18.929  0.00  0.00    +0.000 C 
BRANCH  15  19
ATOM     16  C   UNL     1       8.142   8.878  17.990  0.00  0.00    +0.000 A 
ATOM     17  N   UNL     1       7.478   8.402  16.928  0.00  0.00    +0.000 NA
ATOM     18  O   UNL     1       7.360   7.040  17.212  0.00  0.00    +0.000 OA
ATOM     19  C   UNL     1       7.964   6.845  18.421  0.00  0.00    +0.000 A 
ATOM     20  N   UNL     1       8.431   7.952  18.957  0.00  0.00    +0.000 NA
BRANCH  16  21
ATOM     21  C   UNL     1       8.616  10.282  18.082  0.00  0.00    +0.000 C 
BRANCH  21  23
ATOM     22  C   UNL     1      10.925  11.299  18.445  0.00  0.00    +0.000 C 
ATOM     23  C   UNL     1       9.809  10.440  19.046  0.00  0.00    +0.000 C 
ATOM     24  C   UNL     1       9.342  11.044  20.370  0.00  0.00    +0.000 C 
ENDBRANCH  21  23
ENDBRANCH  16  21
ENDBRANCH  15  19
ENDBRANCH   1  15
TORSDOF 5
ENDMDL
MODEL 2
REMARK VINA RESULT:      -7.9      3.416      5.463
REMARK  Name = 
REMARK  7 active torsions:
REMARK  status: ('A' for Active; 'I' for Inactive)
REMARK    1  A    between atoms: C_1  and  C_2
REMARK    2  A    between atoms: C_2  and  C_3
REMARK    3  A    between atoms: C_2  and  C_4
REMARK    4  A    between atoms: C_4  and  C_5
REMARK    5  A    between atoms: C_8  and  C_9
REMARK    6  A    between atoms: C_9  and  N_10
REMARK    7  A    between atoms: N_10  and  C_11
REMARK                            x       y       z     vdW  Elec       q    Type
REMARK                         _______ _______ _______ _____ _____    ______ ____
ROOT
ATOM      1  N   UNL     1       6.745   5.600  18.208  0.00  0.00    +0.000 N 
ATOM      2  H   UNL     1       6.929   6.604  18.151  0.00  0.00    +0.000 HD
ENDROOT
BRANCH   1   3
ATOM      3  C   UNL     1       5.398   5.292  18.400  0.00  0.00    +0.000 A 
ATOM      4  C   UNL     1       4.982   4.361  19.360  0.00  0.00    +0.000 A 
ATOM      5  C   UNL     1       3.626   4.098  19.567  0.00  0.00    +0.000 A 
ATOM      6  C   UNL     1       2.652   4.814  18.876  0.00  0.00    +0.000 A 
ATOM      7  C   UNL     1       3.032   5.797  17.969  0.00  0.00    +0.000 A 
ATOM      8  C   UNL     1       4.391   6.020  17.726  0.00  0.00    +0.000 A 
ATOM      9 CL   UNL     1       4.812   7.224  16.552  0.00  0.00    +0.000 Cl
ATOM     10  O   UNL     1       1.315   4.657  19.113  0.00  0.00    +0.000 OA
ATOM     11  C   UNL     1       0.862   3.353  18.746  0.00  0.00    +0.000 C 
ATOM     12  C   UNL     1       1.152   2.308  19.815  0.00  0.00    +0.000 C 
ATOM     13  C   UNL     1       2.644   2.048  19.956  0.00  0.00    +0.000 C 
ATOM     14  O   UNL     1       3.322   3.169  20.525  0.00  0.00    +0.000 OA
ENDBRANCH   1   3
BRANCH   1  15
ATOM     15  C   UNL     1       7.619   4.794  17.356  0.00  0.00    +0.000 C 
BRANCH  15  19
ATOM     16  C   UNL     1       6.050   4.071  14.247  0.00  0.00    +0.000 A 
ATOM     17  N   UNL     1       6.925   4.990  13.819  0.00  0.00    +0.000 NA
ATOM     18  O   UNL     1       7.622   5.330  14.980  0.00  0.00    +0.000 OA
ATOM     19  C   UNL     1       7.090   4.573  15.984  0.00  0.00    +0.000 A 
ATOM     20  N   UNL     1       6.142   3.756  15.578  0.00  0.00    +0.000 NA
BRANCH  16  21
ATOM     21  C   UNL     1       4.992   3.497  13.378  0.00  0.00    +0.000 C 
BRANCH  21  23
ATOM     22  C   UNL     1       6.320   2.182  11.646  0.00  0.00    +0.000 C 
ATOM     23  C   UNL     1       5.429   3.400  11.903  0.00  0.00    +0.000 C 
ATOM     24  C   UNL     1       4.203   3.349  10.991  0.00  0.00    +0.000 C 
ENDBRANCH  21  23
ENDBRANCH  16  21
ENDBRANCH  15  19
ENDBRANCH   1  15
TORSDOF 5
ENDMDL
MODEL 3
REMARK VINA RESULT:      -7.9      3.654      5.711
REMARK  Name = 
REMARK  7 active torsions:
REMARK  status: ('A' for Active; 'I' for Inactive)
REMARK    1  A    between atoms: C_1  and  C_2
REMARK    2  A    between atoms: C_2  and  C_3
REMARK    3  A    between atoms: C_2  and  C_4
REMARK    4  A    between atoms: C_4  and  C_5
REMARK    5  A    between atoms: C_8  and  C_9
REMARK    6  A    between atoms: C_9  and  N_10
REMARK    7  A    between atoms: N_10  and  C_11
REMARK                            x       y       z     vdW  Elec       q    Type
REMARK                         _______ _______ _______ _____ _____    ______ ____
ROOT
ATOM      1  N   UNL     1       5.216   6.640  17.352  0.00  0.00    +0.000 N 
ATOM      2  H   UNL     1       5.232   7.544  17.830  0.00  0.00    +0.000 HD
ENDROOT
BRANCH   1   3
ATOM      3  C   UNL     1       4.727   5.601  18.145  0.00  0.00    +0.000 A 
ATOM      4  C   UNL     1       3.355   5.348  18.268  0.00  0.00    +0.000 A 
ATOM      5  C   UNL     1       2.887   4.277  19.031  0.00  0.00    +0.000 A 
ATOM      6  C   UNL     1       3.779   3.385  19.623  0.00  0.00    +0.000 A 
ATOM      7  C   UNL     1       5.146   3.567  19.457  0.00  0.00    +0.000 A 
ATOM      8  C   UNL     1       5.612   4.671  18.737  0.00  0.00    +0.000 A 
ATOM      9 CL   UNL     1       7.328   4.877  18.598  0.00  0.00    +0.000 Cl
ATOM     10  O   UNL     1       3.366   2.271  20.299  0.00  0.00    +0.000 OA
ATOM     11  C   UNL     1       2.647   2.608  21.487  0.00  0.00    +0.000 C 
ATOM     12  C   UNL     1       1.190   2.953  21.212  0.00  0.00    +0.000 C 
ATOM     13  C   UNL     1       1.057   4.254  20.436  0.00  0.00    +0.000 C 
ATOM     14  O   UNL     1       1.529   4.117  19.094  0.00  0.00    +0.000 OA
ENDBRANCH   1   3
BRANCH   1  15
ATOM     15  C   UNL     1       4.927   6.736  15.921  0.00  0.00    +0.000 C 
BRANCH  15  19
ATOM     16  C   UNL     1       6.656   4.627  13.639  0.00  0.00    +0.000 A 
ATOM     17  N   UNL     1       7.701   5.011  14.385  0.00  0.00    +0.000 NA
ATOM     18  O   UNL     1       7.117   5.841  15.345  0.00  0.00    +0.000 OA
ATOM     19  C   UNL     1       5.779   5.862  15.073  0.00  0.00    +0.000 A 
ATOM     20  N   UNL     1       5.440   5.104  14.053  0.00  0.00    +0.000 NA
BRANCH  16  21
ATOM     21  C   UNL     1       6.802   3.822  12.400  0.00  0.00    +0.000 C 
BRANCH  21  23
ATOM     22  C   UNL     1       4.445   3.420  11.518  0.00  0.00    +0.000 C 
ATOM     23  C   UNL     1       5.659   2.804  12.219  0.00  0.00    +0.000 C 
ATOM     24  C   UNL     1       6.153   1.589  11.434  0.00  0.00    +0.000 C 
ENDBRANCH  21  23
ENDBRANCH  16  21
ENDBRANCH  15  19
ENDBRANCH   1  15
TORSDOF 5
ENDMDL
MODEL 4
REMARK VINA RESULT:      -7.6      3.791      5.995
REMARK  Name = 
REMARK  7 active torsions:
REMARK  status: ('A' for Active; 'I' for Inactive)
REMARK    1  A    between atoms: C_1  and  C_2
REMARK    2  A    between atoms: C_2  and  C_3
REMARK    3  A    between atoms: C_2  and  C_4
REMARK    4  A    between atoms: C_4  and  C_5
REMARK    5  A    between atoms: C_8  and  C_9
REMARK    6  A    between atoms: C_9  and  N_10
REMARK    7  A    between atoms: N_10  and  C_11
REMARK                            x       y       z     vdW  Elec       q    Type
REMARK                         _______ _______ _______ _____ _____    ______ ____
ROOT
ATOM      1  N   UNL     1       6.319   3.860  16.929  0.00  0.00    +0.000 N 
ATOM      2  H   UNL     1       7.026   3.166  17.182  0.00  0.00    +0.000 HD
ENDROOT
BRANCH   1   3
ATOM      3  C   UNL     1       5.286   3.967  17.861  0.00  0.00    +0.000 A 
ATOM      4  C   UNL     1       4.287   2.991  17.973  0.00  0.00    +0.000 A 
ATOM      5  C   UNL     1       3.286   3.094  18.941  0.00  0.00    +0.000 A 
ATOM      6  C   UNL     1       3.303   4.131  19.870  0.00  0.00    +0.000 A 
ATOM      7  C   UNL     1       4.323   5.074  19.831  0.00  0.00    +0.000 A 
ATOM      8  C   UNL     1       5.294   4.998  18.828  0.00  0.00    +0.000 A 
ATOM      9 CL   UNL     1       6.517   6.226  18.795  0.00  0.00    +0.000 Cl
ATOM     10  O   UNL     1       2.399   4.220  20.891  0.00  0.00    +0.000 OA
ATOM     11  C   UNL     1       1.073   4.445  20.407  0.00  0.00    +0.000 C 
ATOM     12  C   UNL     1       0.393   3.164  19.944  0.00  0.00    +0.000 C 
ATOM     13  C   UNL     1       1.047   2.600  18.693  0.00  0.00    +0.000 C 
ATOM     14  O   UNL     1       2.354   2.092  18.966  0.00  0.00    +0.000 OA
ENDBRANCH   1   3
BRANCH   1  15
ATOM     15  C   UNL     1       6.863   5.023  16.227  0.00  0.00    +0.000 C 
BRANCH  15  19
ATOM     16  C   UNL     1       7.097   4.244  12.764  0.00  0.00    +0.000 A 
ATOM     17  N   UNL     1       7.930   5.293  12.789  0.00  0.00    +0.000 NA
ATOM     18  O   UNL     1       7.928   5.668  14.134  0.00  0.00    +0.000 OA
ATOM     19  C   UNL     1       7.093   4.798  14.775  0.00  0.00    +0.000 A 
ATOM     20  N   UNL     1       6.583   3.881  13.982  0.00  0.00    +0.000 NA
BRANCH  16  21
ATOM     21  C   UNL     1       6.679   3.575  11.507  0.00  0.00    +0.000 C 
BRANCH  21  23
ATOM     22  C   UNL     1       4.204   3.034  11.233  0.00  0.00    +0.000 C 
ATOM     23  C   UNL     1       5.563   2.536  11.733  0.00  0.00    +0.000 C 
ATOM     24  C   UNL     1       5.920   1.219  11.046  0.00  0.00    +0.000 C 
ENDBRANCH  21  23
ENDBRANCH  16  21
ENDBRANCH  15  19
ENDBRANCH   1  15
TORSDOF 5
ENDMDL
MODEL 5
REMARK VINA RESULT:      -7.6      1.325      1.513
REMARK  Name = 
REMARK  7 active torsions:
REMARK  status: ('A' for Active; 'I' for Inactive)
REMARK    1  A    between atoms: C_1  and  C_2
REMARK    2  A    between atoms: C_2  and  C_3
REMARK    3  A    between atoms: C_2  and  C_4
REMARK    4  A    between atoms: C_4  and  C_5
REMARK    5  A    between atoms: C_8  and  C_9
REMARK    6  A    between atoms: C_9  and  N_10
REMARK    7  A    between atoms: N_10  and  C_11
REMARK                            x       y       z     vdW  Elec       q    Type
REMARK                         _______ _______ _______ _____ _____    ______ ____
ROOT
ATOM      1  N   UNL     1       5.458   6.317  16.698  0.00  0.00    +0.000 N 
ATOM      2  H   UNL     1       5.160   6.706  15.801  0.00  0.00    +0.000 HD
ENDROOT
BRANCH   1   3
ATOM      3  C   UNL     1       4.541   5.420  17.247  0.00  0.00    +0.000 A 
ATOM      4  C   UNL     1       3.652   5.798  18.261  0.00  0.00    +0.000 A 
ATOM      5  C   UNL     1       2.712   4.898  18.766  0.00  0.00    +0.000 A 
ATOM      6  C   UNL     1       2.585   3.624  18.217  0.00  0.00    +0.000 A 
ATOM      7  C   UNL     1       3.403   3.244  17.160  0.00  0.00    +0.000 A 
ATOM      8  C   UNL     1       4.379   4.130  16.692  0.00  0.00    +0.000 A 
ATOM      9 CL   UNL     1       5.405   3.591  15.403  0.00  0.00    +0.000 Cl
ATOM     10  O   UNL     1       1.619   2.743  18.616  0.00  0.00    +0.000 OA
ATOM     11  C   UNL     1       1.806   2.328  19.971  0.00  0.00    +0.000 C 
ATOM     12  C   UNL     1       1.268   3.340  20.974  0.00  0.00    +0.000 C 
ATOM     13  C   UNL     1       2.081   4.624  20.968  0.00  0.00    +0.000 C 
ATOM     14  O   UNL     1       1.891   5.362  19.759  0.00  0.00    +0.000 OA
ENDBRANCH   1   3
BRANCH   1  15
ATOM     15  C   UNL     1       6.904   6.121  16.804  0.00  0.00    +0.000 C 
BRANCH  15  19
ATOM     16  C   UNL     1       8.423   9.023  18.188  0.00  0.00    +0.000 A 
ATOM     17  N   UNL     1       8.730   8.155  19.161  0.00  0.00    +0.000 NA
ATOM     18  O   UNL     1       8.189   6.954  18.697  0.00  0.00    +0.000 OA
ATOM     19  C   UNL     1       7.616   7.232  17.489  0.00  0.00    +0.000 A 
ATOM     20  N   UNL     1       7.763   8.484  17.115  0.00  0.00    +0.000 NA
BRANCH  16  21
ATOM     21  C   UNL     1       8.688  10.480  18.294  0.00  0.00    +0.000 C 
BRANCH  21  23
ATOM     22  C   UNL     1      10.943  11.667  18.321  0.00  0.00    +0.000 C 
ATOM     23  C   UNL     1       9.963  10.791  19.104  0.00  0.00    +0.000 C 
ATOM     24  C   UNL     1       9.597  11.470  20.423  0.00  0.00    +0.000 C 
ENDBRANCH  21  23
ENDBRANCH  16  21
ENDBRANCH  15  19
ENDBRANCH   1  15
TORSDOF 5
ENDMDL
MODEL 6
REMARK VINA RESULT:      -7.5      1.202      1.514
REMARK  Name = 
REMARK  7 active torsions:
REMARK  status: ('A' for Active; 'I' for Inactive)
REMARK    1  A    between atoms: C_1  and  C_2
REMARK    2  A    between atoms: C_2  and  C_3
REMARK    3  A    between atoms: C_2  and  C_4
REMARK    4  A    between atoms: C_4  and  C_5
REMARK    5  A    between atoms: C_8  and  C_9
REMARK    6  A    between atoms: C_9  and  N_10
REMARK    7  A    between atoms: N_10  and  C_11
REMARK                            x       y       z     vdW  Elec       q    Type
REMARK                         _______ _______ _______ _____ _____    ______ ____
ROOT
ATOM      1  N   UNL     1       6.690   5.918  18.066  0.00  0.00    +0.000 N 
ATOM      2  H   UNL     1       7.176   6.018  18.960  0.00  0.00    +0.000 HD
ENDROOT
BRANCH   1   3
ATOM      3  C   UNL     1       5.473   5.243  18.167  0.00  0.00    +0.000 A 
ATOM      4  C   UNL     1       4.541   5.545  19.167  0.00  0.00    +0.000 A 
ATOM      5  C   UNL     1       3.310   4.888  19.225  0.00  0.00    +0.000 A 
ATOM      6  C   UNL     1       2.949   3.972  18.240  0.00  0.00    +0.000 A 
ATOM      7  C   UNL     1       3.823   3.706  17.193  0.00  0.00    +0.000 A 
ATOM      8  C   UNL     1       5.076   4.325  17.167  0.00  0.00    +0.000 A 
ATOM      9 CL   UNL     1       6.147   3.924  15.865  0.00  0.00    +0.000 Cl
ATOM     10  O   UNL     1       1.719   3.375  18.204  0.00  0.00    +0.000 OA
ATOM     11  C   UNL     1       1.517   2.511  19.324  0.00  0.00    +0.000 C 
ATOM     12  C   UNL     1       1.090   3.266  20.577  0.00  0.00    +0.000 C 
ATOM     13  C   UNL     1       2.208   4.146  21.111  0.00  0.00    +0.000 C 
ATOM     14  O   UNL     1       2.470   5.251  20.243  0.00  0.00    +0.000 OA
ENDBRANCH   1   3
BRANCH   1  15
ATOM     15  C   UNL     1       6.883   7.052  17.161  0.00  0.00    +0.000 C 
BRANCH  15  19
ATOM     16  C   UNL     1       8.733   9.883  18.263  0.00  0.00    +0.000 A 
ATOM     17  N   UNL     1       9.125   9.012  19.203  0.00  0.00    +0.000 NA
ATOM     18  O   UNL     1       8.461   7.837  18.842  0.00  0.00    +0.000 OA
ATOM     19  C   UNL     1       7.742   8.130  17.719  0.00  0.00    +0.000 A 
ATOM     20  N   UNL     1       7.903   9.367  17.303  0.00  0.00    +0.000 NA
BRANCH  16  21
ATOM     21  C   UNL     1       9.088  11.324  18.301  0.00  0.00    +0.000 C 
BRANCH  21  23
ATOM     22  C   UNL     1      10.686  12.899  17.091  0.00  0.00    +0.000 C 
ATOM     23  C   UNL     1      10.544  11.585  17.864  0.00  0.00    +0.000 C 
ATOM     24  C   UNL     1      11.466  11.595  19.082  0.00  0.00    +0.000 C 
ENDBRANCH  21  23
ENDBRANCH  16  21
ENDBRANCH  15  19
ENDBRANCH   1  15
TORSDOF 5
ENDMDL
MODEL 7
REMARK VINA RESULT:      -7.5      5.332      7.311
REMARK  Name = 
REMARK  7 active torsions:
REMARK  status: ('A' for Active; 'I' for Inactive)
REMARK    1  A    between atoms: C_1  and  C_2
REMARK    2  A    between atoms: C_2  and  C_3
REMARK    3  A    between atoms: C_2  and  C_4
REMARK    4  A    between atoms: C_4  and  C_5
REMARK    5  A    between atoms: C_8  and  C_9
REMARK    6  A    between atoms: C_9  and  N_10
REMARK    7  A    between atoms: N_10  and  C_11
REMARK                            x       y       z     vdW  Elec       q    Type
REMARK                         _______ _______ _______ _____ _____    ______ ____
ROOT
ATOM      1  N   UNL     1       2.329   6.841  20.438  0.00  0.00    +0.000 N 
ATOM      2  H   UNL     1       3.291   6.922  20.102  0.00  0.00    +0.000 HD
ENDROOT
BRANCH   1   3
ATOM      3  C   UNL     1       1.665   8.065  20.526  0.00  0.00    +0.000 A 
ATOM      4  C   UNL     1       1.277   8.609  21.756  0.00  0.00    +0.000 A 
ATOM      5  C   UNL     1       0.652   9.856  21.826  0.00  0.00    +0.000 A 
ATOM      6  C   UNL     1       0.472  10.624  20.678  0.00  0.00    +0.000 A 
ATOM      7  C   UNL     1       0.915  10.143  19.451  0.00  0.00    +0.000 A 
ATOM      8  C   UNL     1       1.492   8.872  19.377  0.00  0.00    +0.000 A 
ATOM      9 CL   UNL     1       1.984   8.299  17.817  0.00  0.00    +0.000 Cl
ATOM     10  O   UNL     1      -0.048  11.887  20.711  0.00  0.00    +0.000 OA
ATOM     11  C   UNL     1      -1.414  11.887  21.132  0.00  0.00    +0.000 C 
ATOM     12  C   UNL     1      -1.560  11.811  22.646  0.00  0.00    +0.000 C 
ATOM     13  C   UNL     1      -1.108  10.464  23.187  0.00  0.00    +0.000 C 
ATOM     14  O   UNL     1       0.307  10.299  23.075  0.00  0.00    +0.000 OA
ENDBRANCH   1   3
BRANCH   1  15
ATOM     15  C   UNL     1       1.657   5.615  20.006  0.00  0.00    +0.000 C 
BRANCH  15  19
ATOM     16  C   UNL     1       3.560   4.108  17.407  0.00  0.00    +0.000 A 
ATOM     17  N   UNL     1       2.363   3.586  17.105  0.00  0.00    +0.000 NA
ATOM     18  O   UNL     1       1.522   4.143  18.071  0.00  0.00    +0.000 OA
ATOM     19  C   UNL     1       2.307   4.945  18.849  0.00  0.00    +0.000 A 
ATOM     20  N   UNL     1       3.563   4.985  18.460  0.00  0.00    +0.000 NA
BRANCH  16  21
ATOM     21  C   UNL     1       4.812   3.703  16.720  0.00  0.00    +0.000 C 
BRANCH  21  23
ATOM     22  C   UNL     1       5.273   5.986  15.684  0.00  0.00    +0.000 C 
ATOM     23  C   UNL     1       5.054   4.494  15.418  0.00  0.00    +0.000 C 
ATOM     24  C   UNL     1       6.251   3.917  14.665  0.00  0.00    +0.000 C 
ENDBRANCH  21  23
ENDBRANCH  16  21
ENDBRANCH  15  19
ENDBRANCH   1  15
TORSDOF 5
ENDMDL
MODEL 8
REMARK VINA RESULT:      -7.4      3.726      5.820
REMARK  Name = 
REMARK  7 active torsions:
REMARK  status: ('A' for Active; 'I' for Inactive)
REMARK    1  A    between atoms: C_1  and  C_2
REMARK    2  A    between atoms: C_2  and  C_3
REMARK    3  A    between atoms: C_2  and  C_4
REMARK    4  A    between atoms: C_4  and  C_5
REMARK    5  A    between atoms: C_8  and  C_9
REMARK    6  A    between atoms: C_9  and  N_10
REMARK    7  A    between atoms: N_10  and  C_11
REMARK                            x       y       z     vdW  Elec       q    Type
REMARK                         _______ _______ _______ _____ _____    ______ ____
ROOT
ATOM      1  N   UNL     1       5.625   6.088  17.040  0.00  0.00    +0.000 N 
ATOM      2  H   UNL     1       5.320   6.654  16.246  0.00  0.00    +0.000 HD
ENDROOT
BRANCH   1   3
ATOM      3  C   UNL     1       4.590   5.753  17.914  0.00  0.00    +0.000 A 
ATOM      4  C   UNL     1       4.596   4.557  18.645  0.00  0.00    +0.000 A 
ATOM      5  C   UNL     1       3.573   4.260  19.547  0.00  0.00    +0.000 A 
ATOM      6  C   UNL     1       2.561   5.184  19.799  0.00  0.00    +0.000 A 
ATOM      7  C   UNL     1       2.567   6.410  19.145  0.00  0.00    +0.000 A 
ATOM      8  C   UNL     1       3.564   6.682  18.203  0.00  0.00    +0.000 A 
ATOM      9 CL   UNL     1       3.501   8.207  17.381  0.00  0.00    +0.000 Cl
ATOM     10  O   UNL     1       1.592   4.975  20.741  0.00  0.00    +0.000 OA
ATOM     11  C   UNL     1       0.742   3.880  20.393  0.00  0.00    +0.000 C 
ATOM     12  C   UNL     1       1.349   2.530  20.751  0.00  0.00    +0.000 C 
ATOM     13  C   UNL     1       2.563   2.215  19.892  0.00  0.00    +0.000 C 
ATOM     14  O   UNL     1       3.667   3.066  20.208  0.00  0.00    +0.000 OA
ENDBRANCH   1   3
BRANCH   1  15
ATOM     15  C   UNL     1       6.709   5.160  16.720  0.00  0.00    +0.000 C 
BRANCH  15  19
ATOM     16  C   UNL     1       6.898   4.558  13.219  0.00  0.00    +0.000 A 
ATOM     17  N   UNL     1       7.928   5.408  13.331  0.00  0.00    +0.000 NA
ATOM     18  O   UNL     1       7.957   5.694  14.698  0.00  0.00    +0.000 OA
ATOM     19  C   UNL     1       6.939   4.980  15.262  0.00  0.00    +0.000 A 
ATOM     20  N   UNL     1       6.279   4.238  14.399  0.00  0.00    +0.000 NA
BRANCH  16  21
ATOM     21  C   UNL     1       6.396   4.066  11.912  0.00  0.00    +0.000 C 
BRANCH  21  23
ATOM     22  C   UNL     1       4.872   2.115  11.306  0.00  0.00    +0.000 C 
ATOM     23  C   UNL     1       6.227   2.534  11.882  0.00  0.00    +0.000 C 
ATOM     24  C   UNL     1       7.357   1.895  11.075  0.00  0.00    +0.000 C 
ENDBRANCH  21  23
ENDBRANCH  16  21
ENDBRANCH  15  19
ENDBRANCH   1  15
TORSDOF 5
ENDMDL
MODEL 9
REMARK VINA RESULT:      -7.3      3.604      5.636
REMARK  Name = 
REMARK  7 active torsions:
REMARK  status: ('A' for Active; 'I' for Inactive)
REMARK    1  A    between atoms: C_1  and  C_2
REMARK    2  A    between atoms: C_2  and  C_3
REMARK    3  A    between atoms: C_2  and  C_4
REMARK    4  A    between atoms: C_4  and  C_5
REMARK    5  A    between atoms: C_8  and  C_9
REMARK    6  A    between atoms: C_9  and  N_10
REMARK    7  A    between atoms: N_10  and  C_11
REMARK                            x       y       z     vdW  Elec       q    Type
REMARK                         _______ _______ _______ _____ _____    ______ ____
ROOT
ATOM      1  N   UNL     1       4.400   6.971  16.996  0.00  0.00    +0.000 N 
ATOM      2  H   UNL     1       3.905   6.921  16.103  0.00  0.00    +0.000 HD
ENDROOT
BRANCH   1   3
ATOM      3  C   UNL     1       3.740   6.310  18.034  0.00  0.00    +0.000 A 
ATOM      4  C   UNL     1       4.138   5.042  18.474  0.00  0.00    +0.000 A 
ATOM      5  C   UNL     1       3.493   4.416  19.543  0.00  0.00    +0.000 A 
ATOM      6  C   UNL     1       2.488   5.075  20.247  0.00  0.00    +0.000 A 
ATOM      7  C   UNL     1       2.121   6.364  19.881  0.00  0.00    +0.000 A 
ATOM      8  C   UNL     1       2.732   6.967  18.777  0.00  0.00    +0.000 A 
ATOM      9 CL   UNL     1       2.206   8.557  18.332  0.00  0.00    +0.000 Cl
ATOM     10  O   UNL     1       1.894   4.540  21.356  0.00  0.00    +0.000 OA
ATOM     11  C   UNL     1       1.141   3.367  21.040  0.00  0.00    +0.000 C 
ATOM     12  C   UNL     1       2.013   2.123  20.934  0.00  0.00    +0.000 C 
ATOM     13  C   UNL     1       2.937   2.185  19.728  0.00  0.00    +0.000 C 
ATOM     14  O   UNL     1       3.953   3.176  19.895  0.00  0.00    +0.000 OA
ENDBRANCH   1   3
BRANCH   1  15
ATOM     15  C   UNL     1       5.856   6.961  16.863  0.00  0.00    +0.000 C 
BRANCH  15  19
ATOM     16  C   UNL     1       6.866   4.866  14.172  0.00  0.00    +0.000 A 
ATOM     17  N   UNL     1       7.745   4.446  15.091  0.00  0.00    +0.000 NA
ATOM     18  O   UNL     1       7.414   5.204  16.217  0.00  0.00    +0.000 OA
ATOM     19  C   UNL     1       6.365   5.998  15.851  0.00  0.00    +0.000 A 
ATOM     20  N   UNL     1       5.968   5.803  14.612  0.00  0.00    +0.000 NA
BRANCH  16  21
ATOM     21  C   UNL     1       6.909   4.428  12.754  0.00  0.00    +0.000 C 
BRANCH  21  23
ATOM     22  C   UNL     1       4.673   3.555  11.900  0.00  0.00    +0.000 C 
ATOM     23  C   UNL     1       6.035   3.185  12.494  0.00  0.00    +0.000 C 
ATOM     24  C   UNL     1       6.761   2.213  11.565  0.00  0.00    +0.000 C 
ENDBRANCH  21  23
ENDBRANCH  16  21
ENDBRANCH  15  19
ENDBRANCH   1  15
TORSDOF 5
ENDMDL
