MODEL 1
REMARK VINA RESULT:      -8.5      0.000      0.000
REMARK  Name = 
REMARK  6 active torsions:
REMARK  status: ('A' for Active; 'I' for Inactive)
REMARK    1  A    between atoms: C_1  and  C_2
REMARK    2  A    between atoms: C_9  and  N_10
REMARK    3  A    between atoms: C_11  and  C_13
REMARK    4  A    between atoms: C_13  and  C_14
REMARK    5  A    between atoms: C_14  and  C_15
REMARK    6  A    between atoms: C_15  and  C_16
REMARK                            x       y       z     vdW  Elec       q    Type
REMARK                         _______ _______ _______ _____ _____    ______ ____
ROOT
ATOM      1  N   UNL     1       3.149   6.008  18.185  0.00  0.00    +0.000 N 
ATOM      2  C   UNL     1       4.425   5.997  17.639  0.00  0.00    +0.000 C 
ATOM      3  O   UNL     1       5.152   6.966  17.453  0.00  0.00    +0.000 OA
ATOM      4  H   UNL     1       2.662   5.122  18.248  0.00  0.00    +0.000 HD
ENDROOT
BRANCH   1  13
ATOM      5  C   UNL     1       0.011  11.786  19.246  0.00  0.00    +0.000 C 
ATOM      6  C   UNL     1       0.421  10.648  20.132  0.00  0.00    +0.000 A 
ATOM      7  C   UNL     1       0.191  10.685  21.454  0.00  0.00    +0.000 A 
ATOM      8  C   UNL     1       0.574   9.608  22.377  0.00  0.00    +0.000 A 
ATOM      9  O   UNL     1       0.330   9.697  23.576  0.00  0.00    +0.000 OA
ATOM     10  O   UNL     1       1.209   8.515  21.829  0.00  0.00    +0.000 OA
ATOM     11  C   UNL     1       1.472   8.451  20.449  0.00  0.00    +0.000 A 
ATOM     12  C   UNL     1       2.139   7.303  20.022  0.00  0.00    +0.000 A 
ATOM     13  C   UNL     1       2.462   7.139  18.680  0.00  0.00    +0.000 A 
ATOM     14  C   UNL     1       2.080   8.141  17.779  0.00  0.00    +0.000 A 
ATOM     15  C   UNL     1       1.406   9.296  18.221  0.00  0.00    +0.000 A 
ATOM     16  C   UNL     1       1.098   9.470  19.575  0.00  0.00    +0.000 A 
ENDBRANCH   1  13
BRANCH   2  17
ATOM     17  C   UNL     1       4.937   4.608  17.320  0.00  0.00    +0.000 C 
BRANCH  17  18
ATOM     18  C   UNL     1       3.800   3.690  16.875  0.00  0.00    +0.000 C 
BRANCH  18  19
ATOM     19  C   UNL     1       3.681   2.428  17.734  0.00  0.00    +0.000 C 
BRANCH  19  20
ATOM     20  C   UNL     1       2.853   2.674  18.967  0.00  0.00    +0.000 A 
ATOM     21  C   UNL     1       3.442   2.588  20.237  0.00  0.00    +0.000 A 
ATOM     22  C   UNL     1       2.677   2.787  21.385  0.00  0.00    +0.000 A 
ATOM     23  C   UNL     1       1.317   3.070  21.275  0.00  0.00    +0.000 A 
ATOM     24  C   UNL     1       0.722   3.154  20.018  0.00  0.00    +0.000 A 
ATOM     25  C   UNL     1       1.486   2.956  18.867  0.00  0.00    +0.000 A 
ENDBRANCH  19  20
ENDBRANCH  18  19
ENDBRANCH  17  18
ENDBRANCH   2  17
TORSDOF 5
ENDMDL
MODEL 2
REMARK VINA RESULT:      -8.4      1.449      2.105
REMARK  Name = 
REMARK  6 active torsions:
REMARK  status: ('A' for Active; 'I' for Inactive)
REMARK    1  A    between atoms: C_1  and  C_2
REMARK    2  A    between atoms: C_9  and  N_10
REMARK    3  A    between atoms: C_11  and  C_13
REMARK    4  A    between atoms: C_13  and  C_14
REMARK    5  A    between atoms: C_14  and  C_15
REMARK    6  A    between atoms: C_15  and  C_16
REMARK                            x       y       z     vdW  Elec       q    Type
REMARK                         _______ _______ _______ _____ _____    ______ ____
ROOT
ATOM      1  N   UNL     1       3.259   6.067  17.947  0.00  0.00    +0.000 N 
ATOM      2  C   UNL     1       4.468   5.464  18.268  0.00  0.00    +0.000 C 
ATOM      3  O   UNL     1       5.140   5.657  19.273  0.00  0.00    +0.000 OA
ATOM      4  H   UNL     1       2.837   5.821  17.061  0.00  0.00    +0.000 HD
ENDROOT
BRANCH   1  13
ATOM      5  C   UNL     1      -0.173   9.369  22.602  0.00  0.00    +0.000 C 
ATOM      6  C   UNL     1       0.308   9.715  21.226  0.00  0.00    +0.000 A 
ATOM      7  C   UNL     1       0.031  10.909  20.677  0.00  0.00    +0.000 A 
ATOM      8  C   UNL     1       0.466  11.306  19.331  0.00  0.00    +0.000 A 
ATOM      9  O   UNL     1       0.188  12.416  18.887  0.00  0.00    +0.000 OA
ATOM     10  O   UNL     1       1.189  10.380  18.612  0.00  0.00    +0.000 OA
ATOM     11  C   UNL     1       1.488   9.118  19.155  0.00  0.00    +0.000 A 
ATOM     12  C   UNL     1       2.206   8.263  18.320  0.00  0.00    +0.000 A 
ATOM     13  C   UNL     1       2.545   6.986  18.749  0.00  0.00    +0.000 A 
ATOM     14  C   UNL     1       2.166   6.597  20.040  0.00  0.00    +0.000 A 
ATOM     15  C   UNL     1       1.440   7.469  20.876  0.00  0.00    +0.000 A 
ATOM     16  C   UNL     1       1.082   8.748  20.437  0.00  0.00    +0.000 A 
ENDBRANCH   1  13
BRANCH   2  17
ATOM     17  C   UNL     1       4.913   4.425  17.260  0.00  0.00    +0.000 C 
BRANCH  17  18
ATOM     18  C   UNL     1       3.765   3.489  16.890  0.00  0.00    +0.000 C 
BRANCH  18  19
ATOM     19  C   UNL     1       3.653   2.282  17.826  0.00  0.00    +0.000 C 
BRANCH  19  20
ATOM     20  C   UNL     1       2.820   2.600  19.040  0.00  0.00    +0.000 A 
ATOM     21  C   UNL     1       3.390   2.538  20.320  0.00  0.00    +0.000 A 
ATOM     22  C   UNL     1       2.620   2.804  21.451  0.00  0.00    +0.000 A 
ATOM     23  C   UNL     1       1.273   3.131  21.314  0.00  0.00    +0.000 A 
ATOM     24  C   UNL     1       0.696   3.193  20.047  0.00  0.00    +0.000 A 
ATOM     25  C   UNL     1       1.465   2.927  18.913  0.00  0.00    +0.000 A 
ENDBRANCH  19  20
ENDBRANCH  18  19
ENDBRANCH  17  18
ENDBRANCH   2  17
TORSDOF 5
ENDMDL
MODEL 3
REMARK VINA RESULT:      -8.3      1.406      2.300
REMARK  Name = 
REMARK  6 active torsions:
REMARK  status: ('A' for Active; 'I' for Inactive)
REMARK    1  A    between atoms: C_1  and  C_2
REMARK    2  A    between atoms: C_9  and  N_10
REMARK    3  A    between atoms: C_11  and  C_13
REMARK    4  A    between atoms: C_13  and  C_14
REMARK    5  A    between atoms: C_14  and  C_15
REMARK    6  A    between atoms: C_15  and  C_16
REMARK                            x       y       z     vdW  Elec       q    Type
REMARK                         _______ _______ _______ _____ _____    ______ ____
ROOT
ATOM      1  N   UNL     1       3.019   5.883  17.786  0.00  0.00    +0.000 N 
ATOM      2  C   UNL     1       4.371   5.737  17.509  0.00  0.00    +0.000 C 
ATOM      3  O   UNL     1       5.283   6.456  17.900  0.00  0.00    +0.000 OA
ATOM      4  H   UNL     1       2.383   5.219  17.364  0.00  0.00    +0.000 HD
ENDROOT
BRANCH   1  13
ATOM      5  C   UNL     1       0.271   9.533  22.632  0.00  0.00    +0.000 C 
ATOM      6  C   UNL     1       0.609   9.799  21.196  0.00  0.00    +0.000 A 
ATOM      7  C   UNL     1       0.323  10.980  20.626  0.00  0.00    +0.000 A 
ATOM      8  C   UNL     1       0.621  11.300  19.224  0.00  0.00    +0.000 A 
ATOM      9  O   UNL     1       0.342  12.402  18.762  0.00  0.00    +0.000 OA
ATOM     10  O   UNL     1       1.220  10.313  18.474  0.00  0.00    +0.000 OA
ATOM     11  C   UNL     1       1.524   9.062  19.039  0.00  0.00    +0.000 A 
ATOM     12  C   UNL     1       2.107   8.140  18.170  0.00  0.00    +0.000 A 
ATOM     13  C   UNL     1       2.439   6.867  18.618  0.00  0.00    +0.000 A 
ATOM     14  C   UNL     1       2.190   6.551  19.959  0.00  0.00    +0.000 A 
ATOM     15  C   UNL     1       1.600   7.489  20.829  0.00  0.00    +0.000 A 
ATOM     16  C   UNL     1       1.249   8.764  20.373  0.00  0.00    +0.000 A 
ENDBRANCH   1  13
BRANCH   2  17
ATOM     17  C   UNL     1       4.692   4.505  16.687  0.00  0.00    +0.000 C 
BRANCH  17  18
ATOM     18  C   UNL     1       3.584   3.461  16.804  0.00  0.00    +0.000 C 
BRANCH  18  19
ATOM     19  C   UNL     1       3.854   2.425  17.899  0.00  0.00    +0.000 C 
BRANCH  19  20
ATOM     20  C   UNL     1       2.935   2.613  19.077  0.00  0.00    +0.000 A 
ATOM     21  C   UNL     1       1.570   2.862  18.871  0.00  0.00    +0.000 A 
ATOM     22  C   UNL     1       0.717   3.065  19.954  0.00  0.00    +0.000 A 
ATOM     23  C   UNL     1       1.220   3.025  21.253  0.00  0.00    +0.000 A 
ATOM     24  C   UNL     1       2.576   2.781  21.468  0.00  0.00    +0.000 A 
ATOM     25  C   UNL     1       3.432   2.577  20.385  0.00  0.00    +0.000 A 
ENDBRANCH  19  20
ENDBRANCH  18  19
ENDBRANCH  17  18
ENDBRANCH   2  17
TORSDOF 5
ENDMDL
MODEL 4
REMARK VINA RESULT:      -8.3      0.316      1.035
REMARK  Name = 
REMARK  6 active torsions:
REMARK  status: ('A' for Active; 'I' for Inactive)
REMARK    1  A    between atoms: C_1  and  C_2
REMARK    2  A    between atoms: C_9  and  N_10
REMARK    3  A    between atoms: C_11  and  C_13
REMARK    4  A    between atoms: C_13  and  C_14
REMARK    5  A    between atoms: C_14  and  C_15
REMARK    6  A    between atoms: C_15  and  C_16
REMARK                            x       y       z     vdW  Elec       q    Type
REMARK                         _______ _______ _______ _____ _____    ______ ____
ROOT
ATOM      1  N   UNL     1       3.136   6.107  18.548  0.00  0.00    +0.000 N 
ATOM      2  C   UNL     1       4.236   6.065  17.701  0.00  0.00    +0.000 C 
ATOM      3  O   UNL     1       4.727   7.006  17.089  0.00  0.00    +0.000 OA
ATOM      4  H   UNL     1       2.833   5.234  18.961  0.00  0.00    +0.000 HD
ENDROOT
BRANCH   1  13
ATOM      5  C   UNL     1      -0.144  11.890  18.940  0.00  0.00    +0.000 C 
ATOM      6  C   UNL     1       0.217  10.832  19.937  0.00  0.00    +0.000 A 
ATOM      7  C   UNL     1      -0.104  10.965  21.234  0.00  0.00    +0.000 A 
ATOM      8  C   UNL     1       0.228   9.969  22.262  0.00  0.00    +0.000 A 
ATOM      9  O   UNL     1      -0.100  10.145  23.431  0.00  0.00    +0.000 OA
ATOM     10  O   UNL     1       0.914   8.850  21.845  0.00  0.00    +0.000 OA
ATOM     11  C   UNL     1       1.273   8.685  20.496  0.00  0.00    +0.000 A 
ATOM     12  C   UNL     1       1.984   7.521  20.206  0.00  0.00    +0.000 A 
ATOM     13  C   UNL     1       2.401   7.260  18.906  0.00  0.00    +0.000 A 
ATOM     14  C   UNL     1       2.070   8.183  17.905  0.00  0.00    +0.000 A 
ATOM     15  C   UNL     1       1.351   9.356  18.209  0.00  0.00    +0.000 A 
ATOM     16  C   UNL     1       0.947   9.627  19.521  0.00  0.00    +0.000 A 
ENDBRANCH   1  13
BRANCH   2  17
ATOM     17  C   UNL     1       4.887   4.700  17.620  0.00  0.00    +0.000 C 
BRANCH  17  18
ATOM     18  C   UNL     1       3.985   3.702  16.897  0.00  0.00    +0.000 C 
BRANCH  18  19
ATOM     19  C   UNL     1       3.769   2.410  17.690  0.00  0.00    +0.000 C 
BRANCH  19  20
ATOM     20  C   UNL     1       2.911   2.644  18.905  0.00  0.00    +0.000 A 
ATOM     21  C   UNL     1       1.558   2.980  18.756  0.00  0.00    +0.000 A 
ATOM     22  C   UNL     1       0.763   3.225  19.875  0.00  0.00    +0.000 A 
ATOM     23  C   UNL     1       1.314   3.141  21.152  0.00  0.00    +0.000 A 
ATOM     24  C   UNL     1       2.659   2.810  21.310  0.00  0.00    +0.000 A 
ATOM     25  C   UNL     1       3.456   2.564  20.192  0.00  0.00    +0.000 A 
ENDBRANCH  19  20
ENDBRANCH  18  19
ENDBRANCH  17  18
ENDBRANCH   2  17
TORSDOF 5
ENDMDL
MODEL 5
REMARK VINA RESULT:      -8.2      1.870      3.684
REMARK  Name = 
REMARK  6 active torsions:
REMARK  status: ('A' for Active; 'I' for Inactive)
REMARK    1  A    between atoms: C_1  and  C_2
REMARK    2  A    between atoms: C_9  and  N_10
REMARK    3  A    between atoms: C_11  and  C_13
REMARK    4  A    between atoms: C_13  and  C_14
REMARK    5  A    between atoms: C_14  and  C_15
REMARK    6  A    between atoms: C_15  and  C_16
REMARK                            x       y       z     vdW  Elec       q    Type
REMARK                         _______ _______ _______ _____ _____    ______ ____
ROOT
ATOM      1  N   UNL     1       3.234   5.967  18.219  0.00  0.00    +0.000 N 
ATOM      2  C   UNL     1       2.850   4.640  18.353  0.00  0.00    +0.000 C 
ATOM      3  O   UNL     1       1.856   4.218  18.932  0.00  0.00    +0.000 OA
ATOM      4  H   UNL     1       4.101   6.155  17.732  0.00  0.00    +0.000 HD
ENDROOT
BRANCH   1  13
ATOM      5  C   UNL     1      -0.032  11.698  19.141  0.00  0.00    +0.000 C 
ATOM      6  C   UNL     1       0.401  10.591  20.054  0.00  0.00    +0.000 A 
ATOM      7  C   UNL     1       0.168  10.654  21.375  0.00  0.00    +0.000 A 
ATOM      8  C   UNL     1       0.574   9.607  22.323  0.00  0.00    +0.000 A 
ATOM      9  O   UNL     1       0.326   9.719  23.520  0.00  0.00    +0.000 OA
ATOM     10  O   UNL     1       1.233   8.517  21.801  0.00  0.00    +0.000 OA
ATOM     11  C   UNL     1       1.500   8.425  20.424  0.00  0.00    +0.000 A 
ATOM     12  C   UNL     1       2.193   7.283  20.025  0.00  0.00    +0.000 A 
ATOM     13  C   UNL     1       2.521   7.095  18.687  0.00  0.00    +0.000 A 
ATOM     14  C   UNL     1       2.119   8.066  17.762  0.00  0.00    +0.000 A 
ATOM     15  C   UNL     1       1.418   9.216  18.176  0.00  0.00    +0.000 A 
ATOM     16  C   UNL     1       1.105   9.415  19.525  0.00  0.00    +0.000 A 
ENDBRANCH   1  13
BRANCH   2  17
ATOM     17  C   UNL     1       3.761   3.670  17.630  0.00  0.00    +0.000 C 
BRANCH  17  18
ATOM     18  C   UNL     1       4.368   4.309  16.383  0.00  0.00    +0.000 C 
BRANCH  18  19
ATOM     19  C   UNL     1       5.884   4.111  16.289  0.00  0.00    +0.000 C 
BRANCH  19  20
ATOM     20  C   UNL     1       6.627   5.131  17.110  0.00  0.00    +0.000 A 
ATOM     21  C   UNL     1       6.711   6.460  16.672  0.00  0.00    +0.000 A 
ATOM     22  C   UNL     1       7.419   7.405  17.413  0.00  0.00    +0.000 A 
ATOM     23  C   UNL     1       8.054   7.030  18.595  0.00  0.00    +0.000 A 
ATOM     24  C   UNL     1       7.980   5.710  19.037  0.00  0.00    +0.000 A 
ATOM     25  C   UNL     1       7.270   4.762  18.297  0.00  0.00    +0.000 A 
ENDBRANCH  19  20
ENDBRANCH  18  19
ENDBRANCH  17  18
ENDBRANCH   2  17
TORSDOF 5
ENDMDL
MODEL 6
REMARK VINA RESULT:      -8.0      1.965      3.626
REMARK  Name = 
REMARK  6 active torsions:
REMARK  status: ('A' for Active; 'I' for Inactive)
REMARK    1  A    between atoms: C_1  and  C_2
REMARK    2  A    between atoms: C_9  and  N_10
REMARK    3  A    between atoms: C_11  and  C_13
REMARK    4  A    between atoms: C_13  and  C_14
REMARK    5  A    between atoms: C_14  and  C_15
REMARK    6  A    between atoms: C_15  and  C_16
REMARK                            x       y       z     vdW  Elec       q    Type
REMARK                         _______ _______ _______ _____ _____    ______ ____
ROOT
ATOM      1  N   UNL     1       2.959   5.694  18.255  0.00  0.00    +0.000 N 
ATOM      2  C   UNL     1       2.292   4.626  17.672  0.00  0.00    +0.000 C 
ATOM      3  O   UNL     1       1.083   4.518  17.505  0.00  0.00    +0.000 OA
ATOM      4  H   UNL     1       3.964   5.622  18.346  0.00  0.00    +0.000 HD
ENDROOT
BRANCH   1  13
ATOM      5  C   UNL     1       0.348  11.749  19.193  0.00  0.00    +0.000 C 
ATOM      6  C   UNL     1       0.636  10.591  20.099  0.00  0.00    +0.000 A 
ATOM      7  C   UNL     1       0.389  10.666  21.416  0.00  0.00    +0.000 A 
ATOM      8  C   UNL     1       0.656   9.571  22.358  0.00  0.00    +0.000 A 
ATOM      9  O   UNL     1       0.402   9.698  23.552  0.00  0.00    +0.000 OA
ATOM     10  O   UNL     1       1.197   8.418  21.834  0.00  0.00    +0.000 OA
ATOM     11  C   UNL     1       1.476   8.311  20.460  0.00  0.00    +0.000 A 
ATOM     12  C   UNL     1       2.042   7.101  20.059  0.00  0.00    +0.000 A 
ATOM     13  C   UNL     1       2.370   6.890  18.725  0.00  0.00    +0.000 A 
ATOM     14  C   UNL     1       2.097   7.911  17.805  0.00  0.00    +0.000 A 
ATOM     15  C   UNL     1       1.524   9.129  18.221  0.00  0.00    +0.000 A 
ATOM     16  C   UNL     1       1.211   9.348  19.567  0.00  0.00    +0.000 A 
ENDBRANCH   1  13
BRANCH   2  17
ATOM     17  C   UNL     1       3.217   3.544  17.152  0.00  0.00    +0.000 C 
BRANCH  17  18
ATOM     18  C   UNL     1       4.592   3.632  17.812  0.00  0.00    +0.000 C 
BRANCH  18  19
ATOM     19  C   UNL     1       5.701   4.023  16.832  0.00  0.00    +0.000 C 
BRANCH  19  20
ATOM     20  C   UNL     1       6.521   5.173  17.355  0.00  0.00    +0.000 A 
ATOM     21  C   UNL     1       7.344   4.996  18.476  0.00  0.00    +0.000 A 
ATOM     22  C   UNL     1       8.086   6.062  18.984  0.00  0.00    +0.000 A 
ATOM     23  C   UNL     1       8.007   7.315  18.379  0.00  0.00    +0.000 A 
ATOM     24  C   UNL     1       7.189   7.501  17.266  0.00  0.00    +0.000 A 
ATOM     25  C   UNL     1       6.446   6.435  16.756  0.00  0.00    +0.000 A 
ENDBRANCH  19  20
ENDBRANCH  18  19
ENDBRANCH  17  18
ENDBRANCH   2  17
TORSDOF 5
ENDMDL
MODEL 7
REMARK VINA RESULT:      -7.9      0.736      1.047
REMARK  Name = 
REMARK  6 active torsions:
REMARK  status: ('A' for Active; 'I' for Inactive)
REMARK    1  A    between atoms: C_1  and  C_2
REMARK    2  A    between atoms: C_9  and  N_10
REMARK    3  A    between atoms: C_11  and  C_13
REMARK    4  A    between atoms: C_13  and  C_14
REMARK    5  A    between atoms: C_14  and  C_15
REMARK    6  A    between atoms: C_15  and  C_16
REMARK                            x       y       z     vdW  Elec       q    Type
REMARK                         _______ _______ _______ _____ _____    ______ ____
ROOT
ATOM      1  N   UNL     1       3.100   6.226  18.458  0.00  0.00    +0.000 N 
ATOM      2  C   UNL     1       4.322   6.194  17.800  0.00  0.00    +0.000 C 
ATOM      3  O   UNL     1       4.954   7.155  17.377  0.00  0.00    +0.000 OA
ATOM      4  H   UNL     1       2.690   5.340  18.723  0.00  0.00    +0.000 HD
ENDROOT
BRANCH   1  13
ATOM      5  C   UNL     1      -0.143  12.032  18.823  0.00  0.00    +0.000 C 
ATOM      6  C   UNL     1       0.210  10.975  19.825  0.00  0.00    +0.000 A 
ATOM      7  C   UNL     1      -0.113  11.115  21.120  0.00  0.00    +0.000 A 
ATOM      8  C   UNL     1       0.210  10.120  22.152  0.00  0.00    +0.000 A 
ATOM      9  O   UNL     1      -0.118  10.303  23.320  0.00  0.00    +0.000 OA
ATOM     10  O   UNL     1       0.890   8.995  21.740  0.00  0.00    +0.000 OA
ATOM     11  C   UNL     1       1.250   8.823  20.393  0.00  0.00    +0.000 A 
ATOM     12  C   UNL     1       1.954   7.653  20.108  0.00  0.00    +0.000 A 
ATOM     13  C   UNL     1       2.372   7.385  18.810  0.00  0.00    +0.000 A 
ATOM     14  C   UNL     1       2.048   8.306  17.806  0.00  0.00    +0.000 A 
ATOM     15  C   UNL     1       1.337   9.485  18.104  0.00  0.00    +0.000 A 
ATOM     16  C   UNL     1       0.932   9.764  19.414  0.00  0.00    +0.000 A 
ENDBRANCH   1  13
BRANCH   2  17
ATOM     17  C   UNL     1       4.911   4.803  17.683  0.00  0.00    +0.000 C 
BRANCH  17  18
ATOM     18  C   UNL     1       5.287   4.247  19.055  0.00  0.00    +0.000 C 
BRANCH  18  19
ATOM     19  C   UNL     1       4.666   2.875  19.333  0.00  0.00    +0.000 C 
BRANCH  19  20
ATOM     20  C   UNL     1       3.171   2.966  19.489  0.00  0.00    +0.000 A 
ATOM     21  C   UNL     1       2.619   3.613  20.604  0.00  0.00    +0.000 A 
ATOM     22  C   UNL     1       1.236   3.679  20.770  0.00  0.00    +0.000 A 
ATOM     23  C   UNL     1       0.393   3.095  19.826  0.00  0.00    +0.000 A 
ATOM     24  C   UNL     1       0.933   2.446  18.717  0.00  0.00    +0.000 A 
ATOM     25  C   UNL     1       2.317   2.380  18.548  0.00  0.00    +0.000 A 
ENDBRANCH  19  20
ENDBRANCH  18  19
ENDBRANCH  17  18
ENDBRANCH   2  17
TORSDOF 5
ENDMDL
MODEL 8
REMARK VINA RESULT:      -7.8      2.416      4.280
REMARK  Name = 
REMARK  6 active torsions:
REMARK  status: ('A' for Active; 'I' for Inactive)
REMARK    1  A    between atoms: C_1  and  C_2
REMARK    2  A    between atoms: C_9  and  N_10
REMARK    3  A    between atoms: C_11  and  C_13
REMARK    4  A    between atoms: C_13  and  C_14
REMARK    5  A    between atoms: C_14  and  C_15
REMARK    6  A    between atoms: C_15  and  C_16
REMARK                            x       y       z     vdW  Elec       q    Type
REMARK                         _______ _______ _______ _____ _____    ______ ____
ROOT
ATOM      1  N   UNL     1       3.698   5.487  18.110  0.00  0.00    +0.000 N 
ATOM      2  C   UNL     1       3.223   4.350  17.471  0.00  0.00    +0.000 C 
ATOM      3  O   UNL     1       2.060   3.969  17.418  0.00  0.00    +0.000 OA
ATOM      4  H   UNL     1       4.696   5.652  18.088  0.00  0.00    +0.000 HD
ENDROOT
BRANCH   1  13
ATOM      5  C   UNL     1      -0.199   9.054  22.167  0.00  0.00    +0.000 C 
ATOM      6  C   UNL     1       0.469   9.336  20.856  0.00  0.00    +0.000 A 
ATOM      7  C   UNL     1       0.307  10.517  20.238  0.00  0.00    +0.000 A 
ATOM      8  C   UNL     1       0.926  10.852  18.949  0.00  0.00    +0.000 A 
ATOM      9  O   UNL     1       0.746  11.953  18.436  0.00  0.00    +0.000 OA
ATOM     10  O   UNL     1       1.705   9.880  18.361  0.00  0.00    +0.000 OA
ATOM     11  C   UNL     1       1.888   8.630  18.978  0.00  0.00    +0.000 A 
ATOM     12  C   UNL     1       2.680   7.726  18.271  0.00  0.00    +0.000 A 
ATOM     13  C   UNL     1       2.917   6.455  18.782  0.00  0.00    +0.000 A 
ATOM     14  C   UNL     1       2.359   6.124  20.024  0.00  0.00    +0.000 A 
ATOM     15  C   UNL     1       1.561   7.046  20.729  0.00  0.00    +0.000 A 
ATOM     16  C   UNL     1       1.307   8.319  20.206  0.00  0.00    +0.000 A 
ENDBRANCH   1  13
BRANCH   2  17
ATOM     17  C   UNL     1       4.296   3.579  16.730  0.00  0.00    +0.000 C 
BRANCH  17  18
ATOM     18  C   UNL     1       4.973   4.452  15.676  0.00  0.00    +0.000 C 
BRANCH  18  19
ATOM     19  C   UNL     1       6.501   4.370  15.725  0.00  0.00    +0.000 C 
BRANCH  19  20
ATOM     20  C   UNL     1       7.070   5.275  16.786  0.00  0.00    +0.000 A 
ATOM     21  C   UNL     1       7.536   4.735  17.993  0.00  0.00    +0.000 A 
ATOM     22  C   UNL     1       8.039   5.568  18.992  0.00  0.00    +0.000 A 
ATOM     23  C   UNL     1       8.076   6.947  18.795  0.00  0.00    +0.000 A 
ATOM     24  C   UNL     1       7.611   7.493  17.600  0.00  0.00    +0.000 A 
ATOM     25  C   UNL     1       7.108   6.661  16.598  0.00  0.00    +0.000 A 
ENDBRANCH  19  20
ENDBRANCH  18  19
ENDBRANCH  17  18
ENDBRANCH   2  17
TORSDOF 5
ENDMDL
MODEL 9
REMARK VINA RESULT:      -7.8      2.549      4.565
REMARK  Name = 
REMARK  6 active torsions:
REMARK  status: ('A' for Active; 'I' for Inactive)
REMARK    1  A    between atoms: C_1  and  C_2
REMARK    2  A    between atoms: C_9  and  N_10
REMARK    3  A    between atoms: C_11  and  C_13
REMARK    4  A    between atoms: C_13  and  C_14
REMARK    5  A    between atoms: C_14  and  C_15
REMARK    6  A    between atoms: C_15  and  C_16
REMARK                            x       y       z     vdW  Elec       q    Type
REMARK                         _______ _______ _______ _____ _____    ______ ____
ROOT
ATOM      1  N   UNL     1       3.243   6.778  17.965  0.00  0.00    +0.000 N 
ATOM      2  C   UNL     1       3.027   5.408  17.904  0.00  0.00    +0.000 C 
ATOM      3  O   UNL     1       2.093   4.790  18.401  0.00  0.00    +0.000 OA
ATOM      4  H   UNL     1       4.080   7.137  17.525  0.00  0.00    +0.000 HD
ENDROOT
BRANCH   1  13
ATOM      5  C   UNL     1      -0.843  11.786  19.576  0.00  0.00    +0.000 C 
ATOM      6  C   UNL     1      -0.156  10.711  20.363  0.00  0.00    +0.000 A 
ATOM      7  C   UNL     1      -0.283  10.644  21.698  0.00  0.00    +0.000 A 
ATOM      8  C   UNL     1       0.369   9.622  22.527  0.00  0.00    +0.000 A 
ATOM      9  O   UNL     1       0.208   9.609  23.744  0.00  0.00    +0.000 OA
ATOM     10  O   UNL     1       1.154   8.698  21.874  0.00  0.00    +0.000 OA
ATOM     11  C   UNL     1       1.315   8.747  20.478  0.00  0.00    +0.000 A 
ATOM     12  C   UNL     1       2.153   7.771  19.940  0.00  0.00    +0.000 A 
ATOM     13  C   UNL     1       2.394   7.732  18.572  0.00  0.00    +0.000 A 
ATOM     14  C   UNL     1       1.759   8.679  17.759  0.00  0.00    +0.000 A 
ATOM     15  C   UNL     1       0.914   9.661  18.313  0.00  0.00    +0.000 A 
ATOM     16  C   UNL     1       0.687   9.712  19.692  0.00  0.00    +0.000 A 
ENDBRANCH   1  13
BRANCH   2  17
ATOM     17  C   UNL     1       4.053   4.669  17.070  0.00  0.00    +0.000 C 
BRANCH  17  18
ATOM     18  C   UNL     1       4.973   5.643  16.337  0.00  0.00    +0.000 C 
BRANCH  18  19
ATOM     19  C   UNL     1       6.377   5.078  16.104  0.00  0.00    +0.000 C 
BRANCH  19  20
ATOM     20  C   UNL     1       6.597   4.726  14.656  0.00  0.00    +0.000 A 
ATOM     21  C   UNL     1       7.591   5.383  13.917  0.00  0.00    +0.000 A 
ATOM     22  C   UNL     1       7.784   5.083  12.569  0.00  0.00    +0.000 A 
ATOM     23  C   UNL     1       6.983   4.128  11.948  0.00  0.00    +0.000 A 
ATOM     24  C   UNL     1       5.990   3.471  12.673  0.00  0.00    +0.000 A 
ATOM     25  C   UNL     1       5.796   3.769  14.023  0.00  0.00    +0.000 A 
ENDBRANCH  19  20
ENDBRANCH  18  19
ENDBRANCH  17  18
ENDBRANCH   2  17
TORSDOF 5
ENDMDL
