MODEL 1
REMARK VINA RESULT:      -8.1      0.000      0.000
REMARK  Name = 
REMARK  9 active torsions:
REMARK  status: ('A' for Active; 'I' for Inactive)
REMARK    1  A    between atoms: C_1  and  C_2
REMARK    2  A    between atoms: C_6  and  C_7
REMARK    3  A    between atoms: C_12  and  S_13
REMARK    4  A    between atoms: S_13  and  C_14
REMARK    5  A    between atoms: C_14  and  C_15
REMARK    6  A    between atoms: N_17  and  C_18
REMARK    7  A    between atoms: C_18  and  C_19
REMARK    8  A    between atoms: C_18  and  C_20
REMARK    9  A    between atoms: C_24  and  C_25
REMARK                            x       y       z     vdW  Elec       q    Type
REMARK                         _______ _______ _______ _____ _____    ______ ____
ROOT
ATOM      1  C   UNL     1       2.813   4.686  18.640  0.00  0.00    +0.000 A 
ATOM      2  C   UNL     1       1.701   3.834  18.505  0.00  0.00    +0.000 A 
ATOM      3  C   UNL     1       1.857   2.513  18.106  0.00  0.00    +0.000 A 
ATOM      4  C   UNL     1       3.141   2.077  17.840  0.00  0.00    +0.000 A 
ATOM      5  N   UNL     1       4.243   2.856  17.932  0.00  0.00    +0.000 NA
ATOM      6  C   UNL     1       4.077   4.141  18.350  0.00  0.00    +0.000 A 
ENDROOT
BRANCH   1  12
ATOM      7  C   UNL     1       0.081  10.860  21.514  0.00  0.00    +0.000 C 
ATOM      8  C   UNL     1       0.780   9.959  20.532  0.00  0.00    +0.000 A 
ATOM      9  C   UNL     1       1.149   8.666  20.952  0.00  0.00    +0.000 A 
ATOM     10  C   UNL     1       1.755   7.799  20.037  0.00  0.00    +0.000 A 
ATOM     11  N   UNL     1       2.148   6.497  20.191  0.00  0.00    +0.000 NA
ATOM     12  C   UNL     1       2.530   6.083  18.994  0.00  0.00    +0.000 A 
ATOM     13  N   UNL     1       2.522   7.145  18.120  0.00  0.00    +0.000 N 
ATOM     14  C   UNL     1       1.988   8.234  18.746  0.00  0.00    +0.000 A 
ATOM     15  C   UNL     1       1.677   9.515  18.295  0.00  0.00    +0.000 A 
ATOM     16  C   UNL     1       1.072  10.388  19.218  0.00  0.00    +0.000 A 
ATOM     17  C   UNL     1       0.744  11.788  18.768  0.00  0.00    +0.000 C 
ATOM     18  H   UNL     1       2.771   7.091  17.141  0.00  0.00    +0.000 HD
ENDBRANCH   1  12
BRANCH   6  19
ATOM     19  S   UNL     1       5.618   5.027  18.597  0.00  0.00    +0.000 S 
BRANCH  19  20
ATOM     20  C   UNL     1       5.812   5.885  17.003  0.00  0.00    +0.000 C 
BRANCH  20  21
ATOM     21  C   UNL     1       6.679   5.082  16.053  0.00  0.00    +0.000 C 
ATOM     22  O   UNL     1       7.742   4.582  16.397  0.00  0.00    +0.000 OA
ATOM     23  N   UNL     1       6.153   4.963  14.783  0.00  0.00    +0.000 N 
ATOM     24  H   UNL     1       5.328   5.509  14.550  0.00  0.00    +0.000 HD
BRANCH  23  25
ATOM     25  C   UNL     1       6.841   4.242  13.723  0.00  0.00    +0.000 C 
ATOM     26  C   UNL     1       5.819   3.550  12.828  0.00  0.00    +0.000 C 
ATOM     27  C   UNL     1       7.733   5.168  12.899  0.00  0.00    +0.000 C 
ENDBRANCH  23  25
ENDBRANCH  20  21
ENDBRANCH  19  20
ENDBRANCH   6  19
TORSDOF 5
ENDMDL
MODEL 2
REMARK VINA RESULT:      -7.9      1.074      1.132
REMARK  Name = 
REMARK  9 active torsions:
REMARK  status: ('A' for Active; 'I' for Inactive)
REMARK    1  A    between atoms: C_1  and  C_2
REMARK    2  A    between atoms: C_6  and  C_7
REMARK    3  A    between atoms: C_12  and  S_13
REMARK    4  A    between atoms: S_13  and  C_14
REMARK    5  A    between atoms: C_14  and  C_15
REMARK    6  A    between atoms: N_17  and  C_18
REMARK    7  A    between atoms: C_18  and  C_19
REMARK    8  A    between atoms: C_18  and  C_20
REMARK    9  A    between atoms: C_24  and  C_25
REMARK                            x       y       z     vdW  Elec       q    Type
REMARK                         _______ _______ _______ _____ _____    ______ ____
ROOT
ATOM      1  C   UNL     1       2.711   5.602  18.451  0.00  0.00    +0.000 A 
ATOM      2  C   UNL     1       1.963   4.457  18.785  0.00  0.00    +0.000 A 
ATOM      3  C   UNL     1       2.229   3.231  18.190  0.00  0.00    +0.000 A 
ATOM      4  C   UNL     1       3.246   3.185  17.256  0.00  0.00    +0.000 A 
ATOM      5  N   UNL     1       3.983   4.255  16.881  0.00  0.00    +0.000 NA
ATOM      6  C   UNL     1       3.728   5.445  17.492  0.00  0.00    +0.000 A 
ENDROOT
BRANCH   1  12
ATOM      7  C   UNL     1      -0.451  10.741  22.626  0.00  0.00    +0.000 C 
ATOM      8  C   UNL     1       0.254  10.131  21.444  0.00  0.00    +0.000 A 
ATOM      9  C   UNL     1       0.812   8.846  21.586  0.00  0.00    +0.000 A 
ATOM     10  C   UNL     1       1.428   8.245  20.482  0.00  0.00    +0.000 A 
ATOM     11  N   UNL     1       1.985   7.001  20.359  0.00  0.00    +0.000 NA
ATOM     12  C   UNL     1       2.299   6.862  19.081  0.00  0.00    +0.000 A 
ATOM     13  N   UNL     1       2.081   8.052  18.426  0.00  0.00    +0.000 N 
ATOM     14  C   UNL     1       1.483   8.930  19.282  0.00  0.00    +0.000 A 
ATOM     15  C   UNL     1       0.980  10.217  19.104  0.00  0.00    +0.000 A 
ATOM     16  C   UNL     1       0.366  10.823  20.217  0.00  0.00    +0.000 A 
ATOM     17  C   UNL     1      -0.168  12.223  20.064  0.00  0.00    +0.000 C 
ATOM     18  H   UNL     1       2.241   8.207  17.439  0.00  0.00    +0.000 HD
ENDBRANCH   1  12
BRANCH   6  19
ATOM     19  S   UNL     1       4.874   6.751  17.041  0.00  0.00    +0.000 S 
BRANCH  19  20
ATOM     20  C   UNL     1       6.452   6.088  17.662  0.00  0.00    +0.000 C 
BRANCH  20  21
ATOM     21  C   UNL     1       7.104   5.179  16.637  0.00  0.00    +0.000 C 
ATOM     22  O   UNL     1       7.958   4.357  16.938  0.00  0.00    +0.000 OA
ATOM     23  N   UNL     1       6.636   5.362  15.352  0.00  0.00    +0.000 N 
ATOM     24  H   UNL     1       6.017   6.147  15.172  0.00  0.00    +0.000 HD
BRANCH  23  25
ATOM     25  C   UNL     1       7.146   4.596  14.225  0.00  0.00    +0.000 C 
ATOM     26  C   UNL     1       6.000   3.844  13.558  0.00  0.00    +0.000 C 
ATOM     27  C   UNL     1       7.861   5.489  13.213  0.00  0.00    +0.000 C 
ENDBRANCH  23  25
ENDBRANCH  20  21
ENDBRANCH  19  20
ENDBRANCH   6  19
TORSDOF 5
ENDMDL
MODEL 3
REMARK VINA RESULT:      -7.8      1.022      1.245
REMARK  Name = 
REMARK  9 active torsions:
REMARK  status: ('A' for Active; 'I' for Inactive)
REMARK    1  A    between atoms: C_1  and  C_2
REMARK    2  A    between atoms: C_6  and  C_7
REMARK    3  A    between atoms: C_12  and  S_13
REMARK    4  A    between atoms: S_13  and  C_14
REMARK    5  A    between atoms: C_14  and  C_15
REMARK    6  A    between atoms: N_17  and  C_18
REMARK    7  A    between atoms: C_18  and  C_19
REMARK    8  A    between atoms: C_18  and  C_20
REMARK    9  A    between atoms: C_24  and  C_25
REMARK                            x       y       z     vdW  Elec       q    Type
REMARK                         _______ _______ _______ _____ _____    ______ ____
ROOT
ATOM      1  C   UNL     1       2.838   4.622  18.562  0.00  0.00    +0.000 A 
ATOM      2  C   UNL     1       1.867   3.674  18.935  0.00  0.00    +0.000 A 
ATOM      3  C   UNL     1       2.002   2.337  18.589  0.00  0.00    +0.000 A 
ATOM      4  C   UNL     1       3.119   1.980  17.858  0.00  0.00    +0.000 A 
ATOM      5  N   UNL     1       4.073   2.849  17.454  0.00  0.00    +0.000 NA
ATOM      6  C   UNL     1       3.940   4.153  17.823  0.00  0.00    +0.000 A 
ENDROOT
BRANCH   1  12
ATOM      7  C   UNL     1       0.206  10.805  21.509  0.00  0.00    +0.000 C 
ATOM      8  C   UNL     1       0.859   9.898  20.500  0.00  0.00    +0.000 A 
ATOM      9  C   UNL     1       1.265   8.615  20.915  0.00  0.00    +0.000 A 
ATOM     10  C   UNL     1       1.828   7.742  19.977  0.00  0.00    +0.000 A 
ATOM     11  N   UNL     1       2.242   6.446  20.126  0.00  0.00    +0.000 NA
ATOM     12  C   UNL     1       2.561   6.020  18.914  0.00  0.00    +0.000 A 
ATOM     13  N   UNL     1       2.492   7.070  18.028  0.00  0.00    +0.000 N 
ATOM     14  C   UNL     1       1.982   8.162  18.670  0.00  0.00    +0.000 A 
ATOM     15  C   UNL     1       1.632   9.433  18.221  0.00  0.00    +0.000 A 
ATOM     16  C   UNL     1       1.071  10.313  19.166  0.00  0.00    +0.000 A 
ATOM     17  C   UNL     1       0.703  11.703  18.718  0.00  0.00    +0.000 C 
ATOM     18  H   UNL     1       2.686   7.006  17.037  0.00  0.00    +0.000 HD
ENDBRANCH   1  12
BRANCH   6  19
ATOM     19  S   UNL     1       5.343   5.179  17.379  0.00  0.00    +0.000 S 
BRANCH  19  20
ATOM     20  C   UNL     1       6.269   4.077  16.264  0.00  0.00    +0.000 C 
BRANCH  20  21
ATOM     21  C   UNL     1       6.121   4.511  14.819  0.00  0.00    +0.000 C 
ATOM     22  O   UNL     1       5.890   5.670  14.502  0.00  0.00    +0.000 OA
ATOM     23  N   UNL     1       6.280   3.485  13.909  0.00  0.00    +0.000 N 
ATOM     24  H   UNL     1       6.348   2.535  14.262  0.00  0.00    +0.000 HD
BRANCH  23  25
ATOM     25  C   UNL     1       6.160   3.696  12.475  0.00  0.00    +0.000 C 
ATOM     26  C   UNL     1       7.136   2.783  11.741  0.00  0.00    +0.000 C 
ATOM     27  C   UNL     1       4.733   3.457  11.986  0.00  0.00    +0.000 C 
ENDBRANCH  23  25
ENDBRANCH  20  21
ENDBRANCH  19  20
ENDBRANCH   6  19
TORSDOF 5
ENDMDL
MODEL 4
REMARK VINA RESULT:      -7.8      2.175      4.848
REMARK  Name = 
REMARK  9 active torsions:
REMARK  status: ('A' for Active; 'I' for Inactive)
REMARK    1  A    between atoms: C_1  and  C_2
REMARK    2  A    between atoms: C_6  and  C_7
REMARK    3  A    between atoms: C_12  and  S_13
REMARK    4  A    between atoms: S_13  and  C_14
REMARK    5  A    between atoms: C_14  and  C_15
REMARK    6  A    between atoms: N_17  and  C_18
REMARK    7  A    between atoms: C_18  and  C_19
REMARK    8  A    between atoms: C_18  and  C_20
REMARK    9  A    between atoms: C_24  and  C_25
REMARK                            x       y       z     vdW  Elec       q    Type
REMARK                         _______ _______ _______ _____ _____    ______ ____
ROOT
ATOM      1  C   UNL     1       4.725   6.073  17.388  0.00  0.00    +0.000 A 
ATOM      2  C   UNL     1       5.956   6.753  17.316  0.00  0.00    +0.000 A 
ATOM      3  C   UNL     1       7.109   6.100  16.905  0.00  0.00    +0.000 A 
ATOM      4  C   UNL     1       7.001   4.761  16.579  0.00  0.00    +0.000 A 
ATOM      5  N   UNL     1       5.851   4.053  16.648  0.00  0.00    +0.000 NA
ATOM      6  C   UNL     1       4.722   4.713  17.029  0.00  0.00    +0.000 A 
ENDROOT
BRANCH   1  12
ATOM      7  C   UNL     1      -0.155  11.304  19.023  0.00  0.00    +0.000 C 
ATOM      8  C   UNL     1       0.635  10.029  19.158  0.00  0.00    +0.000 A 
ATOM      9  C   UNL     1       1.363   9.570  18.044  0.00  0.00    +0.000 A 
ATOM     10  C   UNL     1       2.142   8.414  18.168  0.00  0.00    +0.000 A 
ATOM     11  N   UNL     1       2.967   7.811  17.257  0.00  0.00    +0.000 NA
ATOM     12  C   UNL     1       3.583   6.836  17.907  0.00  0.00    +0.000 A 
ATOM     13  N   UNL     1       3.052   6.724  19.171  0.00  0.00    +0.000 N 
ATOM     14  C   UNL     1       2.170   7.744  19.377  0.00  0.00    +0.000 A 
ATOM     15  C   UNL     1       1.438   8.138  20.495  0.00  0.00    +0.000 A 
ATOM     16  C   UNL     1       0.650   9.298  20.367  0.00  0.00    +0.000 A 
ATOM     17  C   UNL     1      -0.172   9.737  21.550  0.00  0.00    +0.000 C 
ATOM     18  H   UNL     1       3.353   6.054  19.868  0.00  0.00    +0.000 HD
ENDBRANCH   1  12
BRANCH   6  19
ATOM     19  S   UNL     1       3.231   3.720  16.922  0.00  0.00    +0.000 S 
BRANCH  19  20
ATOM     20  C   UNL     1       3.730   2.208  17.805  0.00  0.00    +0.000 C 
BRANCH  20  21
ATOM     21  C   UNL     1       3.800   2.447  19.301  0.00  0.00    +0.000 C 
ATOM     22  O   UNL     1       4.813   2.233  19.953  0.00  0.00    +0.000 OA
ATOM     23  N   UNL     1       2.629   2.934  19.844  0.00  0.00    +0.000 N 
ATOM     24  H   UNL     1       1.802   2.968  19.254  0.00  0.00    +0.000 HD
BRANCH  23  25
ATOM     25  C   UNL     1       2.491   3.214  21.264  0.00  0.00    +0.000 C 
ATOM     26  C   UNL     1       2.143   4.686  21.464  0.00  0.00    +0.000 C 
ATOM     27  C   UNL     1       1.435   2.323  21.915  0.00  0.00    +0.000 C 
ENDBRANCH  23  25
ENDBRANCH  20  21
ENDBRANCH  19  20
ENDBRANCH   6  19
TORSDOF 5
ENDMDL
MODEL 5
REMARK VINA RESULT:      -7.6      3.958      8.334
REMARK  Name = 
REMARK  9 active torsions:
REMARK  status: ('A' for Active; 'I' for Inactive)
REMARK    1  A    between atoms: C_1  and  C_2
REMARK    2  A    between atoms: C_6  and  C_7
REMARK    3  A    between atoms: C_12  and  S_13
REMARK    4  A    between atoms: S_13  and  C_14
REMARK    5  A    between atoms: C_14  and  C_15
REMARK    6  A    between atoms: N_17  and  C_18
REMARK    7  A    between atoms: C_18  and  C_19
REMARK    8  A    between atoms: C_18  and  C_20
REMARK    9  A    between atoms: C_24  and  C_25
REMARK                            x       y       z     vdW  Elec       q    Type
REMARK                         _______ _______ _______ _____ _____    ______ ____
ROOT
ATOM      1  C   UNL     1       0.413   9.695  21.106  0.00  0.00    +0.000 A 
ATOM      2  C   UNL     1      -0.220   9.234  22.275  0.00  0.00    +0.000 A 
ATOM      3  C   UNL     1      -0.865  10.115  23.132  0.00  0.00    +0.000 A 
ATOM      4  C   UNL     1      -0.851  11.455  22.797  0.00  0.00    +0.000 A 
ATOM      5  N   UNL     1      -0.241  11.957  21.698  0.00  0.00    +0.000 NA
ATOM      6  C   UNL     1       0.365  11.078  20.853  0.00  0.00    +0.000 A 
ENDROOT
BRANCH   1  12
ATOM      7  C   UNL     1       4.801   4.286  18.796  0.00  0.00    +0.000 C 
ATOM      8  C   UNL     1       3.949   5.525  18.734  0.00  0.00    +0.000 A 
ATOM      9  C   UNL     1       3.098   5.809  19.819  0.00  0.00    +0.000 A 
ATOM     10  C   UNL     1       2.335   6.983  19.798  0.00  0.00    +0.000 A 
ATOM     11  N   UNL     1       1.490   7.495  20.745  0.00  0.00    +0.000 NA
ATOM     12  C   UNL     1       1.130   8.692  20.308  0.00  0.00    +0.000 A 
ATOM     13  N   UNL     1       1.619   8.879  19.036  0.00  0.00    +0.000 N 
ATOM     14  C   UNL     1       2.427   7.829  18.710  0.00  0.00    +0.000 A 
ATOM     15  C   UNL     1       3.224   7.572  17.597  0.00  0.00    +0.000 A 
ATOM     16  C   UNL     1       3.987   6.389  17.616  0.00  0.00    +0.000 A 
ATOM     17  C   UNL     1       4.842   6.069  16.418  0.00  0.00    +0.000 C 
ATOM     18  H   UNL     1       1.485   9.715  18.482  0.00  0.00    +0.000 HD
ENDBRANCH   1  12
BRANCH   6  19
ATOM     19  S   UNL     1       0.991  11.833  19.350  0.00  0.00    +0.000 S 
BRANCH  19  20
ATOM     20  C   UNL     1      -0.527  12.531  18.627  0.00  0.00    +0.000 C 
BRANCH  20  21
ATOM     21  C   UNL     1      -1.363  11.452  17.966  0.00  0.00    +0.000 C 
ATOM     22  O   UNL     1      -0.999  10.286  17.902  0.00  0.00    +0.000 OA
ATOM     23  N   UNL     1      -2.565  11.908  17.462  0.00  0.00    +0.000 N 
ATOM     24  H   UNL     1      -2.733  12.909  17.451  0.00  0.00    +0.000 HD
BRANCH  23  25
ATOM     25  C   UNL     1      -3.501  11.029  16.779  0.00  0.00    +0.000 C 
ATOM     26  C   UNL     1      -4.915  11.584  16.918  0.00  0.00    +0.000 C 
ATOM     27  C   UNL     1      -3.138  10.852  15.307  0.00  0.00    +0.000 C 
ENDBRANCH  23  25
ENDBRANCH  20  21
ENDBRANCH  19  20
ENDBRANCH   6  19
TORSDOF 5
ENDMDL
MODEL 6
REMARK VINA RESULT:      -7.6      1.163      1.831
REMARK  Name = 
REMARK  9 active torsions:
REMARK  status: ('A' for Active; 'I' for Inactive)
REMARK    1  A    between atoms: C_1  and  C_2
REMARK    2  A    between atoms: C_6  and  C_7
REMARK    3  A    between atoms: C_12  and  S_13
REMARK    4  A    between atoms: S_13  and  C_14
REMARK    5  A    between atoms: C_14  and  C_15
REMARK    6  A    between atoms: N_17  and  C_18
REMARK    7  A    between atoms: C_18  and  C_19
REMARK    8  A    between atoms: C_18  and  C_20
REMARK    9  A    between atoms: C_24  and  C_25
REMARK                            x       y       z     vdW  Elec       q    Type
REMARK                         _______ _______ _______ _____ _____    ______ ____
ROOT
ATOM      1  C   UNL     1       3.155   4.910  19.924  0.00  0.00    +0.000 A 
ATOM      2  C   UNL     1       2.551   3.889  20.682  0.00  0.00    +0.000 A 
ATOM      3  C   UNL     1       3.106   2.619  20.742  0.00  0.00    +0.000 A 
ATOM      4  C   UNL     1       4.265   2.397  20.023  0.00  0.00    +0.000 A 
ATOM      5  N   UNL     1       4.878   3.332  19.262  0.00  0.00    +0.000 NA
ATOM      6  C   UNL     1       4.336   4.581  19.233  0.00  0.00    +0.000 A 
ENDROOT
BRANCH   1  12
ATOM      7  C   UNL     1       1.046  11.790  18.486  0.00  0.00    +0.000 C 
ATOM      8  C   UNL     1       1.170  10.485  19.228  0.00  0.00    +0.000 A 
ATOM      9  C   UNL     1       1.685   9.369  18.541  0.00  0.00    +0.000 A 
ATOM     10  C   UNL     1       1.852   8.163  19.230  0.00  0.00    +0.000 A 
ATOM     11  N   UNL     1       2.377   6.973  18.800  0.00  0.00    +0.000 NA
ATOM     12  C   UNL     1       2.446   6.194  19.868  0.00  0.00    +0.000 A 
ATOM     13  N   UNL     1       1.839   6.822  20.931  0.00  0.00    +0.000 N 
ATOM     14  C   UNL     1       1.498   8.091  20.564  0.00  0.00    +0.000 A 
ATOM     15  C   UNL     1       0.949   9.156  21.275  0.00  0.00    +0.000 A 
ATOM     16  C   UNL     1       0.776  10.367  20.580  0.00  0.00    +0.000 A 
ATOM     17  C   UNL     1       0.163  11.531  21.314  0.00  0.00    +0.000 C 
ATOM     18  H   UNL     1       1.762   6.436  21.863  0.00  0.00    +0.000 HD
ENDBRANCH   1  12
BRANCH   6  19
ATOM     19  S   UNL     1       5.322   5.779  18.332  0.00  0.00    +0.000 S 
BRANCH  19  20
ATOM     20  C   UNL     1       4.801   5.470  16.615  0.00  0.00    +0.000 C 
BRANCH  20  21
ATOM     21  C   UNL     1       5.880   4.739  15.839  0.00  0.00    +0.000 C 
ATOM     22  O   UNL     1       6.853   4.236  16.383  0.00  0.00    +0.000 OA
ATOM     23  N   UNL     1       5.651   4.689  14.479  0.00  0.00    +0.000 N 
ATOM     24  H   UNL     1       4.884   5.235  14.099  0.00  0.00    +0.000 HD
BRANCH  23  25
ATOM     25  C   UNL     1       6.578   4.044  13.561  0.00  0.00    +0.000 C 
ATOM     26  C   UNL     1       5.798   3.363  12.442  0.00  0.00    +0.000 C 
ATOM     27  C   UNL     1       7.583   5.038  12.984  0.00  0.00    +0.000 C 
ENDBRANCH  23  25
ENDBRANCH  20  21
ENDBRANCH  19  20
ENDBRANCH   6  19
TORSDOF 5
ENDMDL
MODEL 7
REMARK VINA RESULT:      -7.5      2.209      5.983
REMARK  Name = 
REMARK  9 active torsions:
REMARK  status: ('A' for Active; 'I' for Inactive)
REMARK    1  A    between atoms: C_1  and  C_2
REMARK    2  A    between atoms: C_6  and  C_7
REMARK    3  A    between atoms: C_12  and  S_13
REMARK    4  A    between atoms: S_13  and  C_14
REMARK    5  A    between atoms: C_14  and  C_15
REMARK    6  A    between atoms: N_17  and  C_18
REMARK    7  A    between atoms: C_18  and  C_19
REMARK    8  A    between atoms: C_18  and  C_20
REMARK    9  A    between atoms: C_24  and  C_25
REMARK                            x       y       z     vdW  Elec       q    Type
REMARK                         _______ _______ _______ _____ _____    ______ ____
ROOT
ATOM      1  C   UNL     1       5.927   4.113  15.515  0.00  0.00    +0.000 A 
ATOM      2  C   UNL     1       5.747   3.587  14.222  0.00  0.00    +0.000 A 
ATOM      3  C   UNL     1       6.548   3.997  13.166  0.00  0.00    +0.000 A 
ATOM      4  C   UNL     1       7.517   4.945  13.434  0.00  0.00    +0.000 A 
ATOM      5  N   UNL     1       7.722   5.499  14.650  0.00  0.00    +0.000 NA
ATOM      6  C   UNL     1       6.946   5.068  15.683  0.00  0.00    +0.000 A 
ENDROOT
BRANCH   1  12
ATOM      7  C   UNL     1       0.079   3.211  19.856  0.00  0.00    +0.000 C 
ATOM      8  C   UNL     1       1.518   3.178  19.414  0.00  0.00    +0.000 A 
ATOM      9  C   UNL     1       1.806   3.366  18.049  0.00  0.00    +0.000 A 
ATOM     10  C   UNL     1       3.141   3.387  17.630  0.00  0.00    +0.000 A 
ATOM     11  N   UNL     1       3.665   3.605  16.385  0.00  0.00    +0.000 NA
ATOM     12  C   UNL     1       4.978   3.667  16.543  0.00  0.00    +0.000 A 
ATOM     13  N   UNL     1       5.296   3.348  17.843  0.00  0.00    +0.000 N 
ATOM     14  C   UNL     1       4.145   3.214  18.564  0.00  0.00    +0.000 A 
ATOM     15  C   UNL     1       3.909   2.987  19.918  0.00  0.00    +0.000 A 
ATOM     16  C   UNL     1       2.565   2.960  20.337  0.00  0.00    +0.000 A 
ATOM     17  C   UNL     1       2.276   2.694  21.791  0.00  0.00    +0.000 C 
ATOM     18  H   UNL     1       6.234   3.326  18.221  0.00  0.00    +0.000 HD
ENDBRANCH   1  12
BRANCH   6  19
ATOM     19  S   UNL     1       7.417   5.745  17.276  0.00  0.00    +0.000 S 
BRANCH  19  20
ATOM     20  C   UNL     1       6.585   7.365  17.250  0.00  0.00    +0.000 C 
BRANCH  20  21
ATOM     21  C   UNL     1       5.091   7.208  17.040  0.00  0.00    +0.000 C 
ATOM     22  O   UNL     1       4.591   7.107  15.929  0.00  0.00    +0.000 OA
ATOM     23  N   UNL     1       4.363   7.180  18.213  0.00  0.00    +0.000 N 
ATOM     24  H   UNL     1       4.843   7.392  19.083  0.00  0.00    +0.000 HD
BRANCH  23  25
ATOM     25  C   UNL     1       2.915   7.051  18.223  0.00  0.00    +0.000 C 
ATOM     26  C   UNL     1       2.450   6.617  19.609  0.00  0.00    +0.000 C 
ATOM     27  C   UNL     1       2.229   8.352  17.812  0.00  0.00    +0.000 C 
ENDBRANCH  23  25
ENDBRANCH  20  21
ENDBRANCH  19  20
ENDBRANCH   6  19
TORSDOF 5
ENDMDL
MODEL 8
REMARK VINA RESULT:      -7.4      1.225      1.893
REMARK  Name = 
REMARK  9 active torsions:
REMARK  status: ('A' for Active; 'I' for Inactive)
REMARK    1  A    between atoms: C_1  and  C_2
REMARK    2  A    between atoms: C_6  and  C_7
REMARK    3  A    between atoms: C_12  and  S_13
REMARK    4  A    between atoms: S_13  and  C_14
REMARK    5  A    between atoms: C_14  and  C_15
REMARK    6  A    between atoms: N_17  and  C_18
REMARK    7  A    between atoms: C_18  and  C_19
REMARK    8  A    between atoms: C_18  and  C_20
REMARK    9  A    between atoms: C_24  and  C_25
REMARK                            x       y       z     vdW  Elec       q    Type
REMARK                         _______ _______ _______ _____ _____    ______ ____
ROOT
ATOM      1  C   UNL     1       3.112   5.572  19.439  0.00  0.00    +0.000 A 
ATOM      2  C   UNL     1       2.761   4.552  20.343  0.00  0.00    +0.000 A 
ATOM      3  C   UNL     1       3.373   3.307  20.288  0.00  0.00    +0.000 A 
ATOM      4  C   UNL     1       4.328   3.111  19.309  0.00  0.00    +0.000 A 
ATOM      5  N   UNL     1       4.691   4.047  18.402  0.00  0.00    +0.000 NA
ATOM      6  C   UNL     1       4.101   5.271  18.484  0.00  0.00    +0.000 A 
ENDROOT
BRANCH   1  12
ATOM      7  C   UNL     1       0.672  12.458  18.750  0.00  0.00    +0.000 C 
ATOM      8  C   UNL     1       0.880  11.097  19.359  0.00  0.00    +0.000 A 
ATOM      9  C   UNL     1       1.406  10.073  18.548  0.00  0.00    +0.000 A 
ATOM     10  C   UNL     1       1.652   8.816  19.112  0.00  0.00    +0.000 A 
ATOM     11  N   UNL     1       2.202   7.696  18.550  0.00  0.00    +0.000 NA
ATOM     12  C   UNL     1       2.351   6.824  19.535  0.00  0.00    +0.000 A 
ATOM     13  N   UNL     1       1.771   7.324  20.678  0.00  0.00    +0.000 N 
ATOM     14  C   UNL     1       1.364   8.606  20.448  0.00  0.00    +0.000 A 
ATOM     15  C   UNL     1       0.807   9.575  21.279  0.00  0.00    +0.000 A 
ATOM     16  C   UNL     1       0.555  10.838  20.709  0.00  0.00    +0.000 A 
ATOM     17  C   UNL     1      -0.068  11.901  21.575  0.00  0.00    +0.000 C 
ATOM     18  H   UNL     1       1.752   6.850  21.572  0.00  0.00    +0.000 HD
ENDBRANCH   1  12
BRANCH   6  19
ATOM     19  S   UNL     1       4.778   6.480  17.344  0.00  0.00    +0.000 S 
BRANCH  19  20
ATOM     20  C   UNL     1       6.568   6.257  17.589  0.00  0.00    +0.000 C 
BRANCH  20  21
ATOM     21  C   UNL     1       7.139   5.277  16.582  0.00  0.00    +0.000 C 
ATOM     22  O   UNL     1       7.982   4.443  16.884  0.00  0.00    +0.000 OA
ATOM     23  N   UNL     1       6.612   5.410  15.314  0.00  0.00    +0.000 N 
ATOM     24  H   UNL     1       6.009   6.205  15.123  0.00  0.00    +0.000 HD
BRANCH  23  25
ATOM     25  C   UNL     1       7.042   4.572  14.205  0.00  0.00    +0.000 C 
ATOM     26  C   UNL     1       5.832   3.869  13.598  0.00  0.00    +0.000 C 
ATOM     27  C   UNL     1       7.781   5.379  13.140  0.00  0.00    +0.000 C 
ENDBRANCH  23  25
ENDBRANCH  20  21
ENDBRANCH  19  20
ENDBRANCH   6  19
TORSDOF 5
ENDMDL
MODEL 9
REMARK VINA RESULT:      -7.3      1.220      1.335
REMARK  Name = 
REMARK  9 active torsions:
REMARK  status: ('A' for Active; 'I' for Inactive)
REMARK    1  A    between atoms: C_1  and  C_2
REMARK    2  A    between atoms: C_6  and  C_7
REMARK    3  A    between atoms: C_12  and  S_13
REMARK    4  A    between atoms: S_13  and  C_14
REMARK    5  A    between atoms: C_14  and  C_15
REMARK    6  A    between atoms: N_17  and  C_18
REMARK    7  A    between atoms: C_18  and  C_19
REMARK    8  A    between atoms: C_18  and  C_20
REMARK    9  A    between atoms: C_24  and  C_25
REMARK                            x       y       z     vdW  Elec       q    Type
REMARK                         _______ _______ _______ _____ _____    ______ ____
ROOT
ATOM      1  C   UNL     1       2.836   5.590  19.718  0.00  0.00    +0.000 A 
ATOM      2  C   UNL     1       2.339   4.658  20.649  0.00  0.00    +0.000 A 
ATOM      3  C   UNL     1       2.720   3.325  20.597  0.00  0.00    +0.000 A 
ATOM      4  C   UNL     1       3.595   2.951  19.595  0.00  0.00    +0.000 A 
ATOM      5  N   UNL     1       4.088   3.798  18.662  0.00  0.00    +0.000 NA
ATOM      6  C   UNL     1       3.725   5.108  18.740  0.00  0.00    +0.000 A 
ENDROOT
BRANCH   1  12
ATOM      7  C   UNL     1      -1.065  11.592  21.333  0.00  0.00    +0.000 C 
ATOM      8  C   UNL     1      -0.148  10.679  20.564  0.00  0.00    +0.000 A 
ATOM      9  C   UNL     1       0.374   9.546  21.218  0.00  0.00    +0.000 A 
ATOM     10  C   UNL     1       1.188   8.661  20.502  0.00  0.00    +0.000 A 
ATOM     11  N   UNL     1       1.760   7.482  20.898  0.00  0.00    +0.000 NA
ATOM     12  C   UNL     1       2.311   6.958  19.814  0.00  0.00    +0.000 A 
ATOM     13  N   UNL     1       2.221   7.857  18.777  0.00  0.00    +0.000 N 
ATOM     14  C   UNL     1       1.471   8.925  19.175  0.00  0.00    +0.000 A 
ATOM     15  C   UNL     1       1.011  10.052  18.497  0.00  0.00    +0.000 A 
ATOM     16  C   UNL     1       0.196  10.944  19.219  0.00  0.00    +0.000 A 
ATOM     17  C   UNL     1      -0.299  12.183  18.522  0.00  0.00    +0.000 C 
ATOM     18  H   UNL     1       2.566   7.695  17.839  0.00  0.00    +0.000 HD
ENDBRANCH   1  12
BRANCH   6  19
ATOM     19  S   UNL     1       4.568   6.165  17.560  0.00  0.00    +0.000 S 
BRANCH  19  20
ATOM     20  C   UNL     1       6.316   5.823  17.939  0.00  0.00    +0.000 C 
BRANCH  20  21
ATOM     21  C   UNL     1       6.966   5.012  16.834  0.00  0.00    +0.000 C 
ATOM     22  O   UNL     1       7.997   4.377  17.006  0.00  0.00    +0.000 OA
ATOM     23  N   UNL     1       6.282   5.054  15.636  0.00  0.00    +0.000 N 
ATOM     24  H   UNL     1       5.505   5.702  15.548  0.00  0.00    +0.000 HD
BRANCH  23  25
ATOM     25  C   UNL     1       6.752   4.354  14.451  0.00  0.00    +0.000 C 
ATOM     26  C   UNL     1       5.558   3.852  13.647  0.00  0.00    +0.000 C 
ATOM     27  C   UNL     1       7.643   5.243  13.586  0.00  0.00    +0.000 C 
ENDBRANCH  23  25
ENDBRANCH  20  21
ENDBRANCH  19  20
ENDBRANCH   6  19
TORSDOF 5
ENDMDL
