MODEL 1
REMARK VINA RESULT:      -6.9      0.000      0.000
REMARK  Name = 
REMARK  5 active torsions:
REMARK  status: ('A' for Active; 'I' for Inactive)
REMARK    1  A    between atoms: C_1  and  C_2
REMARK    2  A    between atoms: C_6  and  C_7
REMARK    3  A    between atoms: C_7  and  C_8
REMARK    4  A    between atoms: C_7  and  N_13
REMARK    5  A    between atoms: C_20  and  O_21
REMARK                            x       y       z     vdW  Elec       q    Type
REMARK                         _______ _______ _______ _____ _____    ______ ____
ROOT
ATOM      1  C   UNL     1       3.285   5.795  19.525  0.00  0.00    +0.000 C 
ENDROOT
BRANCH   1   7
ATOM      2  C   UNL     1       7.228   4.787  13.594  0.00  0.00    +0.000 C 
ATOM      3  C   UNL     1       6.531   4.888  14.893  0.00  0.00    +0.000 A 
ATOM      4  N   UNL     1       7.078   5.571  15.950  0.00  0.00    +0.000 NA
ATOM      5  C   UNL     1       6.148   5.432  16.847  0.00  0.00    +0.000 A 
ATOM      6  S   UNL     1       5.906   6.036  18.444  0.00  0.00    +0.000 S 
ATOM      7  C   UNL     1       4.236   5.357  18.415  0.00  0.00    +0.000 A 
ATOM      8  C   UNL     1       3.994   4.662  17.277  0.00  0.00    +0.000 A 
ATOM      9  N   UNL     1       5.072   4.724  16.386  0.00  0.00    +0.000 N 
ATOM     10  N   UNL     1       5.319   4.340  15.111  0.00  0.00    +0.000 NA
BRANCH   8  11
ATOM     11  O   UNL     1       2.813   4.047  16.931  0.00  0.00    +0.000 OA
ATOM     12  H   UNL     1       2.134   4.734  16.805  0.00  0.00    +0.000 HD
ENDBRANCH   8  11
ENDBRANCH   1   7
BRANCH   1  13
ATOM     13  N   UNL     1       2.335   6.907  19.182  0.00  0.00    +0.000 NA
ATOM     14  C   UNL     1       2.139   7.791  20.353  0.00  0.00    +0.000 C 
ATOM     15  C   UNL     1       0.747   8.431  20.348  0.00  0.00    +0.000 C 
ATOM     16  C   UNL     1       0.620   9.681  19.491  0.00  0.00    +0.000 C 
ATOM     17  C   UNL     1       0.961   9.474  18.023  0.00  0.00    +0.000 C 
ATOM     18  C   UNL     1       2.428   9.136  17.814  0.00  0.00    +0.000 C 
ATOM     19  C   UNL     1       2.780   7.653  17.985  0.00  0.00    +0.000 C 
ENDBRANCH   1  13
BRANCH   1  20
ATOM     20  C   UNL     1       2.514   4.595  20.080  0.00  0.00    +0.000 A 
ATOM     21  C   UNL     1       1.178   4.188  19.719  0.00  0.00    +0.000 A 
ATOM     22  C   UNL     1       0.718   3.127  20.468  0.00  0.00    +0.000 A 
ATOM     23  S   UNL     1       1.891   2.569  21.572  0.00  0.00    +0.000 S 
ATOM     24  C   UNL     1       3.007   3.764  21.075  0.00  0.00    +0.000 A 
ENDBRANCH   1  20
TORSDOF 4
ENDMDL
MODEL 2
REMARK VINA RESULT:      -6.9      2.165      6.017
REMARK  Name = 
REMARK  5 active torsions:
REMARK  status: ('A' for Active; 'I' for Inactive)
REMARK    1  A    between atoms: C_1  and  C_2
REMARK    2  A    between atoms: C_6  and  C_7
REMARK    3  A    between atoms: C_7  and  C_8
REMARK    4  A    between atoms: C_7  and  N_13
REMARK    5  A    between atoms: C_20  and  O_21
REMARK                            x       y       z     vdW  Elec       q    Type
REMARK                         _______ _______ _______ _____ _____    ______ ____
ROOT
ATOM      1  C   UNL     1       2.978   5.596  17.875  0.00  0.00    +0.000 C 
ENDROOT
BRANCH   1   7
ATOM      2  C   UNL     1      -0.334  10.747  21.649  0.00  0.00    +0.000 C 
ATOM      3  C   UNL     1       0.483   9.714  20.979  0.00  0.00    +0.000 A 
ATOM      4  N   UNL     1       0.775   8.520  21.591  0.00  0.00    +0.000 NA
ATOM      5  C   UNL     1       1.466   7.926  20.665  0.00  0.00    +0.000 A 
ATOM      6  S   UNL     1       2.160   6.356  20.492  0.00  0.00    +0.000 S 
ATOM      7  C   UNL     1       2.543   6.750  18.775  0.00  0.00    +0.000 A 
ATOM      8  C   UNL     1       2.216   8.027  18.464  0.00  0.00    +0.000 A 
ATOM      9  N   UNL     1       1.591   8.682  19.532  0.00  0.00    +0.000 N 
ATOM     10  N   UNL     1       0.969   9.868  19.732  0.00  0.00    +0.000 NA
BRANCH   8  11
ATOM     11  O   UNL     1       2.351   8.629  17.235  0.00  0.00    +0.000 OA
ATOM     12  H   UNL     1       2.891   9.432  17.344  0.00  0.00    +0.000 HD
ENDBRANCH   8  11
ENDBRANCH   1   7
BRANCH   1  13
ATOM     13  N   UNL     1       4.456   5.444  17.661  0.00  0.00    +0.000 NA
ATOM     14  C   UNL     1       4.725   4.914  16.305  0.00  0.00    +0.000 C 
ATOM     15  C   UNL     1       6.010   4.083  16.270  0.00  0.00    +0.000 C 
ATOM     16  C   UNL     1       7.291   4.889  16.116  0.00  0.00    +0.000 C 
ATOM     17  C   UNL     1       7.522   5.919  17.211  0.00  0.00    +0.000 C 
ATOM     18  C   UNL     1       6.483   7.029  17.185  0.00  0.00    +0.000 C 
ATOM     19  C   UNL     1       5.177   6.709  17.921  0.00  0.00    +0.000 C 
ENDBRANCH   1  13
BRANCH   1  20
ATOM     20  C   UNL     1       2.377   4.275  18.364  0.00  0.00    +0.000 A 
ATOM     21  C   UNL     1       1.056   3.772  18.080  0.00  0.00    +0.000 A 
ATOM     22  C   UNL     1       0.770   2.602  18.749  0.00  0.00    +0.000 A 
ATOM     23  S   UNL     1       2.090   2.061  19.681  0.00  0.00    +0.000 S 
ATOM     24  C   UNL     1       3.039   3.405  19.218  0.00  0.00    +0.000 A 
ENDBRANCH   1  20
TORSDOF 4
ENDMDL
MODEL 3
REMARK VINA RESULT:      -6.8      2.264      6.104
REMARK  Name = 
REMARK  5 active torsions:
REMARK  status: ('A' for Active; 'I' for Inactive)
REMARK    1  A    between atoms: C_1  and  C_2
REMARK    2  A    between atoms: C_6  and  C_7
REMARK    3  A    between atoms: C_7  and  C_8
REMARK    4  A    between atoms: C_7  and  N_13
REMARK    5  A    between atoms: C_20  and  O_21
REMARK                            x       y       z     vdW  Elec       q    Type
REMARK                         _______ _______ _______ _____ _____    ______ ____
ROOT
ATOM      1  C   UNL     1       2.996   5.668  17.865  0.00  0.00    +0.000 C 
ENDROOT
BRANCH   1   7
ATOM      2  C   UNL     1      -0.332  10.772  21.688  0.00  0.00    +0.000 C 
ATOM      3  C   UNL     1       0.487   9.745  21.011  0.00  0.00    +0.000 A 
ATOM      4  N   UNL     1       0.752   8.534  21.601  0.00  0.00    +0.000 NA
ATOM      5  C   UNL     1       1.455   7.952  20.676  0.00  0.00    +0.000 A 
ATOM      6  S   UNL     1       2.134   6.379  20.481  0.00  0.00    +0.000 S 
ATOM      7  C   UNL     1       2.557   6.806  18.782  0.00  0.00    +0.000 A 
ATOM      8  C   UNL     1       2.252   8.094  18.494  0.00  0.00    +0.000 A 
ATOM      9  N   UNL     1       1.612   8.732  19.563  0.00  0.00    +0.000 N 
ATOM     10  N   UNL     1       1.001   9.921  19.778  0.00  0.00    +0.000 NA
BRANCH   8  11
ATOM     11  O   UNL     1       2.420   8.723  17.282  0.00  0.00    +0.000 OA
ATOM     12  H   UNL     1       3.012   8.178  16.733  0.00  0.00    +0.000 HD
ENDBRANCH   8  11
ENDBRANCH   1   7
BRANCH   1  13
ATOM     13  N   UNL     1       4.467   5.584  17.571  0.00  0.00    +0.000 NA
ATOM     14  C   UNL     1       5.200   5.102  18.763  0.00  0.00    +0.000 C 
ATOM     15  C   UNL     1       6.625   5.661  18.811  0.00  0.00    +0.000 C 
ATOM     16  C   UNL     1       7.643   4.894  17.981  0.00  0.00    +0.000 C 
ATOM     17  C   UNL     1       7.308   4.806  16.499  0.00  0.00    +0.000 C 
ATOM     18  C   UNL     1       6.054   3.985  16.241  0.00  0.00    +0.000 C 
ATOM     19  C   UNL     1       4.737   4.758  16.375  0.00  0.00    +0.000 C 
ENDBRANCH   1  13
BRANCH   1  20
ATOM     20  C   UNL     1       2.487   4.324  18.391  0.00  0.00    +0.000 A 
ATOM     21  C   UNL     1       3.238   3.354  19.149  0.00  0.00    +0.000 A 
ATOM     22  C   UNL     1       2.534   2.195  19.389  0.00  0.00    +0.000 A 
ATOM     23  S   UNL     1       0.950   2.269  18.762  0.00  0.00    +0.000 S 
ATOM     24  C   UNL     1       1.212   3.839  18.140  0.00  0.00    +0.000 A 
ENDBRANCH   1  20
TORSDOF 4
ENDMDL
MODEL 4
REMARK VINA RESULT:      -6.7      1.208      1.823
REMARK  Name = 
REMARK  5 active torsions:
REMARK  status: ('A' for Active; 'I' for Inactive)
REMARK    1  A    between atoms: C_1  and  C_2
REMARK    2  A    between atoms: C_6  and  C_7
REMARK    3  A    between atoms: C_7  and  C_8
REMARK    4  A    between atoms: C_7  and  N_13
REMARK    5  A    between atoms: C_20  and  O_21
REMARK                            x       y       z     vdW  Elec       q    Type
REMARK                         _______ _______ _______ _____ _____    ______ ____
ROOT
ATOM      1  C   UNL     1       3.465   5.817  19.492  0.00  0.00    +0.000 C 
ENDROOT
BRANCH   1   7
ATOM      2  C   UNL     1       6.609   3.922  13.306  0.00  0.00    +0.000 C 
ATOM      3  C   UNL     1       6.109   4.400  14.612  0.00  0.00    +0.000 A 
ATOM      4  N   UNL     1       5.768   5.715  14.813  0.00  0.00    +0.000 NA
ATOM      5  C   UNL     1       5.368   5.684  16.048  0.00  0.00    +0.000 A 
ATOM      6  S   UNL     1       4.663   6.836  17.121  0.00  0.00    +0.000 S 
ATOM      7  C   UNL     1       4.377   5.509  18.308  0.00  0.00    +0.000 A 
ATOM      8  C   UNL     1       4.889   4.330  17.880  0.00  0.00    +0.000 A 
ATOM      9  N   UNL     1       5.432   4.431  16.594  0.00  0.00    +0.000 N 
ATOM     10  N   UNL     1       5.938   3.582  15.668  0.00  0.00    +0.000 NA
BRANCH   8  11
ATOM     11  O   UNL     1       4.814   3.122  18.532  0.00  0.00    +0.000 OA
ATOM     12  H   UNL     1       4.376   2.481  17.944  0.00  0.00    +0.000 HD
ENDBRANCH   8  11
ENDBRANCH   1   7
BRANCH   1  13
ATOM     13  N   UNL     1       2.786   7.157  19.474  0.00  0.00    +0.000 NA
ATOM     14  C   UNL     1       1.943   7.287  18.265  0.00  0.00    +0.000 C 
ATOM     15  C   UNL     1       1.836   8.745  17.809  0.00  0.00    +0.000 C 
ATOM     16  C   UNL     1       0.777   9.566  18.531  0.00  0.00    +0.000 C 
ATOM     17  C   UNL     1       0.961   9.641  20.040  0.00  0.00    +0.000 C 
ATOM     18  C   UNL     1       0.776   8.288  20.709  0.00  0.00    +0.000 C 
ATOM     19  C   UNL     1       2.023   7.397  20.718  0.00  0.00    +0.000 C 
ENDBRANCH   1  13
BRANCH   1  20
ATOM     20  C   UNL     1       2.431   4.704  19.680  0.00  0.00    +0.000 A 
ATOM     21  C   UNL     1       2.147   3.987  20.899  0.00  0.00    +0.000 A 
ATOM     22  C   UNL     1       1.235   2.970  20.726  0.00  0.00    +0.000 A 
ATOM     23  S   UNL     1       0.664   2.891  19.122  0.00  0.00    +0.000 S 
ATOM     24  C   UNL     1       1.659   4.196  18.645  0.00  0.00    +0.000 A 
ENDBRANCH   1  20
TORSDOF 4
ENDMDL
MODEL 5
REMARK VINA RESULT:      -6.7      1.969      5.737
REMARK  Name = 
REMARK  5 active torsions:
REMARK  status: ('A' for Active; 'I' for Inactive)
REMARK    1  A    between atoms: C_1  and  C_2
REMARK    2  A    between atoms: C_6  and  C_7
REMARK    3  A    between atoms: C_7  and  C_8
REMARK    4  A    between atoms: C_7  and  N_13
REMARK    5  A    between atoms: C_20  and  O_21
REMARK                            x       y       z     vdW  Elec       q    Type
REMARK                         _______ _______ _______ _____ _____    ______ ____
ROOT
ATOM      1  C   UNL     1       2.955   5.165  18.351  0.00  0.00    +0.000 C 
ENDROOT
BRANCH   1   7
ATOM      2  C   UNL     1       0.245  11.681  19.740  0.00  0.00    +0.000 C 
ATOM      3  C   UNL     1       0.925  10.380  19.571  0.00  0.00    +0.000 A 
ATOM      4  N   UNL     1       0.891   9.420  20.552  0.00  0.00    +0.000 NA
ATOM      5  C   UNL     1       1.570   8.464  19.991  0.00  0.00    +0.000 A 
ATOM      6  S   UNL     1       1.958   6.841  20.423  0.00  0.00    +0.000 S 
ATOM      7  C   UNL     1       2.639   6.597  18.771  0.00  0.00    +0.000 A 
ATOM      8  C   UNL     1       2.615   7.739  18.042  0.00  0.00    +0.000 A 
ATOM      9  N   UNL     1       1.993   8.787  18.730  0.00  0.00    +0.000 N 
ATOM     10  N   UNL     1       1.596  10.051  18.450  0.00  0.00    +0.000 NA
BRANCH   8  11
ATOM     11  O   UNL     1       3.031   7.885  16.739  0.00  0.00    +0.000 OA
ATOM     12  H   UNL     1       2.572   7.221  16.194  0.00  0.00    +0.000 HD
ENDBRANCH   8  11
ENDBRANCH   1   7
BRANCH   1  13
ATOM     13  N   UNL     1       4.394   4.868  18.039  0.00  0.00    +0.000 NA
ATOM     14  C   UNL     1       4.621   4.917  16.577  0.00  0.00    +0.000 C 
ATOM     15  C   UNL     1       5.748   3.971  16.151  0.00  0.00    +0.000 C 
ATOM     16  C   UNL     1       7.152   4.538  16.301  0.00  0.00    +0.000 C 
ATOM     17  C   UNL     1       7.511   4.959  17.719  0.00  0.00    +0.000 C 
ATOM     18  C   UNL     1       6.677   6.137  18.197  0.00  0.00    +0.000 C 
ATOM     19  C   UNL     1       5.307   5.765  18.779  0.00  0.00    +0.000 C 
ENDBRANCH   1  13
BRANCH   1  20
ATOM     20  C   UNL     1       2.424   4.170  19.385  0.00  0.00    +0.000 A 
ATOM     21  C   UNL     1       1.056   3.742  19.547  0.00  0.00    +0.000 A 
ATOM     22  C   UNL     1       0.874   2.917  20.634  0.00  0.00    +0.000 A 
ATOM     23  S   UNL     1       2.339   2.598  21.445  0.00  0.00    +0.000 S 
ATOM     24  C   UNL     1       3.217   3.587  20.363  0.00  0.00    +0.000 A 
ENDBRANCH   1  20
TORSDOF 4
ENDMDL
MODEL 6
REMARK VINA RESULT:      -6.5      2.462      6.158
REMARK  Name = 
REMARK  5 active torsions:
REMARK  status: ('A' for Active; 'I' for Inactive)
REMARK    1  A    between atoms: C_1  and  C_2
REMARK    2  A    between atoms: C_6  and  C_7
REMARK    3  A    between atoms: C_7  and  C_8
REMARK    4  A    between atoms: C_7  and  N_13
REMARK    5  A    between atoms: C_20  and  O_21
REMARK                            x       y       z     vdW  Elec       q    Type
REMARK                         _______ _______ _______ _____ _____    ______ ____
ROOT
ATOM      1  C   UNL     1       2.753   6.360  18.450  0.00  0.00    +0.000 C 
ENDROOT
BRANCH   1   7
ATOM      2  C   UNL     1      -1.191  11.898  20.801  0.00  0.00    +0.000 C 
ATOM      3  C   UNL     1      -0.261  10.809  20.435  0.00  0.00    +0.000 A 
ATOM      4  N   UNL     1      -0.029   9.749  21.276  0.00  0.00    +0.000 NA
ATOM      5  C   UNL     1       0.801   9.044  20.569  0.00  0.00    +0.000 A 
ATOM      6  S   UNL     1       1.552   7.503  20.763  0.00  0.00    +0.000 S 
ATOM      7  C   UNL     1       2.166   7.625  19.072  0.00  0.00    +0.000 A 
ATOM      8  C   UNL     1       1.854   8.815  18.506  0.00  0.00    +0.000 A 
ATOM      9  N   UNL     1       1.067   9.607  19.350  0.00  0.00    +0.000 N 
ATOM     10  N   UNL     1       0.394  10.778  19.258  0.00  0.00    +0.000 NA
BRANCH   8  11
ATOM     11  O   UNL     1       2.148   9.212  17.222  0.00  0.00    +0.000 OA
ATOM     12  H   UNL     1       2.879   8.660  16.889  0.00  0.00    +0.000 HD
ENDBRANCH   8  11
ENDBRANCH   1   7
BRANCH   1  13
ATOM     13  N   UNL     1       4.244   6.339  18.276  0.00  0.00    +0.000 NA
ATOM     14  C   UNL     1       4.789   5.025  18.687  0.00  0.00    +0.000 C 
ATOM     15  C   UNL     1       6.217   5.152  19.223  0.00  0.00    +0.000 C 
ATOM     16  C   UNL     1       7.303   5.172  18.158  0.00  0.00    +0.000 C 
ATOM     17  C   UNL     1       7.166   6.297  17.143  0.00  0.00    +0.000 C 
ATOM     18  C   UNL     1       5.924   6.145  16.279  0.00  0.00    +0.000 C 
ATOM     19  C   UNL     1       4.636   6.702  16.897  0.00  0.00    +0.000 C 
ENDBRANCH   1  13
BRANCH   1  20
ATOM     20  C   UNL     1       2.294   5.119  19.219  0.00  0.00    +0.000 A 
ATOM     21  C   UNL     1       1.438   4.067  18.726  0.00  0.00    +0.000 A 
ATOM     22  C   UNL     1       1.120   3.136  19.689  0.00  0.00    +0.000 A 
ATOM     23  S   UNL     1       1.879   3.472  21.178  0.00  0.00    +0.000 S 
ATOM     24  C   UNL     1       2.612   4.882  20.548  0.00  0.00    +0.000 A 
ENDBRANCH   1  20
TORSDOF 4
ENDMDL
MODEL 7
REMARK VINA RESULT:      -6.5      3.343      5.860
REMARK  Name = 
REMARK  5 active torsions:
REMARK  status: ('A' for Active; 'I' for Inactive)
REMARK    1  A    between atoms: C_1  and  C_2
REMARK    2  A    between atoms: C_6  and  C_7
REMARK    3  A    between atoms: C_7  and  C_8
REMARK    4  A    between atoms: C_7  and  N_13
REMARK    5  A    between atoms: C_20  and  O_21
REMARK                            x       y       z     vdW  Elec       q    Type
REMARK                         _______ _______ _______ _____ _____    ______ ____
ROOT
ATOM      1  C   UNL     1       5.799   4.212  16.779  0.00  0.00    +0.000 C 
ENDROOT
BRANCH   1   7
ATOM      2  C   UNL     1       9.321  10.210  18.612  0.00  0.00    +0.000 C 
ATOM      3  C   UNL     1       8.461   9.044  18.322  0.00  0.00    +0.000 A 
ATOM      4  N   UNL     1       7.407   9.129  17.446  0.00  0.00    +0.000 NA
ATOM      5  C   UNL     1       6.961   7.909  17.470  0.00  0.00    +0.000 A 
ATOM      6  S   UNL     1       5.734   7.052  16.614  0.00  0.00    +0.000 S 
ATOM      7  C   UNL     1       6.328   5.521  17.359  0.00  0.00    +0.000 A 
ATOM      8  C   UNL     1       7.326   5.745  18.246  0.00  0.00    +0.000 A 
ATOM      9  N   UNL     1       7.693   7.095  18.292  0.00  0.00    +0.000 N 
ATOM     10  N   UNL     1       8.667   7.833  18.876  0.00  0.00    +0.000 NA
BRANCH   8  11
ATOM     11  O   UNL     1       8.014   4.792  18.961  0.00  0.00    +0.000 OA
ATOM     12  H   UNL     1       7.368   4.232  19.427  0.00  0.00    +0.000 HD
ENDBRANCH   8  11
ENDBRANCH   1   7
BRANCH   1  13
ATOM     13  N   UNL     1       4.351   3.909  17.041  0.00  0.00    +0.000 NA
ATOM     14  C   UNL     1       4.228   2.828  18.044  0.00  0.00    +0.000 C 
ATOM     15  C   UNL     1       2.956   2.003  17.829  0.00  0.00    +0.000 C 
ATOM     16  C   UNL     1       1.695   2.596  18.440  0.00  0.00    +0.000 C 
ATOM     17  C   UNL     1       1.348   3.988  17.935  0.00  0.00    +0.000 C 
ATOM     18  C   UNL     1       2.379   5.025  18.350  0.00  0.00    +0.000 C 
ATOM     19  C   UNL     1       3.603   5.124  17.431  0.00  0.00    +0.000 C 
ENDBRANCH   1  13
BRANCH   1  20
ATOM     20  C   UNL     1       6.092   4.129  15.279  0.00  0.00    +0.000 A 
ATOM     21  C   UNL     1       7.215   4.711  14.587  0.00  0.00    +0.000 A 
ATOM     22  C   UNL     1       7.148   4.552  13.221  0.00  0.00    +0.000 A 
ATOM     23  S   UNL     1       5.773   3.660  12.750  0.00  0.00    +0.000 S 
ATOM     24  C   UNL     1       5.247   3.511  14.369  0.00  0.00    +0.000 A 
ENDBRANCH   1  20
TORSDOF 4
ENDMDL
MODEL 8
REMARK VINA RESULT:      -6.4      2.483      5.966
REMARK  Name = 
REMARK  5 active torsions:
REMARK  status: ('A' for Active; 'I' for Inactive)
REMARK    1  A    between atoms: C_1  and  C_2
REMARK    2  A    between atoms: C_6  and  C_7
REMARK    3  A    between atoms: C_7  and  C_8
REMARK    4  A    between atoms: C_7  and  N_13
REMARK    5  A    between atoms: C_20  and  O_21
REMARK                            x       y       z     vdW  Elec       q    Type
REMARK                         _______ _______ _______ _____ _____    ______ ____
ROOT
ATOM      1  C   UNL     1       3.022   6.009  18.092  0.00  0.00    +0.000 C 
ENDROOT
BRANCH   1   7
ATOM      2  C   UNL     1       0.473  11.925  21.292  0.00  0.00    +0.000 C 
ATOM      3  C   UNL     1       0.839  10.694  20.562  0.00  0.00    +0.000 A 
ATOM      4  N   UNL     1       0.998  10.687  19.198  0.00  0.00    +0.000 NA
ATOM      5  C   UNL     1       1.333   9.450  18.990  0.00  0.00    +0.000 A 
ATOM      6  S   UNL     1       1.828   8.546  17.607  0.00  0.00    +0.000 S 
ATOM      7  C   UNL     1       2.220   7.160  18.692  0.00  0.00    +0.000 A 
ATOM      8  C   UNL     1       1.887   7.417  19.980  0.00  0.00    +0.000 A 
ATOM      9  N   UNL     1       1.403   8.720  20.145  0.00  0.00    +0.000 N 
ATOM     10  N   UNL     1       1.058   9.519  21.183  0.00  0.00    +0.000 NA
BRANCH   8  11
ATOM     11  O   UNL     1       2.082   6.584  21.056  0.00  0.00    +0.000 OA
ATOM     12  H   UNL     1       2.919   6.831  21.489  0.00  0.00    +0.000 HD
ENDBRANCH   8  11
ENDBRANCH   1   7
BRANCH   1  13
ATOM     13  N   UNL     1       4.507   6.051  18.313  0.00  0.00    +0.000 NA
ATOM     14  C   UNL     1       5.127   4.784  17.864  0.00  0.00    +0.000 C 
ATOM     15  C   UNL     1       6.386   4.457  18.672  0.00  0.00    +0.000 C 
ATOM     16  C   UNL     1       7.654   5.147  18.192  0.00  0.00    +0.000 C 
ATOM     17  C   UNL     1       7.578   6.667  18.186  0.00  0.00    +0.000 C 
ATOM     18  C   UNL     1       6.570   7.189  17.174  0.00  0.00    +0.000 C 
ATOM     19  C   UNL     1       5.120   7.234  17.671  0.00  0.00    +0.000 C 
ENDBRANCH   1  13
BRANCH   1  20
ATOM     20  C   UNL     1       2.459   4.662  18.549  0.00  0.00    +0.000 A 
ATOM     21  C   UNL     1       1.431   3.890  17.895  0.00  0.00    +0.000 A 
ATOM     22  C   UNL     1       1.064   2.769  18.605  0.00  0.00    +0.000 A 
ATOM     23  S   UNL     1       1.976   2.593  20.035  0.00  0.00    +0.000 S 
ATOM     24  C   UNL     1       2.844   4.032  19.724  0.00  0.00    +0.000 A 
ENDBRANCH   1  20
TORSDOF 4
ENDMDL
MODEL 9
REMARK VINA RESULT:      -6.4      2.362      6.087
REMARK  Name = 
REMARK  5 active torsions:
REMARK  status: ('A' for Active; 'I' for Inactive)
REMARK    1  A    between atoms: C_1  and  C_2
REMARK    2  A    between atoms: C_6  and  C_7
REMARK    3  A    between atoms: C_7  and  C_8
REMARK    4  A    between atoms: C_7  and  N_13
REMARK    5  A    between atoms: C_20  and  O_21
REMARK                            x       y       z     vdW  Elec       q    Type
REMARK                         _______ _______ _______ _____ _____    ______ ____
ROOT
ATOM      1  C   UNL     1       2.625   5.872  18.082  0.00  0.00    +0.000 C 
ENDROOT
BRANCH   1   7
ATOM      2  C   UNL     1      -0.231  11.351  21.764  0.00  0.00    +0.000 C 
ATOM      3  C   UNL     1       0.501  10.252  21.101  0.00  0.00    +0.000 A 
ATOM      4  N   UNL     1       0.803   9.088  21.762  0.00  0.00    +0.000 NA
ATOM      5  C   UNL     1       1.403   8.416  20.827  0.00  0.00    +0.000 A 
ATOM      6  S   UNL     1       2.035   6.816  20.700  0.00  0.00    +0.000 S 
ATOM      7  C   UNL     1       2.296   7.092  18.938  0.00  0.00    +0.000 A 
ATOM      8  C   UNL     1       1.984   8.359  18.573  0.00  0.00    +0.000 A 
ATOM      9  N   UNL     1       1.463   9.098  19.642  0.00  0.00    +0.000 N 
ATOM     10  N   UNL     1       0.894  10.315  19.814  0.00  0.00    +0.000 NA
BRANCH   8  11
ATOM     11  O   UNL     1       2.042   8.881  17.303  0.00  0.00    +0.000 OA
ATOM     12  H   UNL     1       2.308   8.172  16.690  0.00  0.00    +0.000 HD
ENDBRANCH   8  11
ENDBRANCH   1   7
BRANCH   1  13
ATOM     13  N   UNL     1       4.085   5.595  17.858  0.00  0.00    +0.000 NA
ATOM     14  C   UNL     1       4.730   6.754  17.202  0.00  0.00    +0.000 C 
ATOM     15  C   UNL     1       5.907   6.320  16.324  0.00  0.00    +0.000 C 
ATOM     16  C   UNL     1       7.220   6.117  17.065  0.00  0.00    +0.000 C 
ATOM     17  C   UNL     1       7.160   5.081  18.178  0.00  0.00    +0.000 C 
ATOM     18  C   UNL     1       6.253   5.514  19.319  0.00  0.00    +0.000 C 
ATOM     19  C   UNL     1       4.765   5.210  19.113  0.00  0.00    +0.000 C 
ENDBRANCH   1  13
BRANCH   1  20
ATOM     20  C   UNL     1       1.930   4.624  18.632  0.00  0.00    +0.000 A 
ATOM     21  C   UNL     1       1.486   4.411  19.987  0.00  0.00    +0.000 A 
ATOM     22  C   UNL     1       0.989   3.145  20.199  0.00  0.00    +0.000 A 
ATOM     23  S   UNL     1       0.995   2.211  18.773  0.00  0.00    +0.000 S 
ATOM     24  C   UNL     1       1.692   3.487  17.875  0.00  0.00    +0.000 A 
ENDBRANCH   1  20
TORSDOF 4
ENDMDL
