MODEL 1
REMARK VINA RESULT:      -6.9      0.000      0.000
REMARK  Name = 
REMARK  11 active torsions:
REMARK  status: ('A' for Active; 'I' for Inactive)
REMARK    1  A    between atoms: C_1  and  C_2
REMARK    2  A    between atoms: C_2  and  C_3
REMARK    3  A    between atoms: N_5  and  C_6
REMARK    4  A    between atoms: C_6  and  C_7
REMARK    5  A    between atoms: C_7  and  C_8
REMARK    6  A    between atoms: C_8  and  N_9
REMARK    7  A    between atoms: C_10  and  C_11
REMARK    8  A    between atoms: C_11  and  O_13
REMARK    9  A    between atoms: O_13  and  C_14
REMARK   10  A    between atoms: C_19  and  O_20
REMARK   11  A    between atoms: O_20  and  C_21
REMARK                            x       y       z     vdW  Elec       q    Type
REMARK                         _______ _______ _______ _____ _____    ______ ____
ROOT
ATOM      1  N   UNL     1       4.579   5.057  17.545  0.00  0.00    +0.000 N 
ATOM      2  C   UNL     1       5.171   5.591  16.408  0.00  0.00    +0.000 A 
ATOM      3  C   UNL     1       4.665   6.872  16.265  0.00  0.00    +0.000 A 
ATOM      4  C   UNL     1       3.792   7.144  17.340  0.00  0.00    +0.000 A 
ATOM      5  C   UNL     1       3.043   8.277  17.707  0.00  0.00    +0.000 A 
ATOM      6  C   UNL     1       2.249   8.242  18.857  0.00  0.00    +0.000 A 
ATOM      7  C   UNL     1       2.190   7.093  19.641  0.00  0.00    +0.000 A 
ATOM      8  C   UNL     1       2.933   5.955  19.287  0.00  0.00    +0.000 A 
ATOM      9  C   UNL     1       3.738   5.996  18.131  0.00  0.00    +0.000 A 
ENDROOT
BRANCH   2  10
ATOM     10  C   UNL     1       6.129   4.934  15.544  0.00  0.00    +0.000 C 
ATOM     11  O   UNL     1       7.292   4.673  15.821  0.00  0.00    +0.000 OA
BRANCH  10  12
ATOM     12  O   UNL     1       5.522   4.618  14.365  0.00  0.00    +0.000 OA
ATOM     13  C   UNL     1       6.256   3.722  13.533  0.00  0.00    +0.000 C 
ENDBRANCH  10  12
ENDBRANCH   2  10
BRANCH   7  14
ATOM     14  O   UNL     1       1.444   6.952  20.784  0.00  0.00    +0.000 OA
ATOM     15  C   UNL     1       0.977   8.150  21.394  0.00  0.00    +0.000 C 
ENDBRANCH   7  14
BRANCH   1  16
ATOM     16  C   UNL     1       4.825   3.718  18.073  0.00  0.00    +0.000 C 
BRANCH  16  17
ATOM     17  C   UNL     1       4.065   2.606  17.347  0.00  0.00    +0.000 C 
BRANCH  17  18
ATOM     18  C   UNL     1       3.481   1.612  18.348  0.00  0.00    +0.000 C 
BRANCH  18  21
ATOM     19  C   UNL     1       1.481   2.509  19.479  0.00  0.00    +0.000 C 
ATOM     20  O   UNL     1       0.739   2.179  18.563  0.00  0.00    +0.000 OA
ATOM     21  N   UNL     1       2.840   2.282  19.462  0.00  0.00    +0.000 N 
ATOM     22  H   UNL     1       3.390   2.498  20.284  0.00  0.00    +0.000 HD
BRANCH  19  24
ATOM     23  C   UNL     1       2.114   3.334  21.768  0.00  0.00    +0.000 C 
ATOM     24  C   UNL     1       1.004   3.205  20.739  0.00  0.00    +0.000 C 
ENDBRANCH  19  24
ENDBRANCH  18  21
ENDBRANCH  17  18
ENDBRANCH  16  17
ENDBRANCH   1  16
TORSDOF 8
ENDMDL
MODEL 2
REMARK VINA RESULT:      -6.8      2.517      5.416
REMARK  Name = 
REMARK  11 active torsions:
REMARK  status: ('A' for Active; 'I' for Inactive)
REMARK    1  A    between atoms: C_1  and  C_2
REMARK    2  A    between atoms: C_2  and  C_3
REMARK    3  A    between atoms: N_5  and  C_6
REMARK    4  A    between atoms: C_6  and  C_7
REMARK    5  A    between atoms: C_7  and  C_8
REMARK    6  A    between atoms: C_8  and  N_9
REMARK    7  A    between atoms: C_10  and  C_11
REMARK    8  A    between atoms: C_11  and  O_13
REMARK    9  A    between atoms: O_13  and  C_14
REMARK   10  A    between atoms: C_19  and  O_20
REMARK   11  A    between atoms: O_20  and  C_21
REMARK                            x       y       z     vdW  Elec       q    Type
REMARK                         _______ _______ _______ _____ _____    ______ ____
ROOT
ATOM      1  N   UNL     1       3.781   5.726  17.725  0.00  0.00    +0.000 N 
ATOM      2  C   UNL     1       4.677   5.412  16.711  0.00  0.00    +0.000 A 
ATOM      3  C   UNL     1       4.677   4.031  16.601  0.00  0.00    +0.000 A 
ATOM      4  C   UNL     1       3.749   3.496  17.519  0.00  0.00    +0.000 A 
ATOM      5  C   UNL     1       3.329   2.185  17.806  0.00  0.00    +0.000 A 
ATOM      6  C   UNL     1       2.369   1.966  18.798  0.00  0.00    +0.000 A 
ATOM      7  C   UNL     1       1.828   3.033  19.508  0.00  0.00    +0.000 A 
ATOM      8  C   UNL     1       2.238   4.348  19.231  0.00  0.00    +0.000 A 
ATOM      9  C   UNL     1       3.201   4.567  18.225  0.00  0.00    +0.000 A 
ENDROOT
BRANCH   2  10
ATOM     10  C   UNL     1       5.454   6.346  15.925  0.00  0.00    +0.000 C 
ATOM     11  O   UNL     1       5.020   7.111  15.073  0.00  0.00    +0.000 OA
BRANCH  10  12
ATOM     12  O   UNL     1       6.762   6.267  16.303  0.00  0.00    +0.000 OA
ATOM     13  C   UNL     1       7.124   7.108  17.395  0.00  0.00    +0.000 C 
ENDBRANCH  10  12
ENDBRANCH   2  10
BRANCH   7  14
ATOM     14  O   UNL     1       0.885   2.929  20.499  0.00  0.00    +0.000 OA
ATOM     15  C   UNL     1       1.369   2.749  21.825  0.00  0.00    +0.000 C 
ENDBRANCH   7  14
BRANCH   1  16
ATOM     16  C   UNL     1       3.466   7.077  18.180  0.00  0.00    +0.000 C 
BRANCH  16  17
ATOM     17  C   UNL     1       2.187   7.661  17.578  0.00  0.00    +0.000 C 
BRANCH  17  18
ATOM     18  C   UNL     1       2.043   9.136  17.946  0.00  0.00    +0.000 C 
BRANCH  18  21
ATOM     19  C   UNL     1       0.104  10.495  18.638  0.00  0.00    +0.000 C 
ATOM     20  O   UNL     1       0.680  10.924  19.630  0.00  0.00    +0.000 OA
ATOM     21  N   UNL     1       0.685   9.608  17.758  0.00  0.00    +0.000 N 
ATOM     22  H   UNL     1       0.194   9.356  16.910  0.00  0.00    +0.000 HD
BRANCH  19  24
ATOM     23  C   UNL     1      -1.882   9.954  17.195  0.00  0.00    +0.000 C 
ATOM     24  C   UNL     1      -1.312  10.881  18.255  0.00  0.00    +0.000 C 
ENDBRANCH  19  24
ENDBRANCH  18  21
ENDBRANCH  17  18
ENDBRANCH  16  17
ENDBRANCH   1  16
TORSDOF 8
ENDMDL
MODEL 3
REMARK VINA RESULT:      -6.7      1.064      1.156
REMARK  Name = 
REMARK  11 active torsions:
REMARK  status: ('A' for Active; 'I' for Inactive)
REMARK    1  A    between atoms: C_1  and  C_2
REMARK    2  A    between atoms: C_2  and  C_3
REMARK    3  A    between atoms: N_5  and  C_6
REMARK    4  A    between atoms: C_6  and  C_7
REMARK    5  A    between atoms: C_7  and  C_8
REMARK    6  A    between atoms: C_8  and  N_9
REMARK    7  A    between atoms: C_10  and  C_11
REMARK    8  A    between atoms: C_11  and  O_13
REMARK    9  A    between atoms: O_13  and  C_14
REMARK   10  A    between atoms: C_19  and  O_20
REMARK   11  A    between atoms: O_20  and  C_21
REMARK                            x       y       z     vdW  Elec       q    Type
REMARK                         _______ _______ _______ _____ _____    ______ ____
ROOT
ATOM      1  N   UNL     1       4.887   4.849  17.695  0.00  0.00    +0.000 N 
ATOM      2  C   UNL     1       5.573   5.288  16.570  0.00  0.00    +0.000 A 
ATOM      3  C   UNL     1       5.090   6.554  16.284  0.00  0.00    +0.000 A 
ATOM      4  C   UNL     1       4.135   6.914  17.259  0.00  0.00    +0.000 A 
ATOM      5  C   UNL     1       3.368   8.073  17.470  0.00  0.00    +0.000 A 
ATOM      6  C   UNL     1       2.483   8.133  18.551  0.00  0.00    +0.000 A 
ATOM      7  C   UNL     1       2.351   7.052  19.418  0.00  0.00    +0.000 A 
ATOM      8  C   UNL     1       3.113   5.888  19.219  0.00  0.00    +0.000 A 
ATOM      9  C   UNL     1       4.008   5.834  18.132  0.00  0.00    +0.000 A 
ENDROOT
BRANCH   2  10
ATOM     10  C   UNL     1       6.592   4.563  15.842  0.00  0.00    +0.000 C 
ATOM     11  O   UNL     1       7.802   4.660  16.003  0.00  0.00    +0.000 OA
BRANCH  10  12
ATOM     12  O   UNL     1       5.992   3.719  14.956  0.00  0.00    +0.000 OA
ATOM     13  C   UNL     1       6.295   3.972  13.586  0.00  0.00    +0.000 C 
ENDBRANCH  10  12
ENDBRANCH   2  10
BRANCH   7  14
ATOM     14  O   UNL     1       1.515   7.005  20.504  0.00  0.00    +0.000 OA
ATOM     15  C   UNL     1       1.257   8.238  21.167  0.00  0.00    +0.000 C 
ENDBRANCH   7  14
BRANCH   1  16
ATOM     16  C   UNL     1       5.079   3.558  18.348  0.00  0.00    +0.000 C 
BRANCH  16  17
ATOM     17  C   UNL     1       4.264   2.417  17.737  0.00  0.00    +0.000 C 
BRANCH  17  18
ATOM     18  C   UNL     1       3.682   1.525  18.832  0.00  0.00    +0.000 C 
BRANCH  18  21
ATOM     19  C   UNL     1       2.652   2.498  20.850  0.00  0.00    +0.000 C 
ATOM     20  O   UNL     1       3.636   2.268  21.540  0.00  0.00    +0.000 OA
ATOM     21  N   UNL     1       2.575   2.164  19.516  0.00  0.00    +0.000 N 
ATOM     22  H   UNL     1       1.771   2.458  18.975  0.00  0.00    +0.000 HD
BRANCH  19  24
ATOM     23  C   UNL     1       0.514   3.674  20.243  0.00  0.00    +0.000 C 
ATOM     24  C   UNL     1       1.399   3.176  21.372  0.00  0.00    +0.000 C 
ENDBRANCH  19  24
ENDBRANCH  18  21
ENDBRANCH  17  18
ENDBRANCH  16  17
ENDBRANCH   1  16
TORSDOF 8
ENDMDL
MODEL 4
REMARK VINA RESULT:      -6.7      0.585      1.116
REMARK  Name = 
REMARK  11 active torsions:
REMARK  status: ('A' for Active; 'I' for Inactive)
REMARK    1  A    between atoms: C_1  and  C_2
REMARK    2  A    between atoms: C_2  and  C_3
REMARK    3  A    between atoms: N_5  and  C_6
REMARK    4  A    between atoms: C_6  and  C_7
REMARK    5  A    between atoms: C_7  and  C_8
REMARK    6  A    between atoms: C_8  and  N_9
REMARK    7  A    between atoms: C_10  and  C_11
REMARK    8  A    between atoms: C_11  and  O_13
REMARK    9  A    between atoms: O_13  and  C_14
REMARK   10  A    between atoms: C_19  and  O_20
REMARK   11  A    between atoms: O_20  and  C_21
REMARK                            x       y       z     vdW  Elec       q    Type
REMARK                         _______ _______ _______ _____ _____    ______ ____
ROOT
ATOM      1  N   UNL     1       4.475   5.026  17.709  0.00  0.00    +0.000 N 
ATOM      2  C   UNL     1       5.125   5.532  16.591  0.00  0.00    +0.000 A 
ATOM      3  C   UNL     1       4.656   6.823  16.413  0.00  0.00    +0.000 A 
ATOM      4  C   UNL     1       3.748   7.129  17.449  0.00  0.00    +0.000 A 
ATOM      5  C   UNL     1       3.013   8.284  17.772  0.00  0.00    +0.000 A 
ATOM      6  C   UNL     1       2.173   8.282  18.890  0.00  0.00    +0.000 A 
ATOM      7  C   UNL     1       2.054   7.145  19.684  0.00  0.00    +0.000 A 
ATOM      8  C   UNL     1       2.784   5.985  19.373  0.00  0.00    +0.000 A 
ATOM      9  C   UNL     1       3.635   5.992  18.250  0.00  0.00    +0.000 A 
ENDROOT
BRANCH   2  10
ATOM     10  C   UNL     1       6.100   4.842  15.774  0.00  0.00    +0.000 C 
ATOM     11  O   UNL     1       5.857   4.090  14.838  0.00  0.00    +0.000 OA
BRANCH  10  12
ATOM     12  O   UNL     1       7.353   5.183  16.190  0.00  0.00    +0.000 OA
ATOM     13  C   UNL     1       7.794   4.520  17.373  0.00  0.00    +0.000 C 
ENDBRANCH  10  12
ENDBRANCH   2  10
BRANCH   7  14
ATOM     14  O   UNL     1       1.260   7.037  20.797  0.00  0.00    +0.000 OA
ATOM     15  C   UNL     1       0.919   8.248  21.460  0.00  0.00    +0.000 C 
ENDBRANCH   7  14
BRANCH   1  16
ATOM     16  C   UNL     1       4.668   3.689  18.262  0.00  0.00    +0.000 C 
BRANCH  16  17
ATOM     17  C   UNL     1       3.990   2.574  17.463  0.00  0.00    +0.000 C 
BRANCH  17  18
ATOM     18  C   UNL     1       3.380   1.534  18.400  0.00  0.00    +0.000 C 
BRANCH  18  21
ATOM     19  C   UNL     1       1.443   2.537  19.551  0.00  0.00    +0.000 C 
ATOM     20  O   UNL     1       0.715   2.406  18.575  0.00  0.00    +0.000 OA
ATOM     21  N   UNL     1       2.765   2.149  19.559  0.00  0.00    +0.000 N 
ATOM     22  H   UNL     1       3.292   2.203  20.422  0.00  0.00    +0.000 HD
BRANCH  19  24
ATOM     23  C   UNL     1       2.150   3.387  21.809  0.00  0.00    +0.000 C 
ATOM     24  C   UNL     1       0.985   3.141  20.865  0.00  0.00    +0.000 C 
ENDBRANCH  19  24
ENDBRANCH  18  21
ENDBRANCH  17  18
ENDBRANCH  16  17
ENDBRANCH   1  16
TORSDOF 8
ENDMDL
MODEL 5
REMARK VINA RESULT:      -6.7      1.962      5.312
REMARK  Name = 
REMARK  11 active torsions:
REMARK  status: ('A' for Active; 'I' for Inactive)
REMARK    1  A    between atoms: C_1  and  C_2
REMARK    2  A    between atoms: C_2  and  C_3
REMARK    3  A    between atoms: N_5  and  C_6
REMARK    4  A    between atoms: C_6  and  C_7
REMARK    5  A    between atoms: C_7  and  C_8
REMARK    6  A    between atoms: C_8  and  N_9
REMARK    7  A    between atoms: C_10  and  C_11
REMARK    8  A    between atoms: C_11  and  O_13
REMARK    9  A    between atoms: O_13  and  C_14
REMARK   10  A    between atoms: C_19  and  O_20
REMARK   11  A    between atoms: O_20  and  C_21
REMARK                            x       y       z     vdW  Elec       q    Type
REMARK                         _______ _______ _______ _____ _____    ______ ____
ROOT
ATOM      1  N   UNL     1       3.326   5.909  18.545  0.00  0.00    +0.000 N 
ATOM      2  C   UNL     1       3.285   4.910  19.509  0.00  0.00    +0.000 A 
ATOM      3  C   UNL     1       2.521   5.402  20.554  0.00  0.00    +0.000 A 
ATOM      4  C   UNL     1       2.055   6.691  20.216  0.00  0.00    +0.000 A 
ATOM      5  C   UNL     1       1.230   7.618  20.878  0.00  0.00    +0.000 A 
ATOM      6  C   UNL     1       0.940   8.845  20.273  0.00  0.00    +0.000 A 
ATOM      7  C   UNL     1       1.465   9.159  19.023  0.00  0.00    +0.000 A 
ATOM      8  C   UNL     1       2.289   8.241  18.350  0.00  0.00    +0.000 A 
ATOM      9  C   UNL     1       2.573   7.002  18.959  0.00  0.00    +0.000 A 
ENDROOT
BRANCH   2  10
ATOM     10  C   UNL     1       3.917   3.610  19.432  0.00  0.00    +0.000 C 
ATOM     11  O   UNL     1       5.116   3.383  19.532  0.00  0.00    +0.000 OA
BRANCH  10  12
ATOM     12  O   UNL     1       2.958   2.657  19.259  0.00  0.00    +0.000 OA
ATOM     13  C   UNL     1       2.878   2.117  17.942  0.00  0.00    +0.000 C 
ENDBRANCH  10  12
ENDBRANCH   2  10
BRANCH   7  14
ATOM     14  O   UNL     1       1.246  10.330  18.344  0.00  0.00    +0.000 OA
ATOM     15  C   UNL     1       0.194  11.160  18.823  0.00  0.00    +0.000 C 
ENDBRANCH   7  14
BRANCH   1  16
ATOM     16  C   UNL     1       4.027   5.819  17.268  0.00  0.00    +0.000 C 
BRANCH  16  17
ATOM     17  C   UNL     1       5.252   6.728  17.157  0.00  0.00    +0.000 C 
BRANCH  17  18
ATOM     18  C   UNL     1       6.432   5.970  16.553  0.00  0.00    +0.000 C 
BRANCH  18  21
ATOM     19  C   UNL     1       6.742   4.784  14.412  0.00  0.00    +0.000 C 
ATOM     20  O   UNL     1       7.786   5.374  14.164  0.00  0.00    +0.000 OA
ATOM     21  N   UNL     1       6.002   5.014  15.552  0.00  0.00    +0.000 N 
ATOM     22  H   UNL     1       5.195   4.434  15.745  0.00  0.00    +0.000 HD
BRANCH  19  24
ATOM     23  C   UNL     1       6.775   3.741  12.125  0.00  0.00    +0.000 C 
ATOM     24  C   UNL     1       6.133   3.735  13.502  0.00  0.00    +0.000 C 
ENDBRANCH  19  24
ENDBRANCH  18  21
ENDBRANCH  17  18
ENDBRANCH  16  17
ENDBRANCH   1  16
TORSDOF 8
ENDMDL
MODEL 6
REMARK VINA RESULT:      -6.6      1.924      5.448
REMARK  Name = 
REMARK  11 active torsions:
REMARK  status: ('A' for Active; 'I' for Inactive)
REMARK    1  A    between atoms: C_1  and  C_2
REMARK    2  A    between atoms: C_2  and  C_3
REMARK    3  A    between atoms: N_5  and  C_6
REMARK    4  A    between atoms: C_6  and  C_7
REMARK    5  A    between atoms: C_7  and  C_8
REMARK    6  A    between atoms: C_8  and  N_9
REMARK    7  A    between atoms: C_10  and  C_11
REMARK    8  A    between atoms: C_11  and  O_13
REMARK    9  A    between atoms: O_13  and  C_14
REMARK   10  A    between atoms: C_19  and  O_20
REMARK   11  A    between atoms: O_20  and  C_21
REMARK                            x       y       z     vdW  Elec       q    Type
REMARK                         _______ _______ _______ _____ _____    ______ ____
ROOT
ATOM      1  N   UNL     1       2.952   5.364  18.632  0.00  0.00    +0.000 N 
ATOM      2  C   UNL     1       2.764   4.581  19.763  0.00  0.00    +0.000 A 
ATOM      3  C   UNL     1       2.182   5.401  20.716  0.00  0.00    +0.000 A 
ATOM      4  C   UNL     1       1.973   6.679  20.157  0.00  0.00    +0.000 A 
ATOM      5  C   UNL     1       1.399   7.862  20.655  0.00  0.00    +0.000 A 
ATOM      6  C   UNL     1       1.332   8.998  19.841  0.00  0.00    +0.000 A 
ATOM      7  C   UNL     1       1.834   8.968  18.544  0.00  0.00    +0.000 A 
ATOM      8  C   UNL     1       2.409   7.792  18.034  0.00  0.00    +0.000 A 
ATOM      9  C   UNL     1       2.468   6.648  18.854  0.00  0.00    +0.000 A 
ENDROOT
BRANCH   2  10
ATOM     10  C   UNL     1       3.109   3.183  19.913  0.00  0.00    +0.000 C 
ATOM     11  O   UNL     1       4.241   2.719  19.956  0.00  0.00    +0.000 OA
BRANCH  10  12
ATOM     12  O   UNL     1       1.964   2.452  20.033  0.00  0.00    +0.000 OA
ATOM     13  C   UNL     1       1.309   2.157  18.802  0.00  0.00    +0.000 C 
ENDBRANCH  10  12
ENDBRANCH   2  10
BRANCH   7  14
ATOM     14  O   UNL     1       1.821  10.022  17.665  0.00  0.00    +0.000 OA
ATOM     15  C   UNL     1       2.065  11.313  18.212  0.00  0.00    +0.000 C 
ENDBRANCH   7  14
BRANCH   1  16
ATOM     16  C   UNL     1       3.541   4.903  17.378  0.00  0.00    +0.000 C 
BRANCH  16  17
ATOM     17  C   UNL     1       4.950   5.436  17.111  0.00  0.00    +0.000 C 
BRANCH  17  18
ATOM     18  C   UNL     1       5.915   4.287  16.829  0.00  0.00    +0.000 C 
BRANCH  18  21
ATOM     19  C   UNL     1       6.610   4.340  14.463  0.00  0.00    +0.000 C 
ATOM     20  O   UNL     1       7.433   5.225  14.659  0.00  0.00    +0.000 OA
ATOM     21  N   UNL     1       5.813   3.821  15.460  0.00  0.00    +0.000 N 
ATOM     22  H   UNL     1       5.213   3.032  15.256  0.00  0.00    +0.000 HD
BRANCH  19  24
ATOM     23  C   UNL     1       7.188   4.370  12.016  0.00  0.00    +0.000 C 
ATOM     24  C   UNL     1       6.363   3.707  13.106  0.00  0.00    +0.000 C 
ENDBRANCH  19  24
ENDBRANCH  18  21
ENDBRANCH  17  18
ENDBRANCH  16  17
ENDBRANCH   1  16
TORSDOF 8
ENDMDL
MODEL 7
REMARK VINA RESULT:      -6.5      2.759      6.338
REMARK  Name = 
REMARK  11 active torsions:
REMARK  status: ('A' for Active; 'I' for Inactive)
REMARK    1  A    between atoms: C_1  and  C_2
REMARK    2  A    between atoms: C_2  and  C_3
REMARK    3  A    between atoms: N_5  and  C_6
REMARK    4  A    between atoms: C_6  and  C_7
REMARK    5  A    between atoms: C_7  and  C_8
REMARK    6  A    between atoms: C_8  and  N_9
REMARK    7  A    between atoms: C_10  and  C_11
REMARK    8  A    between atoms: C_11  and  O_13
REMARK    9  A    between atoms: O_13  and  C_14
REMARK   10  A    between atoms: C_19  and  O_20
REMARK   11  A    between atoms: O_20  and  C_21
REMARK                            x       y       z     vdW  Elec       q    Type
REMARK                         _______ _______ _______ _____ _____    ______ ____
ROOT
ATOM      1  N   UNL     1       3.337   5.774  18.140  0.00  0.00    +0.000 N 
ATOM      2  C   UNL     1       2.797   4.499  18.039  0.00  0.00    +0.000 A 
ATOM      3  C   UNL     1       3.736   3.725  17.378  0.00  0.00    +0.000 A 
ATOM      4  C   UNL     1       4.875   4.514  17.108  0.00  0.00    +0.000 A 
ATOM      5  C   UNL     1       6.113   4.238  16.501  0.00  0.00    +0.000 A 
ATOM      6  C   UNL     1       7.065   5.253  16.373  0.00  0.00    +0.000 A 
ATOM      7  C   UNL     1       6.797   6.537  16.838  0.00  0.00    +0.000 A 
ATOM      8  C   UNL     1       5.565   6.826  17.448  0.00  0.00    +0.000 A 
ATOM      9  C   UNL     1       4.610   5.799  17.582  0.00  0.00    +0.000 A 
ENDROOT
BRANCH   2  10
ATOM     10  C   UNL     1       1.506   4.066  18.530  0.00  0.00    +0.000 C 
ATOM     11  O   UNL     1       0.591   3.613  17.855  0.00  0.00    +0.000 OA
BRANCH  10  12
ATOM     12  O   UNL     1       1.472   4.214  19.885  0.00  0.00    +0.000 OA
ATOM     13  C   UNL     1       1.184   3.021  20.612  0.00  0.00    +0.000 C 
ENDBRANCH  10  12
ENDBRANCH   2  10
BRANCH   7  14
ATOM     14  O   UNL     1       7.657   7.603  16.761  0.00  0.00    +0.000 OA
ATOM     15  C   UNL     1       8.081   8.174  17.994  0.00  0.00    +0.000 C 
ENDBRANCH   7  14
BRANCH   1  16
ATOM     16  C   UNL     1       2.683   6.918  18.769  0.00  0.00    +0.000 C 
BRANCH  16  17
ATOM     17  C   UNL     1       2.198   7.984  17.786  0.00  0.00    +0.000 C 
BRANCH  17  18
ATOM     18  C   UNL     1       1.764   9.245  18.530  0.00  0.00    +0.000 C 
BRANCH  18  21
ATOM     19  C   UNL     1      -0.486  10.245  18.673  0.00  0.00    +0.000 C 
ATOM     20  O   UNL     1      -0.548  10.085  19.885  0.00  0.00    +0.000 OA
ATOM     21  N   UNL     1       0.601   9.858  17.920  0.00  0.00    +0.000 N 
ATOM     22  H   UNL     1       0.633  10.095  16.936  0.00  0.00    +0.000 HD
BRANCH  19  24
ATOM     23  C   UNL     1      -2.357   9.853  17.040  0.00  0.00    +0.000 C 
ATOM     24  C   UNL     1      -1.590  10.883  17.851  0.00  0.00    +0.000 C 
ENDBRANCH  19  24
ENDBRANCH  18  21
ENDBRANCH  17  18
ENDBRANCH  16  17
ENDBRANCH   1  16
TORSDOF 8
ENDMDL
MODEL 8
REMARK VINA RESULT:      -6.5      2.116      5.958
REMARK  Name = 
REMARK  11 active torsions:
REMARK  status: ('A' for Active; 'I' for Inactive)
REMARK    1  A    between atoms: C_1  and  C_2
REMARK    2  A    between atoms: C_2  and  C_3
REMARK    3  A    between atoms: N_5  and  C_6
REMARK    4  A    between atoms: C_6  and  C_7
REMARK    5  A    between atoms: C_7  and  C_8
REMARK    6  A    between atoms: C_8  and  N_9
REMARK    7  A    between atoms: C_10  and  C_11
REMARK    8  A    between atoms: C_11  and  O_13
REMARK    9  A    between atoms: O_13  and  C_14
REMARK   10  A    between atoms: C_19  and  O_20
REMARK   11  A    between atoms: O_20  and  C_21
REMARK                            x       y       z     vdW  Elec       q    Type
REMARK                         _______ _______ _______ _____ _____    ______ ____
ROOT
ATOM      1  N   UNL     1       3.705   4.852  18.767  0.00  0.00    +0.000 N 
ATOM      2  C   UNL     1       3.131   3.606  18.554  0.00  0.00    +0.000 A 
ATOM      3  C   UNL     1       3.804   3.040  17.484  0.00  0.00    +0.000 A 
ATOM      4  C   UNL     1       4.822   3.922  17.063  0.00  0.00    +0.000 A 
ATOM      5  C   UNL     1       5.807   3.844  16.062  0.00  0.00    +0.000 A 
ATOM      6  C   UNL     1       6.697   4.906  15.880  0.00  0.00    +0.000 A 
ATOM      7  C   UNL     1       6.615   6.043  16.677  0.00  0.00    +0.000 A 
ATOM      8  C   UNL     1       5.636   6.134  17.682  0.00  0.00    +0.000 A 
ATOM      9  C   UNL     1       4.745   5.058  17.868  0.00  0.00    +0.000 A 
ENDROOT
BRANCH   2  10
ATOM     10  C   UNL     1       2.044   3.016  19.306  0.00  0.00    +0.000 C 
ATOM     11  O   UNL     1       0.849   3.139  19.066  0.00  0.00    +0.000 OA
BRANCH  10  12
ATOM     12  O   UNL     1       2.558   2.267  20.322  0.00  0.00    +0.000 OA
ATOM     13  C   UNL     1       2.305   2.773  21.630  0.00  0.00    +0.000 C 
ENDBRANCH  10  12
ENDBRANCH   2  10
BRANCH   7  14
ATOM     14  O   UNL     1       7.434   7.140  16.581  0.00  0.00    +0.000 OA
ATOM     15  C   UNL     1       7.733   7.822  17.793  0.00  0.00    +0.000 C 
ENDBRANCH   7  14
BRANCH   1  16
ATOM     16  C   UNL     1       3.303   5.798  19.804  0.00  0.00    +0.000 C 
BRANCH  16  17
ATOM     17  C   UNL     1       1.957   6.479  19.546  0.00  0.00    +0.000 C 
BRANCH  17  18
ATOM     18  C   UNL     1       2.050   7.978  19.825  0.00  0.00    +0.000 C 
BRANCH  18  21
ATOM     19  C   UNL     1       0.501   9.085  21.393  0.00  0.00    +0.000 C 
ATOM     20  O   UNL     1      -0.172   9.563  20.489  0.00  0.00    +0.000 OA
ATOM     21  N   UNL     1       1.613   8.303  21.168  0.00  0.00    +0.000 N 
ATOM     22  H   UNL     1       2.078   7.864  21.953  0.00  0.00    +0.000 HD
BRANCH  19  24
ATOM     23  C   UNL     1      -0.816  10.401  23.083  0.00  0.00    +0.000 C 
ATOM     24  C   UNL     1       0.200   9.293  22.865  0.00  0.00    +0.000 C 
ENDBRANCH  19  24
ENDBRANCH  18  21
ENDBRANCH  17  18
ENDBRANCH  16  17
ENDBRANCH   1  16
TORSDOF 8
ENDMDL
MODEL 9
REMARK VINA RESULT:      -6.4      2.169      5.127
REMARK  Name = 
REMARK  11 active torsions:
REMARK  status: ('A' for Active; 'I' for Inactive)
REMARK    1  A    between atoms: C_1  and  C_2
REMARK    2  A    between atoms: C_2  and  C_3
REMARK    3  A    between atoms: N_5  and  C_6
REMARK    4  A    between atoms: C_6  and  C_7
REMARK    5  A    between atoms: C_7  and  C_8
REMARK    6  A    between atoms: C_8  and  N_9
REMARK    7  A    between atoms: C_10  and  C_11
REMARK    8  A    between atoms: C_11  and  O_13
REMARK    9  A    between atoms: O_13  and  C_14
REMARK   10  A    between atoms: C_19  and  O_20
REMARK   11  A    between atoms: O_20  and  C_21
REMARK                            x       y       z     vdW  Elec       q    Type
REMARK                         _______ _______ _______ _____ _____    ______ ____
ROOT
ATOM      1  N   UNL     1       2.905   4.907  18.480  0.00  0.00    +0.000 N 
ATOM      2  C   UNL     1       2.766   4.144  19.632  0.00  0.00    +0.000 A 
ATOM      3  C   UNL     1       2.322   5.004  20.622  0.00  0.00    +0.000 A 
ATOM      4  C   UNL     1       2.146   6.291  20.069  0.00  0.00    +0.000 A 
ATOM      5  C   UNL     1       1.692   7.511  20.601  0.00  0.00    +0.000 A 
ATOM      6  C   UNL     1       1.627   8.643  19.783  0.00  0.00    +0.000 A 
ATOM      7  C   UNL     1       2.012   8.575  18.448  0.00  0.00    +0.000 A 
ATOM      8  C   UNL     1       2.466   7.361  17.904  0.00  0.00    +0.000 A 
ATOM      9  C   UNL     1       2.523   6.220  18.728  0.00  0.00    +0.000 A 
ENDROOT
BRANCH   2  10
ATOM     10  C   UNL     1       3.034   2.728  19.768  0.00  0.00    +0.000 C 
ATOM     11  O   UNL     1       3.861   2.217  20.513  0.00  0.00    +0.000 OA
BRANCH  10  12
ATOM     12  O   UNL     1       2.193   2.035  18.950  0.00  0.00    +0.000 OA
ATOM     13  C   UNL     1       0.805   2.288  19.160  0.00  0.00    +0.000 C 
ENDBRANCH  10  12
ENDBRANCH   2  10
BRANCH   7  14
ATOM     14  O   UNL     1       1.991   9.622  17.563  0.00  0.00    +0.000 OA
ATOM     15  C   UNL     1       1.975  10.931  18.121  0.00  0.00    +0.000 C 
ENDBRANCH   7  14
BRANCH   1  16
ATOM     16  C   UNL     1       3.353   4.403  17.186  0.00  0.00    +0.000 C 
BRANCH  16  17
ATOM     17  C   UNL     1       4.845   4.070  17.122  0.00  0.00    +0.000 C 
BRANCH  17  18
ATOM     18  C   UNL     1       5.582   5.067  16.232  0.00  0.00    +0.000 C 
BRANCH  18  21
ATOM     19  C   UNL     1       7.435   5.794  17.688  0.00  0.00    +0.000 C 
ATOM     20  O   UNL     1       7.951   4.684  17.692  0.00  0.00    +0.000 OA
ATOM     21  N   UNL     1       6.270   6.078  17.010  0.00  0.00    +0.000 N 
ATOM     22  H   UNL     1       5.939   7.034  16.971  0.00  0.00    +0.000 HD
BRANCH  19  24
ATOM     23  C   UNL     1       7.811   8.280  17.647  0.00  0.00    +0.000 C 
ATOM     24  C   UNL     1       8.009   6.990  18.425  0.00  0.00    +0.000 C 
ENDBRANCH  19  24
ENDBRANCH  18  21
ENDBRANCH  17  18
ENDBRANCH  16  17
ENDBRANCH   1  16
TORSDOF 8
ENDMDL
