MODEL 1
REMARK VINA RESULT:      -7.6      0.000      0.000
REMARK  Name = 
REMARK  8 active torsions:
REMARK  status: ('A' for Active; 'I' for Inactive)
REMARK    1  A    between atoms: C_2  and  C_13
REMARK    2  A    between atoms: N_3  and  C_4
REMARK    3  A    between atoms: C_4  and  N_6
REMARK    4  A    between atoms: N_6  and  C_7
REMARK    5  A    between atoms: N_15  and  C_16
REMARK    6  A    between atoms: C_16  and  C_17
REMARK    7  A    between atoms: C_17  and  O_18
REMARK    8  A    between atoms: C_22  and  O_23
REMARK                            x       y       z     vdW  Elec       q    Type
REMARK                         _______ _______ _______ _____ _____    ______ ____
ROOT
ATOM      1  C   UNL     1       0.773   9.840  19.282  0.00  0.00    +0.000 A 
ATOM      2  C   UNL     1       1.098  10.843  20.111  0.00  0.00    +0.000 A 
ATOM      3  N   UNL     1       0.439  12.066  20.152  0.00  0.00    +0.000 N 
ATOM      4  C   UNL     1      -0.962  11.854  19.919  0.00  0.00    +0.000 A 
ATOM      5  C   UNL     1      -1.357  11.173  18.775  0.00  0.00    +0.000 A 
ATOM      6  C   UNL     1      -2.566  11.504  18.211  0.00  0.00    +0.000 A 
ATOM      7  C   UNL     1      -3.473  12.222  18.999  0.00  0.00    +0.000 A 
ATOM      8  C   UNL     1      -3.247  12.436  20.379  0.00  0.00    +0.000 A 
ATOM      9  N   UNL     1      -4.243  12.789  21.247  0.00  0.00    +0.000 NA
ATOM     10  C   UNL     1      -3.968  12.713  22.578  0.00  0.00    +0.000 A 
ATOM     11  C   UNL     1      -2.767  12.308  23.101  0.00  0.00    +0.000 A 
ATOM     12  C   UNL     1      -1.715  12.092  22.221  0.00  0.00    +0.000 A 
ATOM     13  C   UNL     1      -1.959  12.183  20.837  0.00  0.00    +0.000 A 
ATOM     14  C   UNL     1      -0.403  10.066  18.367  0.00  0.00    +0.000 A 
ATOM     15  O   UNL     1      -0.629   9.325  17.419  0.00  0.00    +0.000 OA
ENDROOT
BRANCH   1  17
ATOM     16  O   UNL     1       1.784   8.108  20.479  0.00  0.00    +0.000 OA
ATOM     17  C   UNL     1       1.700   8.687  19.399  0.00  0.00    +0.000 C 
ATOM     18  N   UNL     1       2.474   8.388  18.310  0.00  0.00    +0.000 N 
ATOM     19  H   UNL     1       2.491   9.053  17.542  0.00  0.00    +0.000 HD
BRANCH  18  20
ATOM     20  C   UNL     1       2.900   7.096  17.964  0.00  0.00    +0.000 C 
ATOM     21  S   UNL     1       4.424   6.697  17.380  0.00  0.00    +0.000 S 
BRANCH  20  22
ATOM     22  N   UNL     1       1.837   6.210  18.110  0.00  0.00    +0.000 N 
ATOM     23  H   UNL     1       1.066   6.416  17.486  0.00  0.00    +0.000 HD
BRANCH  22  24
ATOM     24  C   UNL     1       1.846   4.905  18.651  0.00  0.00    +0.000 A 
ATOM     25  C   UNL     1       1.679   4.655  20.015  0.00  0.00    +0.000 A 
ATOM     26  C   UNL     1       1.615   3.343  20.487  0.00  0.00    +0.000 A 
ATOM     27  C   UNL     1       1.716   2.274  19.599  0.00  0.00    +0.000 A 
ATOM     28  C   UNL     1       1.880   2.517  18.237  0.00  0.00    +0.000 A 
ATOM     29  C   UNL     1       1.934   3.829  17.763  0.00  0.00    +0.000 A 
ENDBRANCH  22  24
ENDBRANCH  20  22
ENDBRANCH  18  20
ENDBRANCH   1  17
BRANCH   7  30
ATOM     30  O   UNL     1      -4.664  12.573  18.410  0.00  0.00    +0.000 OA
ATOM     31  H   UNL     1      -4.696  12.091  17.557  0.00  0.00    +0.000 HD
ENDBRANCH   7  30
BRANCH   3  32
ATOM     32  C   UNL     1       0.845  13.034  19.045  0.00  0.00    +0.000 C 
BRANCH  32  33
ATOM     33  C   UNL     1       2.345  13.044  18.728  0.00  0.00    +0.000 C 
BRANCH  33  34
ATOM     34  O   UNL     1       2.544  12.481  17.430  0.00  0.00    +0.000 OA
ATOM     35  H   UNL     1       3.238  13.001  16.990  0.00  0.00    +0.000 HD
ENDBRANCH  33  34
ENDBRANCH  32  33
ENDBRANCH   3  32
TORSDOF 8
ENDMDL
MODEL 2
REMARK VINA RESULT:      -7.6      2.781      4.598
REMARK  Name = 
REMARK  8 active torsions:
REMARK  status: ('A' for Active; 'I' for Inactive)
REMARK    1  A    between atoms: C_2  and  C_13
REMARK    2  A    between atoms: N_3  and  C_4
REMARK    3  A    between atoms: C_4  and  N_6
REMARK    4  A    between atoms: N_6  and  C_7
REMARK    5  A    between atoms: N_15  and  C_16
REMARK    6  A    between atoms: C_16  and  C_17
REMARK    7  A    between atoms: C_17  and  O_18
REMARK    8  A    between atoms: C_22  and  O_23
REMARK                            x       y       z     vdW  Elec       q    Type
REMARK                         _______ _______ _______ _____ _____    ______ ____
ROOT
ATOM      1  C   UNL     1       1.607   8.579  19.059  0.00  0.00    +0.000 A 
ATOM      2  C   UNL     1       1.323   9.305  17.967  0.00  0.00    +0.000 A 
ATOM      3  N   UNL     1       0.585  10.483  17.985  0.00  0.00    +0.000 N 
ATOM      4  C   UNL     1       0.894  11.216  19.180  0.00  0.00    +0.000 A 
ATOM      5  C   UNL     1       0.754  10.585  20.410  0.00  0.00    +0.000 A 
ATOM      6  C   UNL     1       0.410  11.354  21.494  0.00  0.00    +0.000 A 
ATOM      7  C   UNL     1       0.575  12.740  21.384  0.00  0.00    +0.000 A 
ATOM      8  C   UNL     1       1.247  13.320  20.284  0.00  0.00    +0.000 A 
ATOM      9  N   UNL     1       1.752  14.590  20.310  0.00  0.00    +0.000 NA
ATOM     10  C   UNL     1       2.598  14.947  19.304  0.00  0.00    +0.000 A 
ATOM     11  C   UNL     1       2.973  14.122  18.276  0.00  0.00    +0.000 A 
ATOM     12  C   UNL     1       2.346  12.888  18.172  0.00  0.00    +0.000 A 
ATOM     13  C   UNL     1       1.450  12.495  19.184  0.00  0.00    +0.000 A 
ATOM     14  C   UNL     1       1.109   9.110  20.379  0.00  0.00    +0.000 A 
ATOM     15  O   UNL     1       1.102   8.415  21.387  0.00  0.00    +0.000 OA
ENDROOT
BRANCH   1  17
ATOM     16  O   UNL     1       3.050   7.309  17.734  0.00  0.00    +0.000 OA
ATOM     17  C   UNL     1       2.336   7.329  18.732  0.00  0.00    +0.000 C 
ATOM     18  N   UNL     1       2.099   6.237  19.524  0.00  0.00    +0.000 N 
ATOM     19  H   UNL     1       1.333   6.289  20.188  0.00  0.00    +0.000 HD
BRANCH  18  20
ATOM     20  C   UNL     1       3.044   5.238  19.809  0.00  0.00    +0.000 C 
ATOM     21  S   UNL     1       2.687   3.683  20.334  0.00  0.00    +0.000 S 
BRANCH  20  22
ATOM     22  N   UNL     1       4.324   5.763  19.660  0.00  0.00    +0.000 N 
ATOM     23  H   UNL     1       4.607   6.336  20.447  0.00  0.00    +0.000 HD
BRANCH  22  24
ATOM     24  C   UNL     1       5.375   5.301  18.839  0.00  0.00    +0.000 A 
ATOM     25  C   UNL     1       5.151   4.681  17.608  0.00  0.00    +0.000 A 
ATOM     26  C   UNL     1       6.228   4.315  16.798  0.00  0.00    +0.000 A 
ATOM     27  C   UNL     1       7.533   4.568  17.213  0.00  0.00    +0.000 A 
ATOM     28  C   UNL     1       7.763   5.189  18.439  0.00  0.00    +0.000 A 
ATOM     29  C   UNL     1       6.687   5.564  19.246  0.00  0.00    +0.000 A 
ENDBRANCH  22  24
ENDBRANCH  20  22
ENDBRANCH  18  20
ENDBRANCH   1  17
BRANCH   7  30
ATOM     30  O   UNL     1       0.196  13.497  22.467  0.00  0.00    +0.000 OA
ATOM     31  H   UNL     1       0.625  14.369  22.351  0.00  0.00    +0.000 HD
ENDBRANCH   7  30
BRANCH   3  32
ATOM     32  C   UNL     1      -0.924  10.276  18.069  0.00  0.00    +0.000 C 
BRANCH  32  33
ATOM     33  C   UNL     1      -1.754  11.546  17.849  0.00  0.00    +0.000 C 
BRANCH  33  34
ATOM     34  O   UNL     1      -2.025  11.680  16.452  0.00  0.00    +0.000 OA
ATOM     35  H   UNL     1      -2.194  12.622  16.277  0.00  0.00    +0.000 HD
ENDBRANCH  33  34
ENDBRANCH  32  33
ENDBRANCH   3  32
TORSDOF 8
ENDMDL
MODEL 3
REMARK VINA RESULT:      -7.5      2.760      4.495
REMARK  Name = 
REMARK  8 active torsions:
REMARK  status: ('A' for Active; 'I' for Inactive)
REMARK    1  A    between atoms: C_2  and  C_13
REMARK    2  A    between atoms: N_3  and  C_4
REMARK    3  A    between atoms: C_4  and  N_6
REMARK    4  A    between atoms: N_6  and  C_7
REMARK    5  A    between atoms: N_15  and  C_16
REMARK    6  A    between atoms: C_16  and  C_17
REMARK    7  A    between atoms: C_17  and  O_18
REMARK    8  A    between atoms: C_22  and  O_23
REMARK                            x       y       z     vdW  Elec       q    Type
REMARK                         _______ _______ _______ _____ _____    ______ ____
ROOT
ATOM      1  C   UNL     1       1.857   8.271  18.764  0.00  0.00    +0.000 A 
ATOM      2  C   UNL     1       1.614   9.223  17.850  0.00  0.00    +0.000 A 
ATOM      3  N   UNL     1       0.750  10.293  18.050  0.00  0.00    +0.000 N 
ATOM      4  C   UNL     1       0.838  10.722  19.417  0.00  0.00    +0.000 A 
ATOM      5  C   UNL     1       0.636   9.791  20.428  0.00  0.00    +0.000 A 
ATOM      6  C   UNL     1       0.088  10.230  21.609  0.00  0.00    +0.000 A 
ATOM      7  C   UNL     1       0.105  11.607  21.859  0.00  0.00    +0.000 A 
ATOM      8  C   UNL     1       0.824  12.501  21.032  0.00  0.00    +0.000 A 
ATOM      9  N   UNL     1       1.175  13.760  21.432  0.00  0.00    +0.000 NA
ATOM     10  C   UNL     1       2.081  14.429  20.666  0.00  0.00    +0.000 A 
ATOM     11  C   UNL     1       2.660  13.925  19.529  0.00  0.00    +0.000 A 
ATOM     12  C   UNL     1       2.193  12.710  19.047  0.00  0.00    +0.000 A 
ATOM     13  C   UNL     1       1.240  12.000  19.804  0.00  0.00    +0.000 A 
ATOM     14  C   UNL     1       1.158   8.407  20.092  0.00  0.00    +0.000 A 
ATOM     15  O   UNL     1       1.118   7.482  20.893  0.00  0.00    +0.000 OA
ENDROOT
BRANCH   1  17
ATOM     16  O   UNL     1       3.847   7.534  17.789  0.00  0.00    +0.000 OA
ATOM     17  C   UNL     1       2.755   7.208  18.248  0.00  0.00    +0.000 C 
ATOM     18  N   UNL     1       2.274   5.927  18.238  0.00  0.00    +0.000 N 
ATOM     19  H   UNL     1       1.287   5.788  18.433  0.00  0.00    +0.000 HD
BRANCH  18  20
ATOM     20  C   UNL     1       3.062   4.776  18.403  0.00  0.00    +0.000 C 
ATOM     21  S   UNL     1       3.455   4.070  19.876  0.00  0.00    +0.000 S 
BRANCH  20  22
ATOM     22  N   UNL     1       3.527   4.359  17.160  0.00  0.00    +0.000 N 
ATOM     23  H   UNL     1       2.788   4.283  16.470  0.00  0.00    +0.000 HD
BRANCH  22  24
ATOM     24  C   UNL     1       4.837   4.437  16.638  0.00  0.00    +0.000 A 
ATOM     25  C   UNL     1       5.101   4.446  15.266  0.00  0.00    +0.000 A 
ATOM     26  C   UNL     1       6.407   4.607  14.802  0.00  0.00    +0.000 A 
ATOM     27  C   UNL     1       7.456   4.762  15.705  0.00  0.00    +0.000 A 
ATOM     28  C   UNL     1       7.200   4.757  17.075  0.00  0.00    +0.000 A 
ATOM     29  C   UNL     1       5.892   4.605  17.540  0.00  0.00    +0.000 A 
ENDBRANCH  22  24
ENDBRANCH  20  22
ENDBRANCH  18  20
ENDBRANCH   1  17
BRANCH   7  30
ATOM     30  O   UNL     1      -0.476  12.031  23.031  0.00  0.00    +0.000 OA
ATOM     31  H   UNL     1       0.145  12.681  23.421  0.00  0.00    +0.000 HD
ENDBRANCH   7  30
BRANCH   3  32
ATOM     32  C   UNL     1      -0.726   9.946  17.877  0.00  0.00    +0.000 C 
BRANCH  32  33
ATOM     33  C   UNL     1      -1.675  11.148  17.955  0.00  0.00    +0.000 C 
BRANCH  33  34
ATOM     34  O   UNL     1      -1.865  11.669  16.638  0.00  0.00    +0.000 OA
ATOM     35  H   UNL     1      -1.012  11.603  16.174  0.00  0.00    +0.000 HD
ENDBRANCH  33  34
ENDBRANCH  32  33
ENDBRANCH   3  32
TORSDOF 8
ENDMDL
MODEL 4
REMARK VINA RESULT:      -7.4      2.379      3.795
REMARK  Name = 
REMARK  8 active torsions:
REMARK  status: ('A' for Active; 'I' for Inactive)
REMARK    1  A    between atoms: C_2  and  C_13
REMARK    2  A    between atoms: N_3  and  C_4
REMARK    3  A    between atoms: C_4  and  N_6
REMARK    4  A    between atoms: N_6  and  C_7
REMARK    5  A    between atoms: N_15  and  C_16
REMARK    6  A    between atoms: C_16  and  C_17
REMARK    7  A    between atoms: C_17  and  O_18
REMARK    8  A    between atoms: C_22  and  O_23
REMARK                            x       y       z     vdW  Elec       q    Type
REMARK                         _______ _______ _______ _____ _____    ______ ____
ROOT
ATOM      1  C   UNL     1       2.267   8.142  18.466  0.00  0.00    +0.000 A 
ATOM      2  C   UNL     1       1.838   9.132  17.669  0.00  0.00    +0.000 A 
ATOM      3  N   UNL     1       0.817  10.014  18.001  0.00  0.00    +0.000 N 
ATOM      4  C   UNL     1       0.884  10.304  19.406  0.00  0.00    +0.000 A 
ATOM      5  C   UNL     1       0.874   9.251  20.311  0.00  0.00    +0.000 A 
ATOM      6  C   UNL     1       0.304   9.463  21.543  0.00  0.00    +0.000 A 
ATOM      7  C   UNL     1       0.103  10.789  21.944  0.00  0.00    +0.000 A 
ATOM      8  C   UNL     1       0.636  11.874  21.208  0.00  0.00    +0.000 A 
ATOM      9  N   UNL     1       0.789  13.124  21.739  0.00  0.00    +0.000 NA
ATOM     10  C   UNL     1       1.544  14.013  21.035  0.00  0.00    +0.000 A 
ATOM     11  C   UNL     1       2.157  13.737  19.840  0.00  0.00    +0.000 A 
ATOM     12  C   UNL     1       1.878  12.519  19.235  0.00  0.00    +0.000 A 
ATOM     13  C   UNL     1       1.084  11.584  19.925  0.00  0.00    +0.000 A 
ATOM     14  C   UNL     1       1.603   8.017  19.814  0.00  0.00    +0.000 A 
ATOM     15  O   UNL     1       1.746   7.018  20.507  0.00  0.00    +0.000 OA
ENDROOT
BRANCH   1  17
ATOM     16  O   UNL     1       4.297   7.861  17.347  0.00  0.00    +0.000 OA
ATOM     17  C   UNL     1       3.308   7.306  17.820  0.00  0.00    +0.000 C 
ATOM     18  N   UNL     1       3.062   5.963  17.713  0.00  0.00    +0.000 N 
ATOM     19  H   UNL     1       2.128   5.632  17.935  0.00  0.00    +0.000 HD
BRANCH  18  20
ATOM     20  C   UNL     1       4.049   4.965  17.741  0.00  0.00    +0.000 C 
ATOM     21  S   UNL     1       5.676   5.196  17.391  0.00  0.00    +0.000 S 
BRANCH  20  22
ATOM     22  N   UNL     1       3.455   3.742  18.033  0.00  0.00    +0.000 N 
ATOM     23  H   UNL     1       3.827   2.982  17.475  0.00  0.00    +0.000 HD
BRANCH  22  24
ATOM     24  C   UNL     1       2.769   3.353  19.205  0.00  0.00    +0.000 A 
ATOM     25  C   UNL     1       3.429   2.862  20.334  0.00  0.00    +0.000 A 
ATOM     26  C   UNL     1       2.712   2.568  21.495  0.00  0.00    +0.000 A 
ATOM     27  C   UNL     1       1.334   2.765  21.535  0.00  0.00    +0.000 A 
ATOM     28  C   UNL     1       0.670   3.256  20.413  0.00  0.00    +0.000 A 
ATOM     29  C   UNL     1       1.388   3.560  19.254  0.00  0.00    +0.000 A 
ENDBRANCH  22  24
ENDBRANCH  20  22
ENDBRANCH  18  20
ENDBRANCH   1  17
BRANCH   7  30
ATOM     30  O   UNL     1      -0.496  10.983  23.165  0.00  0.00    +0.000 OA
ATOM     31  H   UNL     1      -1.461  10.981  22.996  0.00  0.00    +0.000 HD
ENDBRANCH   7  30
BRANCH   3  32
ATOM     32  C   UNL     1      -0.587   9.446  17.817  0.00  0.00    +0.000 C 
BRANCH  32  33
ATOM     33  C   UNL     1      -1.696  10.502  17.745  0.00  0.00    +0.000 C 
BRANCH  33  34
ATOM     34  O   UNL     1      -1.990  10.765  16.371  0.00  0.00    +0.000 OA
ATOM     35  H   UNL     1      -1.834   9.941  15.877  0.00  0.00    +0.000 HD
ENDBRANCH  33  34
ENDBRANCH  32  33
ENDBRANCH   3  32
TORSDOF 8
ENDMDL
MODEL 5
REMARK VINA RESULT:      -7.4      2.692      4.588
REMARK  Name = 
REMARK  8 active torsions:
REMARK  status: ('A' for Active; 'I' for Inactive)
REMARK    1  A    between atoms: C_2  and  C_13
REMARK    2  A    between atoms: N_3  and  C_4
REMARK    3  A    between atoms: C_4  and  N_6
REMARK    4  A    between atoms: N_6  and  C_7
REMARK    5  A    between atoms: N_15  and  C_16
REMARK    6  A    between atoms: C_16  and  C_17
REMARK    7  A    between atoms: C_17  and  O_18
REMARK    8  A    between atoms: C_22  and  O_23
REMARK                            x       y       z     vdW  Elec       q    Type
REMARK                         _______ _______ _______ _____ _____    ______ ____
ROOT
ATOM      1  C   UNL     1       1.462   8.618  19.604  0.00  0.00    +0.000 A 
ATOM      2  C   UNL     1       1.288   9.206  18.411  0.00  0.00    +0.000 A 
ATOM      3  N   UNL     1       0.584  10.389  18.220  0.00  0.00    +0.000 N 
ATOM      4  C   UNL     1       0.814  11.260  19.338  0.00  0.00    +0.000 A 
ATOM      5  C   UNL     1       0.557  10.791  20.620  0.00  0.00    +0.000 A 
ATOM      6  C   UNL     1       0.146  11.696  21.568  0.00  0.00    +0.000 A 
ATOM      7  C   UNL     1       0.357  13.054  21.302  0.00  0.00    +0.000 A 
ATOM      8  C   UNL     1       1.133  13.480  20.199  0.00  0.00    +0.000 A 
ATOM      9  N   UNL     1       1.669  14.735  20.111  0.00  0.00    +0.000 NA
ATOM     10  C   UNL     1       2.603  14.948  19.143  0.00  0.00    +0.000 A 
ATOM     11  C   UNL     1       3.039  13.994  18.260  0.00  0.00    +0.000 A 
ATOM     12  C   UNL     1       2.388  12.768  18.257  0.00  0.00    +0.000 A 
ATOM     13  C   UNL     1       1.402  12.520  19.230  0.00  0.00    +0.000 A 
ATOM     14  C   UNL     1       0.872   9.318  20.802  0.00  0.00    +0.000 A 
ATOM     15  O   UNL     1       0.764   8.755  21.883  0.00  0.00    +0.000 OA
ENDROOT
BRANCH   1  17
ATOM     16  O   UNL     1       2.287   6.627  20.503  0.00  0.00    +0.000 OA
ATOM     17  C   UNL     1       2.181   7.324  19.497  0.00  0.00    +0.000 C 
ATOM     18  N   UNL     1       2.760   7.023  18.294  0.00  0.00    +0.000 N 
ATOM     19  H   UNL     1       2.804   7.755  17.591  0.00  0.00    +0.000 HD
BRANCH  18  20
ATOM     20  C   UNL     1       2.911   5.723  17.784  0.00  0.00    +0.000 C 
ATOM     21  S   UNL     1       1.782   4.487  17.919  0.00  0.00    +0.000 S 
BRANCH  20  22
ATOM     22  N   UNL     1       4.175   5.600  17.214  0.00  0.00    +0.000 N 
ATOM     23  H   UNL     1       4.146   5.547  16.202  0.00  0.00    +0.000 HD
BRANCH  22  24
ATOM     24  C   UNL     1       5.427   5.950  17.766  0.00  0.00    +0.000 A 
ATOM     25  C   UNL     1       5.965   5.304  18.882  0.00  0.00    +0.000 A 
ATOM     26  C   UNL     1       7.242   5.633  19.338  0.00  0.00    +0.000 A 
ATOM     27  C   UNL     1       7.990   6.608  18.681  0.00  0.00    +0.000 A 
ATOM     28  C   UNL     1       7.460   7.255  17.567  0.00  0.00    +0.000 A 
ATOM     29  C   UNL     1       6.186   6.919  17.104  0.00  0.00    +0.000 A 
ENDBRANCH  22  24
ENDBRANCH  20  22
ENDBRANCH  18  20
ENDBRANCH   1  17
BRANCH   7  30
ATOM     30  O   UNL     1      -0.088  13.947  22.247  0.00  0.00    +0.000 OA
ATOM     31  H   UNL     1       0.715  14.365  22.623  0.00  0.00    +0.000 HD
ENDBRANCH   7  30
BRANCH   3  32
ATOM     32  C   UNL     1      -0.933  10.219  18.202  0.00  0.00    +0.000 C 
BRANCH  32  33
ATOM     33  C   UNL     1      -1.715  11.519  17.977  0.00  0.00    +0.000 C 
BRANCH  33  34
ATOM     34  O   UNL     1      -1.817  11.755  16.572  0.00  0.00    +0.000 OA
ATOM     35  H   UNL     1      -2.714  12.089  16.397  0.00  0.00    +0.000 HD
ENDBRANCH  33  34
ENDBRANCH  32  33
ENDBRANCH   3  32
TORSDOF 8
ENDMDL
MODEL 6
REMARK VINA RESULT:      -7.3      2.771      4.148
REMARK  Name = 
REMARK  8 active torsions:
REMARK  status: ('A' for Active; 'I' for Inactive)
REMARK    1  A    between atoms: C_2  and  C_13
REMARK    2  A    between atoms: N_3  and  C_4
REMARK    3  A    between atoms: C_4  and  N_6
REMARK    4  A    between atoms: N_6  and  C_7
REMARK    5  A    between atoms: N_15  and  C_16
REMARK    6  A    between atoms: C_16  and  C_17
REMARK    7  A    between atoms: C_17  and  O_18
REMARK    8  A    between atoms: C_22  and  O_23
REMARK                            x       y       z     vdW  Elec       q    Type
REMARK                         _______ _______ _______ _____ _____    ______ ____
ROOT
ATOM      1  C   UNL     1       1.411   8.814  19.121  0.00  0.00    +0.000 A 
ATOM      2  C   UNL     1       1.076   9.729  18.199  0.00  0.00    +0.000 A 
ATOM      3  N   UNL     1       0.150  10.744  18.408  0.00  0.00    +0.000 N 
ATOM      4  C   UNL     1       0.254  11.206  19.763  0.00  0.00    +0.000 A 
ATOM      5  C   UNL     1       0.147  10.286  20.797  0.00  0.00    +0.000 A 
ATOM      6  C   UNL     1      -0.391  10.712  21.987  0.00  0.00    +0.000 A 
ATOM      7  C   UNL     1      -0.457  12.092  22.211  0.00  0.00    +0.000 A 
ATOM      8  C   UNL     1       0.175  13.014  21.344  0.00  0.00    +0.000 A 
ATOM      9  N   UNL     1       0.454  14.302  21.708  0.00  0.00    +0.000 NA
ATOM     10  C   UNL     1       1.289  15.012  20.899  0.00  0.00    +0.000 A 
ATOM     11  C   UNL     1       1.863  14.523  19.754  0.00  0.00    +0.000 A 
ATOM     12  C   UNL     1       1.462  13.270  19.310  0.00  0.00    +0.000 A 
ATOM     13  C   UNL     1       0.583  12.516  20.112  0.00  0.00    +0.000 A 
ATOM     14  C   UNL     1       0.748   8.932  20.470  0.00  0.00    +0.000 A 
ATOM     15  O   UNL     1       0.795   8.023  21.288  0.00  0.00    +0.000 OA
ENDROOT
BRANCH   1  17
ATOM     16  O   UNL     1       3.191   8.154  17.761  0.00  0.00    +0.000 OA
ATOM     17  C   UNL     1       2.360   7.802  18.596  0.00  0.00    +0.000 C 
ATOM     18  N   UNL     1       2.197   6.508  19.013  0.00  0.00    +0.000 N 
ATOM     19  H   UNL     1       1.353   6.279  19.530  0.00  0.00    +0.000 HD
BRANCH  18  20
ATOM     20  C   UNL     1       3.241   5.583  19.172  0.00  0.00    +0.000 C 
ATOM     21  S   UNL     1       3.103   4.075  19.898  0.00  0.00    +0.000 S 
BRANCH  20  22
ATOM     22  N   UNL     1       4.424   6.143  18.698  0.00  0.00    +0.000 N 
ATOM     23  H   UNL     1       4.797   6.853  19.318  0.00  0.00    +0.000 HD
BRANCH  22  24
ATOM     24  C   UNL     1       5.342   5.606  17.769  0.00  0.00    +0.000 A 
ATOM     25  C   UNL     1       6.619   5.175  18.137  0.00  0.00    +0.000 A 
ATOM     26  C   UNL     1       7.459   4.578  17.196  0.00  0.00    +0.000 A 
ATOM     27  C   UNL     1       7.026   4.405  15.883  0.00  0.00    +0.000 A 
ATOM     28  C   UNL     1       5.753   4.831  15.510  0.00  0.00    +0.000 A 
ATOM     29  C   UNL     1       4.909   5.420  16.453  0.00  0.00    +0.000 A 
ENDBRANCH  22  24
ENDBRANCH  20  22
ENDBRANCH  18  20
ENDBRANCH   1  17
BRANCH   7  30
ATOM     30  O   UNL     1      -1.026  12.502  23.393  0.00  0.00    +0.000 OA
ATOM     31  H   UNL     1      -0.931  13.477  23.416  0.00  0.00    +0.000 HD
ENDBRANCH   7  30
BRANCH   3  32
ATOM     32  C   UNL     1      -1.305  10.298  18.291  0.00  0.00    +0.000 C 
BRANCH  32  33
ATOM     33  C   UNL     1      -2.134  11.093  17.276  0.00  0.00    +0.000 C 
BRANCH  33  34
ATOM     34  O   UNL     1      -1.545  12.385  17.114  0.00  0.00    +0.000 OA
ATOM     35  H   UNL     1      -1.054  12.585  17.929  0.00  0.00    +0.000 HD
ENDBRANCH  33  34
ENDBRANCH  32  33
ENDBRANCH   3  32
TORSDOF 8
ENDMDL
MODEL 7
REMARK VINA RESULT:      -7.3      1.984      3.288
REMARK  Name = 
REMARK  8 active torsions:
REMARK  status: ('A' for Active; 'I' for Inactive)
REMARK    1  A    between atoms: C_2  and  C_13
REMARK    2  A    between atoms: N_3  and  C_4
REMARK    3  A    between atoms: C_4  and  N_6
REMARK    4  A    between atoms: N_6  and  C_7
REMARK    5  A    between atoms: N_15  and  C_16
REMARK    6  A    between atoms: C_16  and  C_17
REMARK    7  A    between atoms: C_17  and  O_18
REMARK    8  A    between atoms: C_22  and  O_23
REMARK                            x       y       z     vdW  Elec       q    Type
REMARK                         _______ _______ _______ _____ _____    ______ ____
ROOT
ATOM      1  C   UNL     1       0.902   9.054  20.269  0.00  0.00    +0.000 A 
ATOM      2  C   UNL     1       0.997   9.967  19.290  0.00  0.00    +0.000 A 
ATOM      3  N   UNL     1       0.250  11.138  19.241  0.00  0.00    +0.000 N 
ATOM      4  C   UNL     1       0.073  11.641  20.573  0.00  0.00    +0.000 A 
ATOM      5  C   UNL     1      -0.471  10.806  21.541  0.00  0.00    +0.000 A 
ATOM      6  C   UNL     1      -1.219  11.378  22.541  0.00  0.00    +0.000 A 
ATOM      7  C   UNL     1      -1.089  12.758  22.738  0.00  0.00    +0.000 A 
ATOM      8  C   UNL     1      -0.092  13.510  22.074  0.00  0.00    +0.000 A 
ATOM      9  N   UNL     1       0.311  14.745  22.500  0.00  0.00    +0.000 NA
ATOM     10  C   UNL     1       1.445  15.257  21.946  0.00  0.00    +0.000 A 
ATOM     11  C   UNL     1       2.204  14.619  20.999  0.00  0.00    +0.000 A 
ATOM     12  C   UNL     1       1.713  13.436  20.464  0.00  0.00    +0.000 A 
ATOM     13  C   UNL     1       0.531  12.888  20.998  0.00  0.00    +0.000 A 
ATOM     14  C   UNL     1      -0.063   9.353  21.388  0.00  0.00    +0.000 A 
ATOM     15  O   UNL     1      -0.401   8.492  22.189  0.00  0.00    +0.000 OA
ENDROOT
BRANCH   1  17
ATOM     16  O   UNL     1       1.752   6.957  20.845  0.00  0.00    +0.000 OA
ATOM     17  C   UNL     1       1.756   7.866  20.019  0.00  0.00    +0.000 C 
ATOM     18  N   UNL     1       2.567   7.895  18.917  0.00  0.00    +0.000 N 
ATOM     19  H   UNL     1       2.661   8.774  18.418  0.00  0.00    +0.000 HD
BRANCH  18  20
ATOM     20  C   UNL     1       2.938   6.765  18.170  0.00  0.00    +0.000 C 
ATOM     21  S   UNL     1       4.419   6.546  17.407  0.00  0.00    +0.000 S 
BRANCH  20  22
ATOM     22  N   UNL     1       1.859   5.889  18.100  0.00  0.00    +0.000 N 
ATOM     23  H   UNL     1       1.102   6.245  17.528  0.00  0.00    +0.000 HD
BRANCH  22  24
ATOM     24  C   UNL     1       1.839   4.496  18.332  0.00  0.00    +0.000 A 
ATOM     25  C   UNL     1       2.422   3.579  17.455  0.00  0.00    +0.000 A 
ATOM     26  C   UNL     1       2.446   2.219  17.772  0.00  0.00    +0.000 A 
ATOM     27  C   UNL     1       1.889   1.770  18.967  0.00  0.00    +0.000 A 
ATOM     28  C   UNL     1       1.307   2.681  19.847  0.00  0.00    +0.000 A 
ATOM     29  C   UNL     1       1.292   4.042  19.536  0.00  0.00    +0.000 A 
ENDBRANCH  22  24
ENDBRANCH  20  22
ENDBRANCH  18  20
ENDBRANCH   1  17
BRANCH   7  30
ATOM     30  O   UNL     1      -1.867  13.320  23.722  0.00  0.00    +0.000 OA
ATOM     31  H   UNL     1      -2.174  14.179  23.367  0.00  0.00    +0.000 HD
ENDBRANCH   7  30
BRANCH   3  32
ATOM     32  C   UNL     1      -1.177  10.949  18.735  0.00  0.00    +0.000 C 
BRANCH  32  33
ATOM     33  C   UNL     1      -1.754  12.160  17.992  0.00  0.00    +0.000 C 
BRANCH  33  34
ATOM     34  O   UNL     1      -1.869  11.835  16.605  0.00  0.00    +0.000 OA
ATOM     35  H   UNL     1      -1.020  12.055  16.183  0.00  0.00    +0.000 HD
ENDBRANCH  33  34
ENDBRANCH  32  33
ENDBRANCH   3  32
TORSDOF 8
ENDMDL
MODEL 8
REMARK VINA RESULT:      -7.3      2.125      3.367
REMARK  Name = 
REMARK  8 active torsions:
REMARK  status: ('A' for Active; 'I' for Inactive)
REMARK    1  A    between atoms: C_2  and  C_13
REMARK    2  A    between atoms: N_3  and  C_4
REMARK    3  A    between atoms: C_4  and  N_6
REMARK    4  A    between atoms: N_6  and  C_7
REMARK    5  A    between atoms: N_15  and  C_16
REMARK    6  A    between atoms: C_16  and  C_17
REMARK    7  A    between atoms: C_17  and  O_18
REMARK    8  A    between atoms: C_22  and  O_23
REMARK                            x       y       z     vdW  Elec       q    Type
REMARK                         _______ _______ _______ _____ _____    ______ ____
ROOT
ATOM      1  C   UNL     1       1.792   8.717  18.633  0.00  0.00    +0.000 A 
ATOM      2  C   UNL     1       1.328   9.721  17.874  0.00  0.00    +0.000 A 
ATOM      3  N   UNL     1       0.293  10.569  18.250  0.00  0.00    +0.000 N 
ATOM      4  C   UNL     1       0.374  10.816  19.661  0.00  0.00    +0.000 A 
ATOM      5  C   UNL     1       0.403   9.735  20.533  0.00  0.00    +0.000 A 
ATOM      6  C   UNL     1      -0.152   9.895  21.779  0.00  0.00    +0.000 A 
ATOM      7  C   UNL     1      -0.377  11.203  22.225  0.00  0.00    +0.000 A 
ATOM      8  C   UNL     1       0.119  12.322  21.516  0.00  0.00    +0.000 A 
ATOM      9  N   UNL     1       0.252  13.559  22.083  0.00  0.00    +0.000 NA
ATOM     10  C   UNL     1       0.975  14.486  21.397  0.00  0.00    +0.000 A 
ATOM     11  C   UNL     1       1.575  14.262  20.185  0.00  0.00    +0.000 A 
ATOM     12  C   UNL     1       1.315  13.057  19.545  0.00  0.00    +0.000 A 
ATOM     13  C   UNL     1       0.553  12.083  20.217  0.00  0.00    +0.000 A 
ATOM     14  C   UNL     1       1.153   8.534  19.986  0.00  0.00    +0.000 A 
ATOM     15  O   UNL     1       1.329   7.518  20.645  0.00  0.00    +0.000 OA
ENDROOT
BRANCH   1  17
ATOM     16  O   UNL     1       3.424   8.430  16.988  0.00  0.00    +0.000 OA
ATOM     17  C   UNL     1       2.842   7.926  17.945  0.00  0.00    +0.000 C 
ATOM     18  N   UNL     1       3.041   6.640  18.370  0.00  0.00    +0.000 N 
ATOM     19  H   UNL     1       2.367   6.243  19.017  0.00  0.00    +0.000 HD
BRANCH  18  20
ATOM     20  C   UNL     1       4.276   5.972  18.341  0.00  0.00    +0.000 C 
ATOM     21  S   UNL     1       5.607   6.425  17.422  0.00  0.00    +0.000 S 
BRANCH  20  22
ATOM     22  N   UNL     1       4.199   4.834  19.138  0.00  0.00    +0.000 N 
ATOM     23  H   UNL     1       4.967   4.762  19.796  0.00  0.00    +0.000 HD
BRANCH  22  24
ATOM     24  C   UNL     1       3.065   4.049  19.444  0.00  0.00    +0.000 A 
ATOM     25  C   UNL     1       2.413   4.118  20.677  0.00  0.00    +0.000 A 
ATOM     26  C   UNL     1       1.249   3.380  20.900  0.00  0.00    +0.000 A 
ATOM     27  C   UNL     1       0.730   2.572  19.891  0.00  0.00    +0.000 A 
ATOM     28  C   UNL     1       1.375   2.500  18.658  0.00  0.00    +0.000 A 
ATOM     29  C   UNL     1       2.534   3.245  18.431  0.00  0.00    +0.000 A 
ENDBRANCH  22  24
ENDBRANCH  20  22
ENDBRANCH  18  20
ENDBRANCH   1  17
BRANCH   7  30
ATOM     30  O   UNL     1      -0.962  11.344  23.460  0.00  0.00    +0.000 OA
ATOM     31  H   UNL     1      -0.280  11.746  24.038  0.00  0.00    +0.000 HD
ENDBRANCH   7  30
BRANCH   3  32
ATOM     32  C   UNL     1      -1.101   9.974  18.069  0.00  0.00    +0.000 C 
BRANCH  32  33
ATOM     33  C   UNL     1      -2.100  10.897  17.362  0.00  0.00    +0.000 C 
BRANCH  33  34
ATOM     34  O   UNL     1      -1.450  12.135  17.065  0.00  0.00    +0.000 OA
ATOM     35  H   UNL     1      -1.013  12.035  16.202  0.00  0.00    +0.000 HD
ENDBRANCH  33  34
ENDBRANCH  32  33
ENDBRANCH   3  32
TORSDOF 8
ENDMDL
MODEL 9
REMARK VINA RESULT:      -7.3      4.211      6.620
REMARK  Name = 
REMARK  8 active torsions:
REMARK  status: ('A' for Active; 'I' for Inactive)
REMARK    1  A    between atoms: C_2  and  C_13
REMARK    2  A    between atoms: N_3  and  C_4
REMARK    3  A    between atoms: C_4  and  N_6
REMARK    4  A    between atoms: N_6  and  C_7
REMARK    5  A    between atoms: N_15  and  C_16
REMARK    6  A    between atoms: C_16  and  C_17
REMARK    7  A    between atoms: C_17  and  O_18
REMARK    8  A    between atoms: C_22  and  O_23
REMARK                            x       y       z     vdW  Elec       q    Type
REMARK                         _______ _______ _______ _____ _____    ______ ____
ROOT
ATOM      1  C   UNL     1      -0.932  11.420  18.988  0.00  0.00    +0.000 A 
ATOM      2  C   UNL     1      -1.158  10.605  20.030  0.00  0.00    +0.000 A 
ATOM      3  N   UNL     1      -0.667  10.825  21.311  0.00  0.00    +0.000 N 
ATOM      4  C   UNL     1      -0.675  12.234  21.585  0.00  0.00    +0.000 A 
ATOM      5  C   UNL     1      -0.026  13.092  20.707  0.00  0.00    +0.000 A 
ATOM      6  C   UNL     1       0.528  14.241  21.218  0.00  0.00    +0.000 A 
ATOM      7  C   UNL     1       0.105  14.655  22.486  0.00  0.00    +0.000 A 
ATOM      8  C   UNL     1      -0.986  14.037  23.141  0.00  0.00    +0.000 A 
ATOM      9  N   UNL     1      -1.660  14.627  24.175  0.00  0.00    +0.000 NA
ATOM     10  C   UNL     1      -2.841  14.064  24.551  0.00  0.00    +0.000 A 
ATOM     11  C   UNL     1      -3.396  12.956  23.965  0.00  0.00    +0.000 A 
ATOM     12  C   UNL     1      -2.641  12.277  23.018  0.00  0.00    +0.000 A 
ATOM     13  C   UNL     1      -1.404  12.819  22.620  0.00  0.00    +0.000 A 
ATOM     14  C   UNL     1      -0.116  12.659  19.256  0.00  0.00    +0.000 A 
ATOM     15  O   UNL     1       0.346  13.330  18.343  0.00  0.00    +0.000 OA
ENDROOT
BRANCH   1  17
ATOM     16  O   UNL     1      -1.198   9.761  17.366  0.00  0.00    +0.000 OA
ATOM     17  C   UNL     1      -1.506  10.895  17.725  0.00  0.00    +0.000 C 
ATOM     18  N   UNL     1      -2.285  11.745  16.986  0.00  0.00    +0.000 N 
ATOM     19  H   UNL     1      -2.304  12.724  17.252  0.00  0.00    +0.000 HD
BRANCH  18  20
ATOM     20  C   UNL     1      -3.366  11.343  16.184  0.00  0.00    +0.000 C 
ATOM     21  S   UNL     1      -3.255  10.371  14.819  0.00  0.00    +0.000 S 
BRANCH  20  22
ATOM     22  N   UNL     1      -4.531  11.939  16.656  0.00  0.00    +0.000 N 
ATOM     23  H   UNL     1      -5.149  12.237  15.909  0.00  0.00    +0.000 HD
BRANCH  22  24
ATOM     24  C   UNL     1      -5.135  11.809  17.926  0.00  0.00    +0.000 A 
ATOM     25  C   UNL     1      -4.599  12.394  19.076  0.00  0.00    +0.000 A 
ATOM     26  C   UNL     1      -5.278  12.303  20.293  0.00  0.00    +0.000 A 
ATOM     27  C   UNL     1      -6.496  11.631  20.365  0.00  0.00    +0.000 A 
ATOM     28  C   UNL     1      -7.036  11.048  19.221  0.00  0.00    +0.000 A 
ATOM     29  C   UNL     1      -6.363  11.146  18.002  0.00  0.00    +0.000 A 
ENDBRANCH  22  24
ENDBRANCH  20  22
ENDBRANCH  18  20
ENDBRANCH   1  17
BRANCH   7  30
ATOM     30  O   UNL     1       0.692  15.789  22.996  0.00  0.00    +0.000 OA
ATOM     31  H   UNL     1       0.268  16.543  22.537  0.00  0.00    +0.000 HD
ENDBRANCH   7  30
BRANCH   3  32
ATOM     32  C   UNL     1       0.795  10.430  21.499  0.00  0.00    +0.000 C 
BRANCH  32  33
ATOM     33  C   UNL     1       1.022   9.287  22.495  0.00  0.00    +0.000 C 
BRANCH  33  34
ATOM     34  O   UNL     1       0.416   9.637  23.741  0.00  0.00    +0.000 OA
ATOM     35  H   UNL     1       0.922   9.196  24.445  0.00  0.00    +0.000 HD
ENDBRANCH  33  34
ENDBRANCH  32  33
ENDBRANCH   3  32
TORSDOF 8
ENDMDL
