MODEL 1
REMARK VINA RESULT:      -7.7      0.000      0.000
REMARK  Name = 
REMARK  6 active torsions:
REMARK  status: ('A' for Active; 'I' for Inactive)
REMARK    1  A    between atoms: C_1  and  C_2
REMARK    2  A    between atoms: C_7  and  C_8
REMARK    3  A    between atoms: C_15  and  C_16
REMARK    4  A    between atoms: C_17  and  C_18
REMARK    5  A    between atoms: C_21  and  C_22
REMARK    6  A    between atoms: C_22  and  N_23
REMARK                            x       y       z     vdW  Elec       q    Type
REMARK                         _______ _______ _______ _____ _____    ______ ____
ROOT
ATOM      1  C   UNL     1       2.115  12.620  20.618  0.00  0.00    +0.000 C 
ATOM      2  C   UNL     1       0.640  12.529  20.280  0.00  0.00    +0.000 A 
ATOM      3  C   UNL     1      -0.104  13.647  20.693  0.00  0.00    +0.000 A 
ATOM      4  C   UNL     1      -1.472  13.626  20.497  0.00  0.00    +0.000 A 
ATOM      5  O   UNL     1      -2.290  14.644  20.865  0.00  0.00    +0.000 OA
ATOM      6  C   UNL     1      -3.550  14.260  20.577  0.00  0.00    +0.000 A 
ATOM      7  C   UNL     1      -3.566  12.994  20.023  0.00  0.00    +0.000 A 
ATOM      8  C   UNL     1      -2.178  12.575  19.931  0.00  0.00    +0.000 A 
ATOM      9  C   UNL     1      -1.432  11.437  19.459  0.00  0.00    +0.000 A 
ATOM     10  C   UNL     1      -2.158  10.272  18.833  0.00  0.00    +0.000 C 
ATOM     11  C   UNL     1       0.011  11.397  19.659  0.00  0.00    +0.000 A 
ENDROOT
BRANCH   7  12
ATOM     12  C   UNL     1      -4.824  12.334  19.706  0.00  0.00    +0.000 A 
ATOM     13  C   UNL     1      -5.115  11.925  18.392  0.00  0.00    +0.000 A 
ATOM     14  C   UNL     1      -6.310  11.251  18.111  0.00  0.00    +0.000 A 
ATOM     15  C   UNL     1      -7.198  10.942  19.138  0.00  0.00    +0.000 A 
ATOM     16  C   UNL     1      -6.923  11.365  20.439  0.00  0.00    +0.000 A 
ATOM     17  C   UNL     1      -5.770  12.097  20.703  0.00  0.00    +0.000 A 
ENDBRANCH   7  12
BRANCH  11  18
ATOM     18  C   UNL     1       0.832  10.180  19.288  0.00  0.00    +0.000 A 
ATOM     19  C   UNL     1       1.471  10.001  18.045  0.00  0.00    +0.000 A 
ATOM     20  C   UNL     1       2.146   8.813  17.705  0.00  0.00    +0.000 A 
ATOM     21  C   UNL     1       2.362   7.823  18.661  0.00  0.00    +0.000 A 
ATOM     22  C   UNL     1       1.804   8.011  19.925  0.00  0.00    +0.000 A 
ATOM     23  C   UNL     1       1.003   9.125  20.198  0.00  0.00    +0.000 A 
BRANCH  21  24
ATOM     24  C   UNL     1       3.120   6.553  18.366  0.00  0.00    +0.000 C 
BRANCH  24  25
ATOM     25  N   UNL     1       2.578   5.288  18.856  0.00  0.00    +0.000 NA
ATOM     26  C   UNL     1       3.417   4.498  19.765  0.00  0.00    +0.000 C 
ATOM     27  C   UNL     1       4.249   3.389  19.093  0.00  0.00    +0.000 C 
ATOM     28  O   UNL     1       3.455   2.573  18.219  0.00  0.00    +0.000 OA
ATOM     29  C   UNL     1       2.813   3.376  17.224  0.00  0.00    +0.000 C 
ATOM     30  C   UNL     1       1.915   4.441  17.863  0.00  0.00    +0.000 C 
ENDBRANCH  24  25
ENDBRANCH  21  24
ENDBRANCH  11  18
TORSDOF 4
ENDMDL
MODEL 2
REMARK VINA RESULT:      -7.6      3.304      9.470
REMARK  Name = 
REMARK  6 active torsions:
REMARK  status: ('A' for Active; 'I' for Inactive)
REMARK    1  A    between atoms: C_1  and  C_2
REMARK    2  A    between atoms: C_7  and  C_8
REMARK    3  A    between atoms: C_15  and  C_16
REMARK    4  A    between atoms: C_17  and  C_18
REMARK    5  A    between atoms: C_21  and  C_22
REMARK    6  A    between atoms: C_22  and  N_23
REMARK                            x       y       z     vdW  Elec       q    Type
REMARK                         _______ _______ _______ _____ _____    ______ ____
ROOT
ATOM      1  C   UNL     1       1.270  11.888  18.309  0.00  0.00    +0.000 C 
ATOM      2  C   UNL     1       1.481  10.454  18.750  0.00  0.00    +0.000 A 
ATOM      3  C   UNL     1       2.357   9.731  17.923  0.00  0.00    +0.000 A 
ATOM      4  C   UNL     1       2.556   8.391  18.199  0.00  0.00    +0.000 A 
ATOM      5  O   UNL     1       3.370   7.595  17.462  0.00  0.00    +0.000 OA
ATOM      6  C   UNL     1       3.278   6.353  17.979  0.00  0.00    +0.000 A 
ATOM      7  C   UNL     1       2.406   6.327  19.050  0.00  0.00    +0.000 A 
ATOM      8  C   UNL     1       1.944   7.693  19.230  0.00  0.00    +0.000 A 
ATOM      9  C   UNL     1       1.077   8.423  20.118  0.00  0.00    +0.000 A 
ATOM     10  C   UNL     1       0.394   7.705  21.256  0.00  0.00    +0.000 C 
ATOM     11  C   UNL     1       0.816   9.834  19.862  0.00  0.00    +0.000 A 
ENDROOT
BRANCH   7  12
ATOM     12  C   UNL     1       2.082   5.076  19.719  0.00  0.00    +0.000 A 
ATOM     13  C   UNL     1       2.496   4.833  21.041  0.00  0.00    +0.000 A 
ATOM     14  C   UNL     1       2.139   3.643  21.687  0.00  0.00    +0.000 A 
ATOM     15  C   UNL     1       1.332   2.711  21.038  0.00  0.00    +0.000 A 
ATOM     16  C   UNL     1       0.936   2.938  19.720  0.00  0.00    +0.000 A 
ATOM     17  C   UNL     1       1.353   4.088  19.058  0.00  0.00    +0.000 A 
ENDBRANCH   7  12
BRANCH  11  18
ATOM     18  C   UNL     1      -0.175  10.623  20.692  0.00  0.00    +0.000 A 
ATOM     19  C   UNL     1      -1.247  11.364  20.158  0.00  0.00    +0.000 A 
ATOM     20  C   UNL     1      -2.089  12.160  20.957  0.00  0.00    +0.000 A 
ATOM     21  C   UNL     1      -2.003  12.109  22.346  0.00  0.00    +0.000 A 
ATOM     22  C   UNL     1      -0.996  11.321  22.904  0.00  0.00    +0.000 A 
ATOM     23  C   UNL     1      -0.069  10.660  22.091  0.00  0.00    +0.000 A 
BRANCH  21  24
ATOM     24  C   UNL     1      -2.911  12.902  23.252  0.00  0.00    +0.000 C 
BRANCH  24  25
ATOM     25  N   UNL     1      -3.907  13.781  22.645  0.00  0.00    +0.000 NA
ATOM     26  C   UNL     1      -3.822  15.214  22.948  0.00  0.00    +0.000 C 
ATOM     27  C   UNL     1      -4.724  15.696  24.101  0.00  0.00    +0.000 C 
ATOM     28  O   UNL     1      -6.076  15.239  23.955  0.00  0.00    +0.000 OA
ATOM     29  C   UNL     1      -6.118  13.812  23.863  0.00  0.00    +0.000 C 
ATOM     30  C   UNL     1      -5.291  13.306  22.676  0.00  0.00    +0.000 C 
ENDBRANCH  24  25
ENDBRANCH  21  24
ENDBRANCH  11  18
TORSDOF 4
ENDMDL
MODEL 3
REMARK VINA RESULT:      -7.6      3.422      9.493
REMARK  Name = 
REMARK  6 active torsions:
REMARK  status: ('A' for Active; 'I' for Inactive)
REMARK    1  A    between atoms: C_1  and  C_2
REMARK    2  A    between atoms: C_7  and  C_8
REMARK    3  A    between atoms: C_15  and  C_16
REMARK    4  A    between atoms: C_17  and  C_18
REMARK    5  A    between atoms: C_21  and  C_22
REMARK    6  A    between atoms: C_22  and  N_23
REMARK                            x       y       z     vdW  Elec       q    Type
REMARK                         _______ _______ _______ _____ _____    ______ ____
ROOT
ATOM      1  C   UNL     1       1.472  11.875  18.244  0.00  0.00    +0.000 C 
ATOM      2  C   UNL     1       1.632  10.439  18.701  0.00  0.00    +0.000 A 
ATOM      3  C   UNL     1       2.502   9.684  17.895  0.00  0.00    +0.000 A 
ATOM      4  C   UNL     1       2.656   8.341  18.185  0.00  0.00    +0.000 A 
ATOM      5  O   UNL     1       3.459   7.515  17.470  0.00  0.00    +0.000 OA
ATOM      6  C   UNL     1       3.321   6.281  17.994  0.00  0.00    +0.000 A 
ATOM      7  C   UNL     1       2.430   6.290  19.050  0.00  0.00    +0.000 A 
ATOM      8  C   UNL     1       2.006   7.670  19.211  0.00  0.00    +0.000 A 
ATOM      9  C   UNL     1       1.145   8.432  20.077  0.00  0.00    +0.000 A 
ATOM     10  C   UNL     1       0.421   7.744  21.208  0.00  0.00    +0.000 C 
ATOM     11  C   UNL     1       0.930   9.848  19.805  0.00  0.00    +0.000 A 
ENDROOT
BRANCH   7  12
ATOM     12  C   UNL     1       2.058   5.054  19.723  0.00  0.00    +0.000 A 
ATOM     13  C   UNL     1       1.325   4.057  19.053  0.00  0.00    +0.000 A 
ATOM     14  C   UNL     1       1.012   2.855  19.700  0.00  0.00    +0.000 A 
ATOM     15  C   UNL     1       1.463   2.621  20.997  0.00  0.00    +0.000 A 
ATOM     16  C   UNL     1       2.172   3.615  21.672  0.00  0.00    +0.000 A 
ATOM     17  C   UNL     1       2.418   4.835  21.052  0.00  0.00    +0.000 A 
ENDBRANCH   7  12
BRANCH  11  18
ATOM     18  C   UNL     1      -0.052  10.673  20.612  0.00  0.00    +0.000 A 
ATOM     19  C   UNL     1       0.040  10.880  22.002  0.00  0.00    +0.000 A 
ATOM     20  C   UNL     1      -0.945  11.576  22.729  0.00  0.00    +0.000 A 
ATOM     21  C   UNL     1      -1.973  12.244  22.069  0.00  0.00    +0.000 A 
ATOM     22  C   UNL     1      -2.042  12.117  20.682  0.00  0.00    +0.000 A 
ATOM     23  C   UNL     1      -1.146  11.294  19.991  0.00  0.00    +0.000 A 
BRANCH  21  24
ATOM     24  C   UNL     1      -3.027  13.044  22.794  0.00  0.00    +0.000 C 
BRANCH  24  25
ATOM     25  N   UNL     1      -2.789  14.466  23.021  0.00  0.00    +0.000 NA
ATOM     26  C   UNL     1      -1.995  14.842  24.196  0.00  0.00    +0.000 C 
ATOM     27  C   UNL     1      -2.811  15.216  25.448  0.00  0.00    +0.000 C 
ATOM     28  O   UNL     1      -3.847  16.163  25.153  0.00  0.00    +0.000 OA
ATOM     29  C   UNL     1      -4.716  15.658  24.134  0.00  0.00    +0.000 C 
ATOM     30  C   UNL     1      -3.943  15.350  22.848  0.00  0.00    +0.000 C 
ENDBRANCH  24  25
ENDBRANCH  21  24
ENDBRANCH  11  18
TORSDOF 4
ENDMDL
MODEL 4
REMARK VINA RESULT:      -7.6      2.934      9.311
REMARK  Name = 
REMARK  6 active torsions:
REMARK  status: ('A' for Active; 'I' for Inactive)
REMARK    1  A    between atoms: C_1  and  C_2
REMARK    2  A    between atoms: C_7  and  C_8
REMARK    3  A    between atoms: C_15  and  C_16
REMARK    4  A    between atoms: C_17  and  C_18
REMARK    5  A    between atoms: C_21  and  C_22
REMARK    6  A    between atoms: C_22  and  N_23
REMARK                            x       y       z     vdW  Elec       q    Type
REMARK                         _______ _______ _______ _____ _____    ______ ____
ROOT
ATOM      1  C   UNL     1       1.708  11.713  17.979  0.00  0.00    +0.000 C 
ATOM      2  C   UNL     1       1.820  10.291  18.492  0.00  0.00    +0.000 A 
ATOM      3  C   UNL     1       2.706   9.491  17.750  0.00  0.00    +0.000 A 
ATOM      4  C   UNL     1       2.820   8.157  18.092  0.00  0.00    +0.000 A 
ATOM      5  O   UNL     1       3.634   7.291  17.440  0.00  0.00    +0.000 OA
ATOM      6  C   UNL     1       3.450   6.079  18.001  0.00  0.00    +0.000 A 
ATOM      7  C   UNL     1       2.517   6.142  19.019  0.00  0.00    +0.000 A 
ATOM      8  C   UNL     1       2.115   7.535  19.113  0.00  0.00    +0.000 A 
ATOM      9  C   UNL     1       1.236   8.345  19.917  0.00  0.00    +0.000 A 
ATOM     10  C   UNL     1       0.453   7.711  21.040  0.00  0.00    +0.000 C 
ATOM     11  C   UNL     1       1.062   9.754  19.586  0.00  0.00    +0.000 A 
ENDROOT
BRANCH   7  12
ATOM     12  C   UNL     1       2.092   4.939  19.718  0.00  0.00    +0.000 A 
ATOM     13  C   UNL     1       1.326   3.955  19.068  0.00  0.00    +0.000 A 
ATOM     14  C   UNL     1       0.962   2.783  19.741  0.00  0.00    +0.000 A 
ATOM     15  C   UNL     1       1.394   2.563  21.046  0.00  0.00    +0.000 A 
ATOM     16  C   UNL     1       2.137   3.545  21.703  0.00  0.00    +0.000 A 
ATOM     17  C   UNL     1       2.435   4.739  21.055  0.00  0.00    +0.000 A 
ENDBRANCH   7  12
BRANCH  11  18
ATOM     18  C   UNL     1       0.066  10.626  20.323  0.00  0.00    +0.000 A 
ATOM     19  C   UNL     1       0.118  10.899  21.704  0.00  0.00    +0.000 A 
ATOM     20  C   UNL     1      -0.880  11.638  22.367  0.00  0.00    +0.000 A 
ATOM     21  C   UNL     1      -1.880  12.284  21.645  0.00  0.00    +0.000 A 
ATOM     22  C   UNL     1      -1.910  12.091  20.264  0.00  0.00    +0.000 A 
ATOM     23  C   UNL     1      -1.003  11.227  19.640  0.00  0.00    +0.000 A 
BRANCH  21  24
ATOM     24  C   UNL     1      -2.947  13.127  22.298  0.00  0.00    +0.000 C 
BRANCH  24  25
ATOM     25  N   UNL     1      -4.268  12.542  22.508  0.00  0.00    +0.000 NA
ATOM     26  C   UNL     1      -5.209  12.569  21.383  0.00  0.00    +0.000 C 
ATOM     27  C   UNL     1      -6.202  13.747  21.386  0.00  0.00    +0.000 C 
ATOM     28  O   UNL     1      -6.851  13.902  22.656  0.00  0.00    +0.000 OA
ATOM     29  C   UNL     1      -5.885  14.073  23.698  0.00  0.00    +0.000 C 
ATOM     30  C   UNL     1      -4.929  12.877  23.771  0.00  0.00    +0.000 C 
ENDBRANCH  24  25
ENDBRANCH  21  24
ENDBRANCH  11  18
TORSDOF 4
ENDMDL
MODEL 5
REMARK VINA RESULT:      -7.5      3.466      9.436
REMARK  Name = 
REMARK  6 active torsions:
REMARK  status: ('A' for Active; 'I' for Inactive)
REMARK    1  A    between atoms: C_1  and  C_2
REMARK    2  A    between atoms: C_7  and  C_8
REMARK    3  A    between atoms: C_15  and  C_16
REMARK    4  A    between atoms: C_17  and  C_18
REMARK    5  A    between atoms: C_21  and  C_22
REMARK    6  A    between atoms: C_22  and  N_23
REMARK                            x       y       z     vdW  Elec       q    Type
REMARK                         _______ _______ _______ _____ _____    ______ ____
ROOT
ATOM      1  C   UNL     1       1.448  11.848  18.203  0.00  0.00    +0.000 C 
ATOM      2  C   UNL     1       1.624  10.415  18.664  0.00  0.00    +0.000 A 
ATOM      3  C   UNL     1       2.493   9.664  17.854  0.00  0.00    +0.000 A 
ATOM      4  C   UNL     1       2.660   8.324  18.148  0.00  0.00    +0.000 A 
ATOM      5  O   UNL     1       3.465   7.501  17.429  0.00  0.00    +0.000 OA
ATOM      6  C   UNL     1       3.341   6.268  17.960  0.00  0.00    +0.000 A 
ATOM      7  C   UNL     1       2.460   6.274  19.023  0.00  0.00    +0.000 A 
ATOM      8  C   UNL     1       2.025   7.651  19.182  0.00  0.00    +0.000 A 
ATOM      9  C   UNL     1       1.166   8.410  20.053  0.00  0.00    +0.000 A 
ATOM     10  C   UNL     1       0.457   7.720  21.193  0.00  0.00    +0.000 C 
ATOM     11  C   UNL     1       0.937   9.823  19.777  0.00  0.00    +0.000 A 
ENDROOT
BRANCH   7  12
ATOM     12  C   UNL     1       2.103   5.038  19.704  0.00  0.00    +0.000 A 
ATOM     13  C   UNL     1       2.509   4.798  21.029  0.00  0.00    +0.000 A 
ATOM     14  C   UNL     1       2.121   3.624  21.686  0.00  0.00    +0.000 A 
ATOM     15  C   UNL     1       1.292   2.706  21.046  0.00  0.00    +0.000 A 
ATOM     16  C   UNL     1       0.904   2.929  19.724  0.00  0.00    +0.000 A 
ATOM     17  C   UNL     1       1.351   4.062  19.051  0.00  0.00    +0.000 A 
ENDBRANCH   7  12
BRANCH  11  18
ATOM     18  C   UNL     1      -0.045  10.643  20.589  0.00  0.00    +0.000 A 
ATOM     19  C   UNL     1      -1.102  11.392  20.036  0.00  0.00    +0.000 A 
ATOM     20  C   UNL     1      -1.934  12.216  20.817  0.00  0.00    +0.000 A 
ATOM     21  C   UNL     1      -1.856  12.187  22.207  0.00  0.00    +0.000 A 
ATOM     22  C   UNL     1      -0.865  11.392  22.784  0.00  0.00    +0.000 A 
ATOM     23  C   UNL     1       0.054  10.702  21.987  0.00  0.00    +0.000 A 
BRANCH  21  24
ATOM     24  C   UNL     1      -2.755  13.012  23.094  0.00  0.00    +0.000 C 
BRANCH  24  25
ATOM     25  N   UNL     1      -2.536  14.454  23.161  0.00  0.00    +0.000 NA
ATOM     26  C   UNL     1      -1.389  14.931  23.942  0.00  0.00    +0.000 C 
ATOM     27  C   UNL     1      -1.708  15.344  25.391  0.00  0.00    +0.000 C 
ATOM     28  O   UNL     1      -2.836  16.228  25.465  0.00  0.00    +0.000 OA
ATOM     29  C   UNL     1      -3.986  15.628  24.862  0.00  0.00    +0.000 C 
ATOM     30  C   UNL     1      -3.725  15.277  23.393  0.00  0.00    +0.000 C 
ENDBRANCH  24  25
ENDBRANCH  21  24
ENDBRANCH  11  18
TORSDOF 4
ENDMDL
MODEL 6
REMARK VINA RESULT:      -7.5      0.386      1.293
REMARK  Name = 
REMARK  6 active torsions:
REMARK  status: ('A' for Active; 'I' for Inactive)
REMARK    1  A    between atoms: C_1  and  C_2
REMARK    2  A    between atoms: C_7  and  C_8
REMARK    3  A    between atoms: C_15  and  C_16
REMARK    4  A    between atoms: C_17  and  C_18
REMARK    5  A    between atoms: C_21  and  C_22
REMARK    6  A    between atoms: C_22  and  N_23
REMARK                            x       y       z     vdW  Elec       q    Type
REMARK                         _______ _______ _______ _____ _____    ______ ____
ROOT
ATOM      1  C   UNL     1       2.054  12.697  20.801  0.00  0.00    +0.000 C 
ATOM      2  C   UNL     1       0.576  12.633  20.471  0.00  0.00    +0.000 A 
ATOM      3  C   UNL     1      -0.148  13.760  20.895  0.00  0.00    +0.000 A 
ATOM      4  C   UNL     1      -1.517  13.762  20.708  0.00  0.00    +0.000 A 
ATOM      5  O   UNL     1      -2.316  14.791  21.087  0.00  0.00    +0.000 OA
ATOM      6  C   UNL     1      -3.584  14.429  20.804  0.00  0.00    +0.000 A 
ATOM      7  C   UNL     1      -3.624  13.168  20.242  0.00  0.00    +0.000 A 
ATOM      8  C   UNL     1      -2.244  12.726  20.139  0.00  0.00    +0.000 A 
ATOM      9  C   UNL     1      -1.519  11.580  19.655  0.00  0.00    +0.000 A 
ATOM     10  C   UNL     1      -2.267  10.431  19.025  0.00  0.00    +0.000 C 
ATOM     11  C   UNL     1      -0.075  11.516  19.845  0.00  0.00    +0.000 A 
ENDROOT
BRANCH   7  12
ATOM     12  C   UNL     1      -4.894  12.530  19.928  0.00  0.00    +0.000 A 
ATOM     13  C   UNL     1      -5.811  12.203  20.943  0.00  0.00    +0.000 A 
ATOM     14  C   UNL     1      -7.047  11.630  20.620  0.00  0.00    +0.000 A 
ATOM     15  C   UNL     1      -7.396  11.422  19.288  0.00  0.00    +0.000 A 
ATOM     16  C   UNL     1      -6.481  11.725  18.279  0.00  0.00    +0.000 A 
ATOM     17  C   UNL     1      -5.226  12.227  18.607  0.00  0.00    +0.000 A 
ENDBRANCH   7  12
BRANCH  11  18
ATOM     18  C   UNL     1       0.724  10.287  19.461  0.00  0.00    +0.000 A 
ATOM     19  C   UNL     1       0.939   9.183  20.309  0.00  0.00    +0.000 A 
ATOM     20  C   UNL     1       1.766   8.102  19.947  0.00  0.00    +0.000 A 
ATOM     21  C   UNL     1       2.270   7.998  18.654  0.00  0.00    +0.000 A 
ATOM     22  C   UNL     1       2.007   9.044  17.769  0.00  0.00    +0.000 A 
ATOM     23  C   UNL     1       1.315  10.184  18.193  0.00  0.00    +0.000 A 
BRANCH  21  24
ATOM     24  C   UNL     1       3.121   6.838  18.198  0.00  0.00    +0.000 C 
BRANCH  24  25
ATOM     25  N   UNL     1       2.891   5.527  18.797  0.00  0.00    +0.000 NA
ATOM     26  C   UNL     1       3.995   4.923  19.552  0.00  0.00    +0.000 C 
ATOM     27  C   UNL     1       4.868   3.932  18.758  0.00  0.00    +0.000 C 
ATOM     28  O   UNL     1       4.079   2.961  18.056  0.00  0.00    +0.000 OA
ATOM     29  C   UNL     1       3.149   3.605  17.180  0.00  0.00    +0.000 C 
ATOM     30  C   UNL     1       2.213   4.540  17.954  0.00  0.00    +0.000 C 
ENDBRANCH  24  25
ENDBRANCH  21  24
ENDBRANCH  11  18
TORSDOF 4
ENDMDL
MODEL 7
REMARK VINA RESULT:      -7.5      3.648      9.847
REMARK  Name = 
REMARK  6 active torsions:
REMARK  status: ('A' for Active; 'I' for Inactive)
REMARK    1  A    between atoms: C_1  and  C_2
REMARK    2  A    between atoms: C_7  and  C_8
REMARK    3  A    between atoms: C_15  and  C_16
REMARK    4  A    between atoms: C_17  and  C_18
REMARK    5  A    between atoms: C_21  and  C_22
REMARK    6  A    between atoms: C_22  and  N_23
REMARK                            x       y       z     vdW  Elec       q    Type
REMARK                         _______ _______ _______ _____ _____    ______ ____
ROOT
ATOM      1  C   UNL     1      -0.126   9.323  22.180  0.00  0.00    +0.000 C 
ATOM      2  C   UNL     1       0.653   8.568  21.122  0.00  0.00    +0.000 A 
ATOM      3  C   UNL     1       0.995   7.258  21.499  0.00  0.00    +0.000 A 
ATOM      4  C   UNL     1       1.772   6.513  20.631  0.00  0.00    +0.000 A 
ATOM      5  O   UNL     1       2.170   5.244  20.895  0.00  0.00    +0.000 OA
ATOM      6  C   UNL     1       2.951   4.854  19.867  0.00  0.00    +0.000 A 
ATOM      7  C   UNL     1       3.070   5.861  18.929  0.00  0.00    +0.000 A 
ATOM      8  C   UNL     1       2.256   6.963  19.411  0.00  0.00    +0.000 A 
ATOM      9  C   UNL     1       1.882   8.286  18.984  0.00  0.00    +0.000 A 
ATOM     10  C   UNL     1       2.382   8.816  17.662  0.00  0.00    +0.000 C 
ATOM     11  C   UNL     1       1.080   9.123  19.868  0.00  0.00    +0.000 A 
ENDROOT
BRANCH   7  12
ATOM     12  C   UNL     1       3.933   5.701  17.768  0.00  0.00    +0.000 A 
ATOM     13  C   UNL     1       4.055   4.458  17.122  0.00  0.00    +0.000 A 
ATOM     14  C   UNL     1       4.855   4.330  15.980  0.00  0.00    +0.000 A 
ATOM     15  C   UNL     1       5.500   5.445  15.450  0.00  0.00    +0.000 A 
ATOM     16  C   UNL     1       5.399   6.676  16.099  0.00  0.00    +0.000 A 
ATOM     17  C   UNL     1       4.663   6.783  17.274  0.00  0.00    +0.000 A 
ENDBRANCH   7  12
BRANCH  11  18
ATOM     18  C   UNL     1       0.753  10.561  19.522  0.00  0.00    +0.000 A 
ATOM     19  C   UNL     1       1.563  11.663  19.860  0.00  0.00    +0.000 A 
ATOM     20  C   UNL     1       1.177  12.992  19.602  0.00  0.00    +0.000 A 
ATOM     21  C   UNL     1       0.045  13.265  18.837  0.00  0.00    +0.000 A 
ATOM     22  C   UNL     1      -0.734  12.185  18.425  0.00  0.00    +0.000 A 
ATOM     23  C   UNL     1      -0.421  10.881  18.823  0.00  0.00    +0.000 A 
BRANCH  21  24
ATOM     24  C   UNL     1      -0.388  14.668  18.489  0.00  0.00    +0.000 C 
BRANCH  24  25
ATOM     25  N   UNL     1      -0.023  15.755  19.393  0.00  0.00    +0.000 NA
ATOM     26  C   UNL     1      -1.052  16.244  20.317  0.00  0.00    +0.000 C 
ATOM     27  C   UNL     1      -1.834  17.481  19.835  0.00  0.00    +0.000 C 
ATOM     28  O   UNL     1      -0.963  18.523  19.373  0.00  0.00    +0.000 OA
ATOM     29  C   UNL     1      -0.112  18.042  18.327  0.00  0.00    +0.000 C 
ATOM     30  C   UNL     1       0.737  16.858  18.803  0.00  0.00    +0.000 C 
ENDBRANCH  24  25
ENDBRANCH  21  24
ENDBRANCH  11  18
TORSDOF 4
ENDMDL
MODEL 8
REMARK VINA RESULT:      -7.5      3.419      9.496
REMARK  Name = 
REMARK  6 active torsions:
REMARK  status: ('A' for Active; 'I' for Inactive)
REMARK    1  A    between atoms: C_1  and  C_2
REMARK    2  A    between atoms: C_7  and  C_8
REMARK    3  A    between atoms: C_15  and  C_16
REMARK    4  A    between atoms: C_17  and  C_18
REMARK    5  A    between atoms: C_21  and  C_22
REMARK    6  A    between atoms: C_22  and  N_23
REMARK                            x       y       z     vdW  Elec       q    Type
REMARK                         _______ _______ _______ _____ _____    ______ ____
ROOT
ATOM      1  C   UNL     1       1.268  11.974  18.401  0.00  0.00    +0.000 C 
ATOM      2  C   UNL     1       1.477  10.531  18.811  0.00  0.00    +0.000 A 
ATOM      3  C   UNL     1       2.338   9.819  17.958  0.00  0.00    +0.000 A 
ATOM      4  C   UNL     1       2.533   8.474  18.206  0.00  0.00    +0.000 A 
ATOM      5  O   UNL     1       3.333   7.687  17.443  0.00  0.00    +0.000 OA
ATOM      6  C   UNL     1       3.241   6.436  17.937  0.00  0.00    +0.000 A 
ATOM      7  C   UNL     1       2.384   6.394  19.020  0.00  0.00    +0.000 A 
ATOM      8  C   UNL     1       1.932   7.759  19.232  0.00  0.00    +0.000 A 
ATOM      9  C   UNL     1       1.081   8.476  20.146  0.00  0.00    +0.000 A 
ATOM     10  C   UNL     1       0.410   7.739  21.279  0.00  0.00    +0.000 C 
ATOM     11  C   UNL     1       0.824   9.893  19.920  0.00  0.00    +0.000 A 
ENDROOT
BRANCH   7  12
ATOM     12  C   UNL     1       2.062   5.132  19.669  0.00  0.00    +0.000 A 
ATOM     13  C   UNL     1       2.472   4.872  20.990  0.00  0.00    +0.000 A 
ATOM     14  C   UNL     1       2.116   3.671  21.616  0.00  0.00    +0.000 A 
ATOM     15  C   UNL     1       1.317   2.745  20.951  0.00  0.00    +0.000 A 
ATOM     16  C   UNL     1       0.927   2.989  19.633  0.00  0.00    +0.000 A 
ATOM     17  C   UNL     1       1.342   4.150  18.990  0.00  0.00    +0.000 A 
ENDBRANCH   7  12
BRANCH  11  18
ATOM     18  C   UNL     1      -0.151  10.671  20.779  0.00  0.00    +0.000 A 
ATOM     19  C   UNL     1      -0.098  10.729  22.186  0.00  0.00    +0.000 A 
ATOM     20  C   UNL     1      -1.078  11.387  22.953  0.00  0.00    +0.000 A 
ATOM     21  C   UNL     1      -2.056  12.163  22.336  0.00  0.00    +0.000 A 
ATOM     22  C   UNL     1      -2.084  12.184  20.942  0.00  0.00    +0.000 A 
ATOM     23  C   UNL     1      -1.199  11.399  20.196  0.00  0.00    +0.000 A 
BRANCH  21  24
ATOM     24  C   UNL     1      -3.102  12.928  23.110  0.00  0.00    +0.000 C 
BRANCH  24  25
ATOM     25  N   UNL     1      -2.729  14.206  23.710  0.00  0.00    +0.000 NA
ATOM     26  C   UNL     1      -3.638  14.776  24.710  0.00  0.00    +0.000 C 
ATOM     27  C   UNL     1      -4.643  15.812  24.169  0.00  0.00    +0.000 C 
ATOM     28  O   UNL     1      -4.005  16.813  23.364  0.00  0.00    +0.000 OA
ATOM     29  C   UNL     1      -3.292  16.209  22.280  0.00  0.00    +0.000 C 
ATOM     30  C   UNL     1      -2.229  15.231  22.791  0.00  0.00    +0.000 C 
ENDBRANCH  24  25
ENDBRANCH  21  24
ENDBRANCH  11  18
TORSDOF 4
ENDMDL
MODEL 9
REMARK VINA RESULT:      -7.4      3.623      9.963
REMARK  Name = 
REMARK  6 active torsions:
REMARK  status: ('A' for Active; 'I' for Inactive)
REMARK    1  A    between atoms: C_1  and  C_2
REMARK    2  A    between atoms: C_7  and  C_8
REMARK    3  A    between atoms: C_15  and  C_16
REMARK    4  A    between atoms: C_17  and  C_18
REMARK    5  A    between atoms: C_21  and  C_22
REMARK    6  A    between atoms: C_22  and  N_23
REMARK                            x       y       z     vdW  Elec       q    Type
REMARK                         _______ _______ _______ _____ _____    ______ ____
ROOT
ATOM      1  C   UNL     1      -0.137   8.753  22.021  0.00  0.00    +0.000 C 
ATOM      2  C   UNL     1       0.757   8.092  20.990  0.00  0.00    +0.000 A 
ATOM      3  C   UNL     1       1.159   6.792  21.341  0.00  0.00    +0.000 A 
ATOM      4  C   UNL     1       2.037   6.133  20.502  0.00  0.00    +0.000 A 
ATOM      5  O   UNL     1       2.499   4.882  20.745  0.00  0.00    +0.000 OA
ATOM      6  C   UNL     1       3.369   4.584  19.758  0.00  0.00    +0.000 A 
ATOM      7  C   UNL     1       3.482   5.634  18.867  0.00  0.00    +0.000 A 
ATOM      8  C   UNL     1       2.568   6.662  19.333  0.00  0.00    +0.000 A 
ATOM      9  C   UNL     1       2.135   7.974  18.929  0.00  0.00    +0.000 A 
ATOM     10  C   UNL     1       2.683   8.587  17.664  0.00  0.00    +0.000 C 
ATOM     11  C   UNL     1       1.226   8.723  19.789  0.00  0.00    +0.000 A 
ENDROOT
BRANCH   7  12
ATOM     12  C   UNL     1       4.426   5.575  17.761  0.00  0.00    +0.000 A 
ATOM     13  C   UNL     1       5.574   6.388  17.745  0.00  0.00    +0.000 A 
ATOM     14  C   UNL     1       6.496   6.289  16.696  0.00  0.00    +0.000 A 
ATOM     15  C   UNL     1       6.304   5.352  15.683  0.00  0.00    +0.000 A 
ATOM     16  C   UNL     1       5.157   4.559  15.683  0.00  0.00    +0.000 A 
ATOM     17  C   UNL     1       4.208   4.711  16.689  0.00  0.00    +0.000 A 
ENDBRANCH   7  12
BRANCH  11  18
ATOM     18  C   UNL     1       0.828  10.150  19.473  0.00  0.00    +0.000 A 
ATOM     19  C   UNL     1       1.538  11.287  19.907  0.00  0.00    +0.000 A 
ATOM     20  C   UNL     1       1.082  12.598  19.672  0.00  0.00    +0.000 A 
ATOM     21  C   UNL     1      -0.010  12.830  18.840  0.00  0.00    +0.000 A 
ATOM     22  C   UNL     1      -0.687  11.720  18.335  0.00  0.00    +0.000 A 
ATOM     23  C   UNL     1      -0.315  10.423  18.705  0.00  0.00    +0.000 A 
BRANCH  21  24
ATOM     24  C   UNL     1      -0.512  14.215  18.515  0.00  0.00    +0.000 C 
BRANCH  24  25
ATOM     25  N   UNL     1      -0.121  15.320  19.385  0.00  0.00    +0.000 NA
ATOM     26  C   UNL     1      -1.192  16.122  19.987  0.00  0.00    +0.000 C 
ATOM     27  C   UNL     1      -1.554  17.412  19.226  0.00  0.00    +0.000 C 
ATOM     28  O   UNL     1      -0.393  18.190  18.903  0.00  0.00    +0.000 OA
ATOM     29  C   UNL     1       0.537  17.416  18.140  0.00  0.00    +0.000 C 
ATOM     30  C   UNL     1       0.976  16.163  18.905  0.00  0.00    +0.000 C 
ENDBRANCH  24  25
ENDBRANCH  21  24
ENDBRANCH  11  18
TORSDOF 4
ENDMDL
