MODEL 1
REMARK VINA RESULT:      -6.5      0.000      0.000
REMARK  Name = 
REMARK  5 active torsions:
REMARK  status: ('A' for Active; 'I' for Inactive)
REMARK    1  A    between atoms: C_1  and  C_2
REMARK    2  A    between atoms: C_5  and  N_6
REMARK    3  A    between atoms: C_7  and  S_8
REMARK    4  A    between atoms: N_9  and  N_10
REMARK    5  A    between atoms: C_16  and  C_17
REMARK                            x       y       z     vdW  Elec       q    Type
REMARK                         _______ _______ _______ _____ _____    ______ ____
ROOT
ATOM      1  N   UNL     1       4.791   3.877  17.333  0.00  0.00    +0.000 NA
ATOM      2  C   UNL     1       4.043   4.683  18.029  0.00  0.00    +0.000 C 
ATOM      3  N   UNL     1       3.189   4.290  19.052  0.00  0.00    +0.000 N 
ATOM      4  H   UNL     1       3.256   4.930  19.837  0.00  0.00    +0.000 HD
ENDROOT
BRANCH   1   9
ATOM      5  C   UNL     1       7.873   5.108  12.671  0.00  0.00    +0.000 C 
ATOM      6  C   UNL     1       7.064   4.837  13.904  0.00  0.00    +0.000 A 
ATOM      7  C   UNL     1       5.759   4.367  13.790  0.00  0.00    +0.000 A 
ATOM      8  C   UNL     1       5.026   4.057  14.930  0.00  0.00    +0.000 A 
ATOM      9  C   UNL     1       5.546   4.256  16.217  0.00  0.00    +0.000 A 
ATOM     10  C   UNL     1       6.887   4.667  16.340  0.00  0.00    +0.000 A 
ATOM     11  C   UNL     1       7.607   4.698  17.661  0.00  0.00    +0.000 C 
ATOM     12  C   UNL     1       7.630   4.961  15.178  0.00  0.00    +0.000 A 
ENDBRANCH   1   9
BRANCH   3  13
ATOM     13  N   UNL     1       3.063   2.905  19.353  0.00  0.00    +0.000 NA
ATOM     14  C   UNL     1       1.673   2.450  19.078  0.00  0.00    +0.000 C 
ATOM     15  C   UNL     1       0.618   2.943  20.081  0.00  0.00    +0.000 C 
ATOM     16  O   UNL     1       0.993   2.666  21.436  0.00  0.00    +0.000 OA
ATOM     17  C   UNL     1       2.268   3.247  21.722  0.00  0.00    +0.000 C 
ATOM     18  C   UNL     1       3.347   2.678  20.790  0.00  0.00    +0.000 C 
ENDBRANCH   3  13
BRANCH   2  19
ATOM     19  S   UNL     1       3.884   6.419  17.767  0.00  0.00    +0.000 S 
ATOM     20  H   UNL     1       4.305   6.368  16.492  0.00  0.00    +0.000 HD
ENDBRANCH   2  19
TORSDOF 3
ENDMDL
MODEL 2
REMARK VINA RESULT:      -5.6      4.088      7.188
REMARK  Name = 
REMARK  5 active torsions:
REMARK  status: ('A' for Active; 'I' for Inactive)
REMARK    1  A    between atoms: C_1  and  C_2
REMARK    2  A    between atoms: C_5  and  N_6
REMARK    3  A    between atoms: C_7  and  S_8
REMARK    4  A    between atoms: N_9  and  N_10
REMARK    5  A    between atoms: C_16  and  C_17
REMARK                            x       y       z     vdW  Elec       q    Type
REMARK                         _______ _______ _______ _____ _____    ______ ____
ROOT
ATOM      1  N   UNL     1       3.454   6.894  18.380  0.00  0.00    +0.000 NA
ATOM      2  C   UNL     1       3.362   5.699  17.873  0.00  0.00    +0.000 C 
ATOM      3  N   UNL     1       4.198   5.186  16.889  0.00  0.00    +0.000 N 
ATOM      4  H   UNL     1       4.455   4.228  17.105  0.00  0.00    +0.000 HD
ENDROOT
BRANCH   1   9
ATOM      5  C   UNL     1      -0.522   8.933  21.955  0.00  0.00    +0.000 C 
ATOM      6  C   UNL     1       0.553   8.438  21.033  0.00  0.00    +0.000 A 
ATOM      7  C   UNL     1       1.184   7.225  21.290  0.00  0.00    +0.000 A 
ATOM      8  C   UNL     1       2.138   6.733  20.405  0.00  0.00    +0.000 A 
ATOM      9  C   UNL     1       2.531   7.455  19.270  0.00  0.00    +0.000 A 
ATOM     10  C   UNL     1       1.850   8.649  18.967  0.00  0.00    +0.000 A 
ATOM     11  C   UNL     1       2.038   9.383  17.667  0.00  0.00    +0.000 C 
ATOM     12  C   UNL     1       0.869   9.132  19.860  0.00  0.00    +0.000 A 
ENDBRANCH   1   9
BRANCH   3  13
ATOM     13  N   UNL     1       5.209   6.022  16.338  0.00  0.00    +0.000 NA
ATOM     14  C   UNL     1       5.676   5.464  15.039  0.00  0.00    +0.000 C 
ATOM     15  C   UNL     1       6.538   4.197  15.149  0.00  0.00    +0.000 C 
ATOM     16  O   UNL     1       7.631   4.365  16.060  0.00  0.00    +0.000 OA
ATOM     17  C   UNL     1       7.143   4.754  17.347  0.00  0.00    +0.000 C 
ATOM     18  C   UNL     1       6.369   6.077  17.260  0.00  0.00    +0.000 C 
ENDBRANCH   3  13
BRANCH   2  19
ATOM     19  S   UNL     1       2.113   4.515  18.257  0.00  0.00    +0.000 S 
ATOM     20  H   UNL     1       1.518   5.291  19.179  0.00  0.00    +0.000 HD
ENDBRANCH   2  19
TORSDOF 3
ENDMDL
MODEL 3
REMARK VINA RESULT:      -5.0      8.243      9.502
REMARK  Name = 
REMARK  5 active torsions:
REMARK  status: ('A' for Active; 'I' for Inactive)
REMARK    1  A    between atoms: C_1  and  C_2
REMARK    2  A    between atoms: C_5  and  N_6
REMARK    3  A    between atoms: C_7  and  S_8
REMARK    4  A    between atoms: N_9  and  N_10
REMARK    5  A    between atoms: C_16  and  C_17
REMARK                            x       y       z     vdW  Elec       q    Type
REMARK                         _______ _______ _______ _____ _____    ______ ____
ROOT
ATOM      1  N   UNL     1       0.101  11.011  19.848  0.00  0.00    +0.000 NA
ATOM      2  C   UNL     1      -1.097  11.223  19.386  0.00  0.00    +0.000 C 
ATOM      3  N   UNL     1      -1.967  12.201  19.850  0.00  0.00    +0.000 N 
ATOM      4  H   UNL     1      -2.431  12.662  19.074  0.00  0.00    +0.000 HD
ENDROOT
BRANCH   1   9
ATOM      5  C   UNL     1       3.232   6.556  18.087  0.00  0.00    +0.000 C 
ATOM      6  C   UNL     1       2.451   7.738  18.582  0.00  0.00    +0.000 A 
ATOM      7  C   UNL     1       2.202   8.811  17.733  0.00  0.00    +0.000 A 
ATOM      8  C   UNL     1       1.427   9.880  18.167  0.00  0.00    +0.000 A 
ATOM      9  C   UNL     1       0.922   9.941  19.474  0.00  0.00    +0.000 A 
ATOM     10  C   UNL     1       1.113   8.830  20.317  0.00  0.00    +0.000 A 
ATOM     11  C   UNL     1       0.431   8.699  21.652  0.00  0.00    +0.000 C 
ATOM     12  C   UNL     1       1.884   7.740  19.861  0.00  0.00    +0.000 A 
ENDBRANCH   1   9
BRANCH   3  13
ATOM     13  N   UNL     1      -1.567  13.018  20.945  0.00  0.00    +0.000 NA
ATOM     14  C   UNL     1      -2.103  12.461  22.217  0.00  0.00    +0.000 C 
ATOM     15  C   UNL     1      -3.617  12.634  22.414  0.00  0.00    +0.000 C 
ATOM     16  O   UNL     1      -4.032  13.993  22.231  0.00  0.00    +0.000 OA
ATOM     17  C   UNL     1      -3.638  14.458  20.937  0.00  0.00    +0.000 C 
ATOM     18  C   UNL     1      -2.113  14.386  20.774  0.00  0.00    +0.000 C 
ENDBRANCH   3  13
BRANCH   2  19
ATOM     19  S   UNL     1      -1.902  10.264  18.145  0.00  0.00    +0.000 S 
ATOM     20  H   UNL     1      -1.947   9.148  18.893  0.00  0.00    +0.000 HD
ENDBRANCH   2  19
TORSDOF 3
ENDMDL
MODEL 4
REMARK VINA RESULT:      -5.0      4.502      7.082
REMARK  Name = 
REMARK  5 active torsions:
REMARK  status: ('A' for Active; 'I' for Inactive)
REMARK    1  A    between atoms: C_1  and  C_2
REMARK    2  A    between atoms: C_5  and  N_6
REMARK    3  A    between atoms: C_7  and  S_8
REMARK    4  A    between atoms: N_9  and  N_10
REMARK    5  A    between atoms: C_16  and  C_17
REMARK                            x       y       z     vdW  Elec       q    Type
REMARK                         _______ _______ _______ _____ _____    ______ ____
ROOT
ATOM      1  N   UNL     1       3.355   7.499  18.050  0.00  0.00    +0.000 NA
ATOM      2  C   UNL     1       3.360   6.225  17.785  0.00  0.00    +0.000 C 
ATOM      3  N   UNL     1       4.421   5.537  17.211  0.00  0.00    +0.000 N 
ATOM      4  H   UNL     1       4.561   4.646  17.677  0.00  0.00    +0.000 HD
ENDROOT
BRANCH   1   9
ATOM      5  C   UNL     1      -1.019  10.700  19.887  0.00  0.00    +0.000 C 
ATOM      6  C   UNL     1       0.095   9.819  19.403  0.00  0.00    +0.000 A 
ATOM      7  C   UNL     1       0.643  10.023  18.141  0.00  0.00    +0.000 A 
ATOM      8  C   UNL     1       1.715   9.249  17.712  0.00  0.00    +0.000 A 
ATOM      9  C   UNL     1       2.239   8.215  18.501  0.00  0.00    +0.000 A 
ATOM     10  C   UNL     1       1.735   8.047  19.804  0.00  0.00    +0.000 A 
ATOM     11  C   UNL     1       2.371   7.121  20.806  0.00  0.00    +0.000 C 
ATOM     12  C   UNL     1       0.660   8.850  20.239  0.00  0.00    +0.000 A 
ENDBRANCH   1   9
BRANCH   3  13
ATOM     13  N   UNL     1       5.586   6.259  16.827  0.00  0.00    +0.000 NA
ATOM     14  C   UNL     1       6.134   5.702  15.560  0.00  0.00    +0.000 C 
ATOM     15  C   UNL     1       6.816   4.331  15.695  0.00  0.00    +0.000 C 
ATOM     16  O   UNL     1       7.803   4.320  16.733  0.00  0.00    +0.000 OA
ATOM     17  C   UNL     1       7.215   4.713  17.976  0.00  0.00    +0.000 C 
ATOM     18  C   UNL     1       6.624   6.127  17.877  0.00  0.00    +0.000 C 
ENDBRANCH   3  13
BRANCH   2  19
ATOM     19  S   UNL     1       2.001   5.125  18.010  0.00  0.00    +0.000 S 
ATOM     20  H   UNL     1       1.384   5.491  16.874  0.00  0.00    +0.000 HD
ENDBRANCH   2  19
TORSDOF 3
ENDMDL
MODEL 5
REMARK VINA RESULT:      -4.9      3.690      6.911
REMARK  Name = 
REMARK  5 active torsions:
REMARK  status: ('A' for Active; 'I' for Inactive)
REMARK    1  A    between atoms: C_1  and  C_2
REMARK    2  A    between atoms: C_5  and  N_6
REMARK    3  A    between atoms: C_7  and  S_8
REMARK    4  A    between atoms: N_9  and  N_10
REMARK    5  A    between atoms: C_16  and  C_17
REMARK                            x       y       z     vdW  Elec       q    Type
REMARK                         _______ _______ _______ _____ _____    ______ ____
ROOT
ATOM      1  N   UNL     1       3.485   5.672  18.704  0.00  0.00    +0.000 NA
ATOM      2  C   UNL     1       3.175   4.716  17.877  0.00  0.00    +0.000 C 
ATOM      3  N   UNL     1       4.084   4.023  17.086  0.00  0.00    +0.000 N 
ATOM      4  H   UNL     1       3.874   3.030  17.089  0.00  0.00    +0.000 HD
ENDROOT
BRANCH   1   9
ATOM      5  C   UNL     1      -0.062   9.087  21.621  0.00  0.00    +0.000 C 
ATOM      6  C   UNL     1       0.826   8.163  20.840  0.00  0.00    +0.000 A 
ATOM      7  C   UNL     1       1.495   8.630  19.714  0.00  0.00    +0.000 A 
ATOM      8  C   UNL     1       2.366   7.795  19.022  0.00  0.00    +0.000 A 
ATOM      9  C   UNL     1       2.556   6.458  19.397  0.00  0.00    +0.000 A 
ATOM     10  C   UNL     1       1.935   5.997  20.573  0.00  0.00    +0.000 A 
ATOM     11  C   UNL     1       2.245   4.656  21.182  0.00  0.00    +0.000 C 
ATOM     12  C   UNL     1       1.068   6.857  21.280  0.00  0.00    +0.000 A 
ENDBRANCH   1   9
BRANCH   3  13
ATOM     13  N   UNL     1       5.457   4.397  17.124  0.00  0.00    +0.000 NA
ATOM     14  C   UNL     1       5.589   5.866  16.921  0.00  0.00    +0.000 C 
ATOM     15  C   UNL     1       5.315   6.351  15.489  0.00  0.00    +0.000 C 
ATOM     16  O   UNL     1       6.080   5.626  14.519  0.00  0.00    +0.000 OA
ATOM     17  C   UNL     1       5.818   4.225  14.633  0.00  0.00    +0.000 C 
ATOM     18  C   UNL     1       6.190   3.713  16.031  0.00  0.00    +0.000 C 
ENDBRANCH   3  13
BRANCH   2  19
ATOM     19  S   UNL     1       1.542   4.159  17.517  0.00  0.00    +0.000 S 
ATOM     20  H   UNL     1       1.944   3.236  16.626  0.00  0.00    +0.000 HD
ENDBRANCH   2  19
TORSDOF 3
ENDMDL
MODEL 6
REMARK VINA RESULT:      -4.9      1.504      1.955
REMARK  Name = 
REMARK  5 active torsions:
REMARK  status: ('A' for Active; 'I' for Inactive)
REMARK    1  A    between atoms: C_1  and  C_2
REMARK    2  A    between atoms: C_5  and  N_6
REMARK    3  A    between atoms: C_7  and  S_8
REMARK    4  A    between atoms: N_9  and  N_10
REMARK    5  A    between atoms: C_16  and  C_17
REMARK                            x       y       z     vdW  Elec       q    Type
REMARK                         _______ _______ _______ _____ _____    ______ ____
ROOT
ATOM      1  N   UNL     1       4.097   4.630  17.420  0.00  0.00    +0.000 NA
ATOM      2  C   UNL     1       4.504   4.797  18.645  0.00  0.00    +0.000 C 
ATOM      3  N   UNL     1       3.676   4.824  19.760  0.00  0.00    +0.000 N 
ATOM      4  H   UNL     1       4.088   4.295  20.522  0.00  0.00    +0.000 HD
ENDROOT
BRANCH   1   9
ATOM      5  C   UNL     1       7.689   4.968  12.978  0.00  0.00    +0.000 C 
ATOM      6  C   UNL     1       6.707   4.893  14.109  0.00  0.00    +0.000 A 
ATOM      7  C   UNL     1       6.422   3.666  14.700  0.00  0.00    +0.000 A 
ATOM      8  C   UNL     1       5.560   3.598  15.789  0.00  0.00    +0.000 A 
ATOM      9  C   UNL     1       4.913   4.738  16.288  0.00  0.00    +0.000 A 
ATOM     10  C   UNL     1       5.248   5.991  15.739  0.00  0.00    +0.000 A 
ATOM     11  C   UNL     1       4.784   7.289  16.342  0.00  0.00    +0.000 C 
ATOM     12  C   UNL     1       6.139   6.053  14.648  0.00  0.00    +0.000 A 
ENDBRANCH   1   9
BRANCH   3  13
ATOM     13  N   UNL     1       2.269   4.712  19.579  0.00  0.00    +0.000 NA
ATOM     14  C   UNL     1       1.589   4.665  20.902  0.00  0.00    +0.000 C 
ATOM     15  C   UNL     1       1.769   3.351  21.678  0.00  0.00    +0.000 C 
ATOM     16  O   UNL     1       1.434   2.206  20.885  0.00  0.00    +0.000 OA
ATOM     17  C   UNL     1       2.214   2.192  19.687  0.00  0.00    +0.000 C 
ATOM     18  C   UNL     1       1.957   3.457  18.855  0.00  0.00    +0.000 C 
ENDBRANCH   3  13
BRANCH   2  19
ATOM     19  S   UNL     1       6.166   5.114  19.141  0.00  0.00    +0.000 S 
ATOM     20  H   UNL     1       5.852   5.299  20.434  0.00  0.00    +0.000 HD
ENDBRANCH   2  19
TORSDOF 3
ENDMDL
MODEL 7
REMARK VINA RESULT:      -4.9      8.523      9.751
REMARK  Name = 
REMARK  5 active torsions:
REMARK  status: ('A' for Active; 'I' for Inactive)
REMARK    1  A    between atoms: C_1  and  C_2
REMARK    2  A    between atoms: C_5  and  N_6
REMARK    3  A    between atoms: C_7  and  S_8
REMARK    4  A    between atoms: N_9  and  N_10
REMARK    5  A    between atoms: C_16  and  C_17
REMARK                            x       y       z     vdW  Elec       q    Type
REMARK                         _______ _______ _______ _____ _____    ______ ____
ROOT
ATOM      1  N   UNL     1      -0.402  10.809  20.408  0.00  0.00    +0.000 NA
ATOM      2  C   UNL     1      -0.137  12.047  20.712  0.00  0.00    +0.000 C 
ATOM      3  N   UNL     1      -1.073  12.973  21.156  0.00  0.00    +0.000 N 
ATOM      4  H   UNL     1      -0.695  13.522  21.921  0.00  0.00    +0.000 HD
ENDROOT
BRANCH   1   9
ATOM      5  C   UNL     1       3.082   7.033  17.886  0.00  0.00    +0.000 C 
ATOM      6  C   UNL     1       2.211   8.045  18.571  0.00  0.00    +0.000 A 
ATOM      7  C   UNL     1       1.560   9.021  17.823  0.00  0.00    +0.000 A 
ATOM      8  C   UNL     1       0.704   9.923  18.445  0.00  0.00    +0.000 A 
ATOM      9  C   UNL     1       0.512   9.918  19.834  0.00  0.00    +0.000 A 
ATOM     10  C   UNL     1       1.114   8.893  20.588  0.00  0.00    +0.000 A 
ATOM     11  C   UNL     1       0.798   8.665  22.042  0.00  0.00    +0.000 C 
ATOM     12  C   UNL     1       1.965   7.969  19.946  0.00  0.00    +0.000 A 
ENDBRANCH   1   9
BRANCH   3  13
ATOM     13  N   UNL     1      -2.439  12.586  21.248  0.00  0.00    +0.000 NA
ATOM     14  C   UNL     1      -3.313  13.682  20.748  0.00  0.00    +0.000 C 
ATOM     15  C   UNL     1      -3.416  14.904  21.675  0.00  0.00    +0.000 C 
ATOM     16  O   UNL     1      -3.765  14.536  23.015  0.00  0.00    +0.000 OA
ATOM     17  C   UNL     1      -2.820  13.594  23.529  0.00  0.00    +0.000 C 
ATOM     18  C   UNL     1      -2.790  12.325  22.665  0.00  0.00    +0.000 C 
ENDBRANCH   3  13
BRANCH   2  19
ATOM     19  S   UNL     1       1.431  12.833  20.543  0.00  0.00    +0.000 S 
ATOM     20  H   UNL     1       2.123  11.681  20.553  0.00  0.00    +0.000 HD
ENDBRANCH   2  19
TORSDOF 3
ENDMDL
MODEL 8
REMARK VINA RESULT:      -4.9      3.884      6.972
REMARK  Name = 
REMARK  5 active torsions:
REMARK  status: ('A' for Active; 'I' for Inactive)
REMARK    1  A    between atoms: C_1  and  C_2
REMARK    2  A    between atoms: C_5  and  N_6
REMARK    3  A    between atoms: C_7  and  S_8
REMARK    4  A    between atoms: N_9  and  N_10
REMARK    5  A    between atoms: C_16  and  C_17
REMARK                            x       y       z     vdW  Elec       q    Type
REMARK                         _______ _______ _______ _____ _____    ______ ____
ROOT
ATOM      1  N   UNL     1       3.535   5.954  18.833  0.00  0.00    +0.000 NA
ATOM      2  C   UNL     1       3.185   4.979  18.046  0.00  0.00    +0.000 C 
ATOM      3  N   UNL     1       4.060   4.239  17.261  0.00  0.00    +0.000 N 
ATOM      4  H   UNL     1       3.827   3.252  17.301  0.00  0.00    +0.000 HD
ENDROOT
BRANCH   1   9
ATOM      5  C   UNL     1      -0.361   9.124  21.576  0.00  0.00    +0.000 C 
ATOM      6  C   UNL     1       0.697   8.329  20.871  0.00  0.00    +0.000 A 
ATOM      7  C   UNL     1       1.077   7.086  21.366  0.00  0.00    +0.000 A 
ATOM      8  C   UNL     1       2.014   6.318  20.682  0.00  0.00    +0.000 A 
ATOM      9  C   UNL     1       2.640   6.785  19.517  0.00  0.00    +0.000 A 
ATOM     10  C   UNL     1       2.212   8.012  18.974  0.00  0.00    +0.000 A 
ATOM     11  C   UNL     1       2.656   8.497  17.620  0.00  0.00    +0.000 C 
ATOM     12  C   UNL     1       1.247   8.775  19.664  0.00  0.00    +0.000 A 
ENDBRANCH   1   9
BRANCH   3  13
ATOM     13  N   UNL     1       5.442   4.580  17.258  0.00  0.00    +0.000 NA
ATOM     14  C   UNL     1       5.606   6.033  16.980  0.00  0.00    +0.000 C 
ATOM     15  C   UNL     1       5.319   6.454  15.530  0.00  0.00    +0.000 C 
ATOM     16  O   UNL     1       6.050   5.663  14.585  0.00  0.00    +0.000 OA
ATOM     17  C   UNL     1       5.757   4.276  14.773  0.00  0.00    +0.000 C 
ATOM     18  C   UNL     1       6.140   3.825  16.189  0.00  0.00    +0.000 C 
ENDBRANCH   3  13
BRANCH   2  19
ATOM     19  S   UNL     1       1.532   4.451  17.737  0.00  0.00    +0.000 S 
ATOM     20  H   UNL     1       1.539   3.524  18.710  0.00  0.00    +0.000 HD
ENDBRANCH   2  19
TORSDOF 3
ENDMDL
MODEL 9
REMARK VINA RESULT:      -4.8      9.267     10.571
REMARK  Name = 
REMARK  5 active torsions:
REMARK  status: ('A' for Active; 'I' for Inactive)
REMARK    1  A    between atoms: C_1  and  C_2
REMARK    2  A    between atoms: C_5  and  N_6
REMARK    3  A    between atoms: C_7  and  S_8
REMARK    4  A    between atoms: N_9  and  N_10
REMARK    5  A    between atoms: C_16  and  C_17
REMARK                            x       y       z     vdW  Elec       q    Type
REMARK                         _______ _______ _______ _____ _____    ______ ____
ROOT
ATOM      1  N   UNL     1      -1.280  11.060  21.305  0.00  0.00    +0.000 NA
ATOM      2  C   UNL     1      -1.184  12.283  21.741  0.00  0.00    +0.000 C 
ATOM      3  N   UNL     1      -2.171  12.952  22.453  0.00  0.00    +0.000 N 
ATOM      4  H   UNL     1      -1.764  13.474  23.222  0.00  0.00    +0.000 HD
ENDROOT
BRANCH   1   9
ATOM      5  C   UNL     1       2.301   8.331  17.772  0.00  0.00    +0.000 C 
ATOM      6  C   UNL     1       1.403   9.077  18.715  0.00  0.00    +0.000 A 
ATOM      7  C   UNL     1       0.414   9.916  18.214  0.00  0.00    +0.000 A 
ATOM      8  C   UNL     1      -0.460  10.562  19.082  0.00  0.00    +0.000 A 
ATOM      9  C   UNL     1      -0.343  10.436  20.473  0.00  0.00    +0.000 A 
ATOM     10  C   UNL     1       0.612   9.537  20.985  0.00  0.00    +0.000 A 
ATOM     11  C   UNL     1       0.673   9.162  22.442  0.00  0.00    +0.000 C 
ATOM     12  C   UNL     1       1.482   8.870  20.097  0.00  0.00    +0.000 A 
ENDBRANCH   1   9
BRANCH   3  13
ATOM     13  N   UNL     1      -3.411  12.297  22.698  0.00  0.00    +0.000 NA
ATOM     14  C   UNL     1      -4.433  12.762  21.722  0.00  0.00    +0.000 C 
ATOM     15  C   UNL     1      -4.945  14.194  21.950  0.00  0.00    +0.000 C 
ATOM     16  O   UNL     1      -5.387  14.399  23.297  0.00  0.00    +0.000 OA
ATOM     17  C   UNL     1      -4.333  14.090  24.214  0.00  0.00    +0.000 C 
ATOM     18  C   UNL     1      -3.890  12.628  24.061  0.00  0.00    +0.000 C 
ENDBRANCH   3  13
BRANCH   2  19
ATOM     19  S   UNL     1       0.168  13.375  21.446  0.00  0.00    +0.000 S 
ATOM     20  H   UNL     1       0.163  13.185  20.116  0.00  0.00    +0.000 HD
ENDBRANCH   2  19
TORSDOF 3
ENDMDL
