MODEL 1
REMARK VINA RESULT:      -7.0      0.000      0.000
REMARK  Name = 
REMARK  2 active torsions:
REMARK  status: ('A' for Active; 'I' for Inactive)
REMARK    1  A    between atoms: C_2  and  C_3
REMARK    2  A    between atoms: C_22  and  C_23
REMARK                            x       y       z     vdW  Elec       q    Type
REMARK                         _______ _______ _______ _____ _____    ______ ____
ROOT
ATOM      1  O   UNL     1       1.890  12.322  18.063  0.00  0.00    +0.000 OA
ATOM      2  C   UNL     1       1.888  13.125  18.987  0.00  0.00    +0.000 C 
ATOM      3  N   UNL     1       1.051  13.073  20.106  0.00  0.00    +0.000 N 
ATOM      4  C   UNL     1       0.956  14.168  21.070  0.00  0.00    +0.000 C 
ATOM      5  C   UNL     1      -0.326  13.964  21.834  0.00  0.00    +0.000 C 
ATOM      6  N   UNL     1      -1.044  12.932  21.112  0.00  0.00    +0.000 N 
ATOM      7  C   UNL     1      -1.773  12.123  21.993  0.00  0.00    +0.000 C 
ATOM      8  O   UNL     1      -2.753  12.433  22.644  0.00  0.00    +0.000 OA
ATOM      9  C   UNL     1      -0.930  10.951  22.228  0.00  0.00    +0.000 A 
ATOM     10  C   UNL     1      -1.004  10.097  23.313  0.00  0.00    +0.000 A 
ATOM     11  C   UNL     1       0.080   9.253  23.525  0.00  0.00    +0.000 A 
ATOM     12  C   UNL     1       1.193   9.289  22.661  0.00  0.00    +0.000 A 
ATOM     13  C   UNL     1       1.246  10.174  21.570  0.00  0.00    +0.000 A 
ATOM     14  C   UNL     1       0.171  11.013  21.356  0.00  0.00    +0.000 A 
ATOM     15  C   UNL     1      -0.075  12.115  20.328  0.00  0.00    +0.000 C 
ENDROOT
BRANCH   2  16
ATOM     16  C   UNL     1       2.850  14.257  18.819  0.00  0.00    +0.000 A 
ATOM     17  C   UNL     1       2.578  15.291  17.913  0.00  0.00    +0.000 A 
ATOM     18  C   UNL     1       3.488  16.346  17.773  0.00  0.00    +0.000 A 
ATOM     19  C   UNL     1       4.645  16.322  18.529  0.00  0.00    +0.000 A 
ATOM     20  F   UNL     1       5.508  17.341  18.428  0.00  0.00    +0.000 F 
ATOM     21  N   UNL     1       4.965  15.318  19.376  0.00  0.00    +0.000 NA
ATOM     22  C   UNL     1       4.077  14.294  19.466  0.00  0.00    +0.000 A 
ENDBRANCH   2  16
BRANCH  15  23
ATOM     23  C   UNL     1      -0.724  11.510  19.057  0.00  0.00    +0.000 A 
ATOM     24  C   UNL     1      -0.440  10.214  18.589  0.00  0.00    +0.000 A 
ATOM     25  C   UNL     1      -1.081   9.700  17.449  0.00  0.00    +0.000 A 
ATOM     26  C   UNL     1      -2.023  10.466  16.767  0.00  0.00    +0.000 A 
ATOM     27 CL   UNL     1      -2.869   9.805  15.423  0.00  0.00    +0.000 Cl
ATOM     28  C   UNL     1      -2.294  11.762  17.179  0.00  0.00    +0.000 A 
ATOM     29  C   UNL     1      -1.633  12.281  18.294  0.00  0.00    +0.000 A 
ENDBRANCH  15  23
TORSDOF 2
ENDMDL
MODEL 2
REMARK VINA RESULT:      -6.9      6.792     10.037
REMARK  Name = 
REMARK  2 active torsions:
REMARK  status: ('A' for Active; 'I' for Inactive)
REMARK    1  A    between atoms: C_2  and  C_3
REMARK    2  A    between atoms: C_22  and  C_23
REMARK                            x       y       z     vdW  Elec       q    Type
REMARK                         _______ _______ _______ _____ _____    ______ ____
ROOT
ATOM      1  O   UNL     1       6.101  14.304  20.697  0.00  0.00    +0.000 OA
ATOM      2  C   UNL     1       6.398  14.937  19.692  0.00  0.00    +0.000 C 
ATOM      3  N   UNL     1       7.696  15.125  19.205  0.00  0.00    +0.000 N 
ATOM      4  C   UNL     1       8.002  16.056  18.122  0.00  0.00    +0.000 C 
ATOM      5  C   UNL     1       9.482  16.327  18.188  0.00  0.00    +0.000 C 
ATOM      6  N   UNL     1       9.920  15.766  19.451  0.00  0.00    +0.000 N 
ATOM      7  C   UNL     1      11.217  15.248  19.343  0.00  0.00    +0.000 C 
ATOM      8  O   UNL     1      12.252  15.870  19.192  0.00  0.00    +0.000 OA
ATOM      9  C   UNL     1      11.043  13.815  19.110  0.00  0.00    +0.000 A 
ATOM     10  C   UNL     1      11.967  12.964  18.531  0.00  0.00    +0.000 A 
ATOM     11  C   UNL     1      11.499  11.729  18.097  0.00  0.00    +0.000 A 
ATOM     12  C   UNL     1      10.140  11.386  18.247  0.00  0.00    +0.000 A 
ATOM     13  C   UNL     1       9.220  12.275  18.831  0.00  0.00    +0.000 A 
ATOM     14  C   UNL     1       9.681  13.501  19.264  0.00  0.00    +0.000 A 
ATOM     15  C   UNL     1       8.965  14.704  19.874  0.00  0.00    +0.000 C 
ENDROOT
BRANCH   2  16
ATOM     16  C   UNL     1       5.236  15.578  19.005  0.00  0.00    +0.000 A 
ATOM     17  C   UNL     1       4.671  14.988  17.867  0.00  0.00    +0.000 A 
ATOM     18  C   UNL     1       3.579  15.600  17.239  0.00  0.00    +0.000 A 
ATOM     19  C   UNL     1       3.100  16.787  17.760  0.00  0.00    +0.000 A 
ATOM     20  F   UNL     1       2.037  17.366  17.189  0.00  0.00    +0.000 F 
ATOM     21  N   UNL     1       3.650  17.411  18.826  0.00  0.00    +0.000 NA
ATOM     22  C   UNL     1       4.727  16.809  19.394  0.00  0.00    +0.000 A 
ENDBRANCH   2  16
BRANCH  15  23
ATOM     23  C   UNL     1       8.912  14.555  21.416  0.00  0.00    +0.000 A 
ATOM     24  C   UNL     1       8.962  15.650  22.299  0.00  0.00    +0.000 A 
ATOM     25  C   UNL     1       8.876  15.464  23.688  0.00  0.00    +0.000 A 
ATOM     26  C   UNL     1       8.727  14.184  24.218  0.00  0.00    +0.000 A 
ATOM     27 CL   UNL     1       8.537  13.966  25.914  0.00  0.00    +0.000 Cl
ATOM     28  C   UNL     1       8.716  13.082  23.378  0.00  0.00    +0.000 A 
ATOM     29  C   UNL     1       8.832  13.268  21.999  0.00  0.00    +0.000 A 
ENDBRANCH  15  23
TORSDOF 2
ENDMDL
MODEL 3
REMARK VINA RESULT:      -6.5      3.902      6.015
REMARK  Name = 
REMARK  2 active torsions:
REMARK  status: ('A' for Active; 'I' for Inactive)
REMARK    1  A    between atoms: C_2  and  C_3
REMARK    2  A    between atoms: C_22  and  C_23
REMARK                            x       y       z     vdW  Elec       q    Type
REMARK                         _______ _______ _______ _____ _____    ______ ____
ROOT
ATOM      1  O   UNL     1       1.657  10.670  18.330  0.00  0.00    +0.000 OA
ATOM      2  C   UNL     1       1.229   9.925  19.203  0.00  0.00    +0.000 C 
ATOM      3  N   UNL     1       0.334  10.289  20.214  0.00  0.00    +0.000 N 
ATOM      4  C   UNL     1       0.022   9.413  21.341  0.00  0.00    +0.000 C 
ATOM      5  C   UNL     1      -0.579  10.284  22.413  0.00  0.00    +0.000 C 
ATOM      6  N   UNL     1      -0.346  11.647  21.979  0.00  0.00    +0.000 N 
ATOM      7  C   UNL     1      -1.404  12.480  22.362  0.00  0.00    +0.000 C 
ATOM      8  O   UNL     1      -1.702  12.828  23.489  0.00  0.00    +0.000 OA
ATOM      9  C   UNL     1      -2.269  12.572  21.186  0.00  0.00    +0.000 A 
ATOM     10  C   UNL     1      -3.609  12.912  21.183  0.00  0.00    +0.000 A 
ATOM     11  C   UNL     1      -4.329  12.623  20.030  0.00  0.00    +0.000 A 
ATOM     12  C   UNL     1      -3.699  12.008  18.929  0.00  0.00    +0.000 A 
ATOM     13  C   UNL     1      -2.336  11.664  18.963  0.00  0.00    +0.000 A 
ATOM     14  C   UNL     1      -1.618  11.950  20.105  0.00  0.00    +0.000 A 
ATOM     15  C   UNL     1      -0.170  11.668  20.499  0.00  0.00    +0.000 C 
ENDROOT
BRANCH   2  16
ATOM     16  C   UNL     1       1.789   8.540  19.156  0.00  0.00    +0.000 A 
ATOM     17  C   UNL     1       2.305   8.022  17.961  0.00  0.00    +0.000 A 
ATOM     18  C   UNL     1       2.830   6.725  17.937  0.00  0.00    +0.000 A 
ATOM     19  C   UNL     1       2.806   5.984  19.103  0.00  0.00    +0.000 A 
ATOM     20  F   UNL     1       3.334   4.753  19.103  0.00  0.00    +0.000 F 
ATOM     21  N   UNL     1       2.273   6.430  20.263  0.00  0.00    +0.000 NA
ATOM     22  C   UNL     1       1.743   7.681  20.245  0.00  0.00    +0.000 A 
ENDBRANCH   2  16
BRANCH  15  23
ATOM     23  C   UNL     1       0.736  12.839  20.041  0.00  0.00    +0.000 A 
ATOM     24  C   UNL     1       0.411  13.691  18.969  0.00  0.00    +0.000 A 
ATOM     25  C   UNL     1       1.251  14.760  18.614  0.00  0.00    +0.000 A 
ATOM     26  C   UNL     1       2.420  15.003  19.331  0.00  0.00    +0.000 A 
ATOM     27 CL   UNL     1       3.404  16.362  18.950  0.00  0.00    +0.000 Cl
ATOM     28  C   UNL     1       2.788  14.157  20.366  0.00  0.00    +0.000 A 
ATOM     29  C   UNL     1       1.967  13.077  20.696  0.00  0.00    +0.000 A 
ENDBRANCH  15  23
TORSDOF 2
ENDMDL
MODEL 4
REMARK VINA RESULT:      -6.5      6.411      8.817
REMARK  Name = 
REMARK  2 active torsions:
REMARK  status: ('A' for Active; 'I' for Inactive)
REMARK    1  A    between atoms: C_2  and  C_3
REMARK    2  A    between atoms: C_22  and  C_23
REMARK                            x       y       z     vdW  Elec       q    Type
REMARK                         _______ _______ _______ _____ _____    ______ ____
ROOT
ATOM      1  O   UNL     1       7.931  15.054  19.541  0.00  0.00    +0.000 OA
ATOM      2  C   UNL     1       6.867  14.964  20.141  0.00  0.00    +0.000 C 
ATOM      3  N   UNL     1       6.693  14.388  21.404  0.00  0.00    +0.000 N 
ATOM      4  C   UNL     1       5.373  14.129  21.975  0.00  0.00    +0.000 C 
ATOM      5  C   UNL     1       5.569  13.122  23.079  0.00  0.00    +0.000 C 
ATOM      6  N   UNL     1       6.928  12.643  22.927  0.00  0.00    +0.000 N 
ATOM      7  C   UNL     1       7.499  12.361  24.174  0.00  0.00    +0.000 C 
ATOM      8  O   UNL     1       7.204  11.460  24.937  0.00  0.00    +0.000 OA
ATOM      9  C   UNL     1       8.277  13.550  24.521  0.00  0.00    +0.000 A 
ATOM     10  C   UNL     1       8.663  13.930  25.794  0.00  0.00    +0.000 A 
ATOM     11  C   UNL     1       9.098  15.240  25.955  0.00  0.00    +0.000 A 
ATOM     12  C   UNL     1       9.130  16.122  24.856  0.00  0.00    +0.000 A 
ATOM     13  C   UNL     1       8.722  15.713  23.575  0.00  0.00    +0.000 A 
ATOM     14  C   UNL     1       8.290  14.413  23.411  0.00  0.00    +0.000 A 
ATOM     15  C   UNL     1       7.732  13.667  22.201  0.00  0.00    +0.000 C 
ENDROOT
BRANCH   2  16
ATOM     16  C   UNL     1       5.690  15.488  19.384  0.00  0.00    +0.000 A 
ATOM     17  C   UNL     1       5.124  14.739  18.343  0.00  0.00    +0.000 A 
ATOM     18  C   UNL     1       4.018  15.243  17.648  0.00  0.00    +0.000 A 
ATOM     19  C   UNL     1       3.526  16.484  18.006  0.00  0.00    +0.000 A 
ATOM     20  F   UNL     1       2.449  16.964  17.372  0.00  0.00    +0.000 F 
ATOM     21  N   UNL     1       4.074  17.256  18.971  0.00  0.00    +0.000 NA
ATOM     22  C   UNL     1       5.165  16.753  19.605  0.00  0.00    +0.000 A 
ENDBRANCH   2  16
BRANCH  15  23
ATOM     23  C   UNL     1       8.894  13.028  21.398  0.00  0.00    +0.000 A 
ATOM     24  C   UNL     1       8.828  11.736  20.843  0.00  0.00    +0.000 A 
ATOM     25  C   UNL     1       9.897  11.216  20.094  0.00  0.00    +0.000 A 
ATOM     26  C   UNL     1      11.041  11.980  19.877  0.00  0.00    +0.000 A 
ATOM     27 CL   UNL     1      12.313  11.374  18.889  0.00  0.00    +0.000 Cl
ATOM     28  C   UNL     1      11.152  13.239  20.445  0.00  0.00    +0.000 A 
ATOM     29  C   UNL     1      10.101  13.742  21.215  0.00  0.00    +0.000 A 
ENDBRANCH  15  23
TORSDOF 2
ENDMDL
MODEL 5
REMARK VINA RESULT:      -6.5      3.414      5.246
REMARK  Name = 
REMARK  2 active torsions:
REMARK  status: ('A' for Active; 'I' for Inactive)
REMARK    1  A    between atoms: C_2  and  C_3
REMARK    2  A    between atoms: C_22  and  C_23
REMARK                            x       y       z     vdW  Elec       q    Type
REMARK                         _______ _______ _______ _____ _____    ______ ____
ROOT
ATOM      1  O   UNL     1      -1.108   9.673  19.690  0.00  0.00    +0.000 OA
ATOM      2  C   UNL     1      -0.005  10.149  19.452  0.00  0.00    +0.000 C 
ATOM      3  N   UNL     1       0.291  11.513  19.374  0.00  0.00    +0.000 N 
ATOM      4  C   UNL     1       1.575  12.013  18.887  0.00  0.00    +0.000 C 
ATOM      5  C   UNL     1       1.367  13.458  18.518  0.00  0.00    +0.000 C 
ATOM      6  N   UNL     1      -0.068  13.660  18.548  0.00  0.00    +0.000 N 
ATOM      7  C   UNL     1      -0.380  14.953  18.986  0.00  0.00    +0.000 C 
ATOM      8  O   UNL     1      -0.185  16.001  18.399  0.00  0.00    +0.000 OA
ATOM      9  C   UNL     1      -0.672  14.819  20.413  0.00  0.00    +0.000 A 
ATOM     10  C   UNL     1      -0.615  15.828  21.356  0.00  0.00    +0.000 A 
ATOM     11  C   UNL     1      -0.598  15.441  22.691  0.00  0.00    +0.000 A 
ATOM     12  C   UNL     1      -0.635  14.076  23.040  0.00  0.00    +0.000 A 
ATOM     13  C   UNL     1      -0.683  13.070  22.060  0.00  0.00    +0.000 A 
ATOM     14  C   UNL     1      -0.700  13.450  20.734  0.00  0.00    +0.000 A 
ATOM     15  C   UNL     1      -0.689  12.640  19.439  0.00  0.00    +0.000 C 
ENDROOT
BRANCH   2  16
ATOM     16  C   UNL     1       1.056   9.131  19.183  0.00  0.00    +0.000 A 
ATOM     17  C   UNL     1       1.621   9.014  17.906  0.00  0.00    +0.000 A 
ATOM     18  C   UNL     1       2.617   8.059  17.674  0.00  0.00    +0.000 A 
ATOM     19  C   UNL     1       3.004   7.243  18.721  0.00  0.00    +0.000 A 
ATOM     20  F   UNL     1       3.978   6.347  18.522  0.00  0.00    +0.000 F 
ATOM     21  N   UNL     1       2.448   7.293  19.953  0.00  0.00    +0.000 NA
ATOM     22  C   UNL     1       1.462   8.209  20.137  0.00  0.00    +0.000 A 
ENDBRANCH   2  16
BRANCH  15  23
ATOM     23  C   UNL     1      -2.144  12.311  19.015  0.00  0.00    +0.000 A 
ATOM     24  C   UNL     1      -2.479  11.787  17.753  0.00  0.00    +0.000 A 
ATOM     25  C   UNL     1      -3.810  11.474  17.430  0.00  0.00    +0.000 A 
ATOM     26  C   UNL     1      -4.824  11.666  18.365  0.00  0.00    +0.000 A 
ATOM     27 CL   UNL     1      -6.440  11.202  17.999  0.00  0.00    +0.000 Cl
ATOM     28  C   UNL     1      -4.531  12.218  19.603  0.00  0.00    +0.000 A 
ATOM     29  C   UNL     1      -3.212  12.557  19.910  0.00  0.00    +0.000 A 
ENDBRANCH  15  23
TORSDOF 2
ENDMDL
MODEL 6
REMARK VINA RESULT:      -6.4      3.863      6.591
REMARK  Name = 
REMARK  2 active torsions:
REMARK  status: ('A' for Active; 'I' for Inactive)
REMARK    1  A    between atoms: C_2  and  C_3
REMARK    2  A    between atoms: C_22  and  C_23
REMARK                            x       y       z     vdW  Elec       q    Type
REMARK                         _______ _______ _______ _____ _____    ______ ____
ROOT
ATOM      1  O   UNL     1      -4.208  13.032  19.711  0.00  0.00    +0.000 OA
ATOM      2  C   UNL     1      -3.869  12.917  20.882  0.00  0.00    +0.000 C 
ATOM      3  N   UNL     1      -2.599  12.535  21.326  0.00  0.00    +0.000 N 
ATOM      4  C   UNL     1      -2.318  12.219  22.725  0.00  0.00    +0.000 C 
ATOM      5  C   UNL     1      -1.033  11.432  22.742  0.00  0.00    +0.000 C 
ATOM      6  N   UNL     1      -0.770  11.096  21.357  0.00  0.00    +0.000 N 
ATOM      7  C   UNL     1       0.607  11.086  21.100  0.00  0.00    +0.000 C 
ATOM      8  O   UNL     1       1.431  10.291  21.512  0.00  0.00    +0.000 OA
ATOM      9  C   UNL     1       0.903  12.397  20.524  0.00  0.00    +0.000 A 
ATOM     10  C   UNL     1       2.139  13.018  20.500  0.00  0.00    +0.000 A 
ATOM     11  C   UNL     1       2.154  14.378  20.217  0.00  0.00    +0.000 A 
ATOM     12  C   UNL     1       0.950  15.071  19.972  0.00  0.00    +0.000 A 
ATOM     13  C   UNL     1      -0.293  14.417  20.013  0.00  0.00    +0.000 A 
ATOM     14  C   UNL     1      -0.312  13.066  20.294  0.00  0.00    +0.000 A 
ATOM     15  C   UNL     1      -1.461  12.076  20.473  0.00  0.00    +0.000 C 
ENDROOT
BRANCH   2  16
ATOM     16  C   UNL     1      -4.966  13.172  21.865  0.00  0.00    +0.000 A 
ATOM     17  C   UNL     1      -6.083  12.328  21.919  0.00  0.00    +0.000 A 
ATOM     18  C   UNL     1      -7.098  12.579  22.850  0.00  0.00    +0.000 A 
ATOM     19  C   UNL     1      -6.969  13.674  23.684  0.00  0.00    +0.000 A 
ATOM     20  F   UNL     1      -7.917  13.908  24.600  0.00  0.00    +0.000 F 
ATOM     21  N   UNL     1      -5.931  14.539  23.629  0.00  0.00    +0.000 NA
ATOM     22  C   UNL     1      -4.979  14.286  22.694  0.00  0.00    +0.000 A 
ENDBRANCH   2  16
BRANCH  15  23
ATOM     23  C   UNL     1      -1.836  11.455  19.103  0.00  0.00    +0.000 A 
ATOM     24  C   UNL     1      -2.405  10.176  18.966  0.00  0.00    +0.000 A 
ATOM     25  C   UNL     1      -2.758   9.673  17.703  0.00  0.00    +0.000 A 
ATOM     26  C   UNL     1      -2.561  10.442  16.559  0.00  0.00    +0.000 A 
ATOM     27 CL   UNL     1      -3.071   9.859  15.023  0.00  0.00    +0.000 Cl
ATOM     28  C   UNL     1      -1.964  11.690  16.657  0.00  0.00    +0.000 A 
ATOM     29  C   UNL     1      -1.586  12.175  17.910  0.00  0.00    +0.000 A 
ENDBRANCH  15  23
TORSDOF 2
ENDMDL
MODEL 7
REMARK VINA RESULT:      -6.4      3.950      6.054
REMARK  Name = 
REMARK  2 active torsions:
REMARK  status: ('A' for Active; 'I' for Inactive)
REMARK    1  A    between atoms: C_2  and  C_3
REMARK    2  A    between atoms: C_22  and  C_23
REMARK                            x       y       z     vdW  Elec       q    Type
REMARK                         _______ _______ _______ _____ _____    ______ ____
ROOT
ATOM      1  O   UNL     1       1.828  10.382  18.189  0.00  0.00    +0.000 OA
ATOM      2  C   UNL     1       1.408   9.661  19.085  0.00  0.00    +0.000 C 
ATOM      3  N   UNL     1       0.559  10.064  20.121  0.00  0.00    +0.000 N 
ATOM      4  C   UNL     1       0.259   9.210  21.268  0.00  0.00    +0.000 C 
ATOM      5  C   UNL     1      -0.279  10.111  22.349  0.00  0.00    +0.000 C 
ATOM      6  N   UNL     1      -0.020  11.461  21.890  0.00  0.00    +0.000 N 
ATOM      7  C   UNL     1      -1.040  12.330  22.298  0.00  0.00    +0.000 C 
ATOM      8  O   UNL     1      -1.289  12.699  23.430  0.00  0.00    +0.000 OA
ATOM      9  C   UNL     1      -1.940  12.435  21.151  0.00  0.00    +0.000 A 
ATOM     10  C   UNL     1      -3.269  12.815  21.188  0.00  0.00    +0.000 A 
ATOM     11  C   UNL     1      -4.036  12.534  20.063  0.00  0.00    +0.000 A 
ATOM     12  C   UNL     1      -3.461  11.888  18.950  0.00  0.00    +0.000 A 
ATOM     13  C   UNL     1      -2.110  11.504  18.942  0.00  0.00    +0.000 A 
ATOM     14  C   UNL     1      -1.345  11.781  20.057  0.00  0.00    +0.000 A 
ATOM     15  C   UNL     1       0.106  11.460  20.405  0.00  0.00    +0.000 C 
ENDROOT
BRANCH   2  16
ATOM     16  C   UNL     1       1.925   8.259  19.037  0.00  0.00    +0.000 A 
ATOM     17  C   UNL     1       1.833   7.429  20.161  0.00  0.00    +0.000 A 
ATOM     18  C   UNL     1       2.317   6.117  20.096  0.00  0.00    +0.000 A 
ATOM     19  C   UNL     1       2.890   5.685  18.914  0.00  0.00    +0.000 A 
ATOM     20  F   UNL     1       3.328   4.423  18.827  0.00  0.00    +0.000 F 
ATOM     21  N   UNL     1       3.041   6.471  17.825  0.00  0.00    +0.000 NA
ATOM     22  C   UNL     1       2.590   7.749  17.931  0.00  0.00    +0.000 A 
ENDBRANCH   2  16
BRANCH  15  23
ATOM     23  C   UNL     1       1.031  12.598  19.903  0.00  0.00    +0.000 A 
ATOM     24  C   UNL     1       2.207  12.987  20.569  0.00  0.00    +0.000 A 
ATOM     25  C   UNL     1       3.028  14.003  20.053  0.00  0.00    +0.000 A 
ATOM     26  C   UNL     1       2.696  14.637  18.859  0.00  0.00    +0.000 A 
ATOM     27 CL   UNL     1       3.747  15.821  18.184  0.00  0.00    +0.000 Cl
ATOM     28  C   UNL     1       1.522  14.305  18.200  0.00  0.00    +0.000 A 
ATOM     29  C   UNL     1       0.692  13.316  18.732  0.00  0.00    +0.000 A 
ENDBRANCH  15  23
TORSDOF 2
ENDMDL
MODEL 8
REMARK VINA RESULT:      -6.4      3.681      5.739
REMARK  Name = 
REMARK  2 active torsions:
REMARK  status: ('A' for Active; 'I' for Inactive)
REMARK    1  A    between atoms: C_2  and  C_3
REMARK    2  A    between atoms: C_22  and  C_23
REMARK                            x       y       z     vdW  Elec       q    Type
REMARK                         _______ _______ _______ _____ _____    ______ ____
ROOT
ATOM      1  O   UNL     1       1.043  11.415  18.516  0.00  0.00    +0.000 OA
ATOM      2  C   UNL     1       0.730  10.626  19.399  0.00  0.00    +0.000 C 
ATOM      3  N   UNL     1      -0.121  10.906  20.473  0.00  0.00    +0.000 N 
ATOM      4  C   UNL     1      -0.293   9.990  21.598  0.00  0.00    +0.000 C 
ATOM      5  C   UNL     1      -0.884  10.795  22.726  0.00  0.00    +0.000 C 
ATOM      6  N   UNL     1      -0.780  12.179  22.307  0.00  0.00    +0.000 N 
ATOM      7  C   UNL     1      -1.870  12.924  22.775  0.00  0.00    +0.000 C 
ATOM      8  O   UNL     1      -2.117  13.229  23.926  0.00  0.00    +0.000 OA
ATOM      9  C   UNL     1      -2.814  12.971  21.660  0.00  0.00    +0.000 A 
ATOM     10  C   UNL     1      -4.174  13.209  21.751  0.00  0.00    +0.000 A 
ATOM     11  C   UNL     1      -4.945  12.886  20.640  0.00  0.00    +0.000 A 
ATOM     12  C   UNL     1      -4.345  12.338  19.488  0.00  0.00    +0.000 A 
ATOM     13  C   UNL     1      -2.962  12.098  19.426  0.00  0.00    +0.000 A 
ATOM     14  C   UNL     1      -2.192  12.417  20.526  0.00  0.00    +0.000 A 
ATOM     15  C   UNL     1      -0.705  12.237  20.820  0.00  0.00    +0.000 C 
ENDROOT
BRANCH   2  16
ATOM     16  C   UNL     1       1.386   9.288  19.286  0.00  0.00    +0.000 A 
ATOM     17  C   UNL     1       1.885   8.843  18.055  0.00  0.00    +0.000 A 
ATOM     18  C   UNL     1       2.501   7.589  17.969  0.00  0.00    +0.000 A 
ATOM     19  C   UNL     1       2.582   6.816  19.112  0.00  0.00    +0.000 A 
ATOM     20  F   UNL     1       3.197   5.628  19.052  0.00  0.00    +0.000 F 
ATOM     21  N   UNL     1       2.069   7.189  20.306  0.00  0.00    +0.000 NA
ATOM     22  C   UNL     1       1.450   8.398  20.349  0.00  0.00    +0.000 A 
ENDBRANCH   2  16
BRANCH  15  23
ATOM     23  C   UNL     1       0.080  13.481  20.329  0.00  0.00    +0.000 A 
ATOM     24  C   UNL     1       1.326  13.864  20.859  0.00  0.00    +0.000 A 
ATOM     25  C   UNL     1       2.012  14.982  20.355  0.00  0.00    +0.000 A 
ATOM     26  C   UNL     1       1.474  15.725  19.308  0.00  0.00    +0.000 A 
ATOM     27 CL   UNL     1       2.355  17.041  18.636  0.00  0.00    +0.000 Cl
ATOM     28  C   UNL     1       0.229  15.397  18.792  0.00  0.00    +0.000 A 
ATOM     29  C   UNL     1      -0.465  14.304  19.316  0.00  0.00    +0.000 A 
ENDBRANCH  15  23
TORSDOF 2
ENDMDL
MODEL 9
REMARK VINA RESULT:      -6.3      6.859     10.357
REMARK  Name = 
REMARK  2 active torsions:
REMARK  status: ('A' for Active; 'I' for Inactive)
REMARK    1  A    between atoms: C_2  and  C_3
REMARK    2  A    between atoms: C_22  and  C_23
REMARK                            x       y       z     vdW  Elec       q    Type
REMARK                         _______ _______ _______ _____ _____    ______ ____
ROOT
ATOM      1  O   UNL     1       6.370  15.130  21.206  0.00  0.00    +0.000 OA
ATOM      2  C   UNL     1       6.561  15.354  20.017  0.00  0.00    +0.000 C 
ATOM      3  N   UNL     1       7.798  15.293  19.368  0.00  0.00    +0.000 N 
ATOM      4  C   UNL     1       7.993  15.768  18.000  0.00  0.00    +0.000 C 
ATOM      5  C   UNL     1       9.475  15.970  17.818  0.00  0.00    +0.000 C 
ATOM      6  N   UNL     1      10.044  15.867  19.147  0.00  0.00    +0.000 N 
ATOM      7  C   UNL     1      11.315  15.279  19.101  0.00  0.00    +0.000 C 
ATOM      8  O   UNL     1      12.333  15.755  18.637  0.00  0.00    +0.000 OA
ATOM      9  C   UNL     1      11.099  13.866  19.410  0.00  0.00    +0.000 A 
ATOM     10  C   UNL     1      11.942  12.821  19.081  0.00  0.00    +0.000 A 
ATOM     11  C   UNL     1      11.414  11.537  19.161  0.00  0.00    +0.000 A 
ATOM     12  C   UNL     1      10.076  11.338  19.559  0.00  0.00    +0.000 A 
ATOM     13  C   UNL     1       9.238  12.420  19.878  0.00  0.00    +0.000 A 
ATOM     14  C   UNL     1       9.758  13.696  19.801  0.00  0.00    +0.000 A 
ATOM     15  C   UNL     1       9.129  15.070  20.013  0.00  0.00    +0.000 C 
ENDROOT
BRANCH   2  16
ATOM     16  C   UNL     1       5.337  15.770  19.267  0.00  0.00    +0.000 A 
ATOM     17  C   UNL     1       4.837  14.976  18.227  0.00  0.00    +0.000 A 
ATOM     18  C   UNL     1       3.686  15.379  17.539  0.00  0.00    +0.000 A 
ATOM     19  C   UNL     1       3.085  16.569  17.903  0.00  0.00    +0.000 A 
ATOM     20  F   UNL     1       1.965  16.951  17.275  0.00  0.00    +0.000 F 
ATOM     21  N   UNL     1       3.565  17.386  18.867  0.00  0.00    +0.000 NA
ATOM     22  C   UNL     1       4.701  16.983  19.494  0.00  0.00    +0.000 A 
ENDBRANCH   2  16
BRANCH  15  23
ATOM     23  C   UNL     1       9.246  15.475  21.505  0.00  0.00    +0.000 A 
ATOM     24  C   UNL     1       9.403  16.807  21.932  0.00  0.00    +0.000 A 
ATOM     25  C   UNL     1       9.470  17.124  23.299  0.00  0.00    +0.000 A 
ATOM     26  C   UNL     1       9.370  16.121  24.260  0.00  0.00    +0.000 A 
ATOM     27 CL   UNL     1       9.367  16.521  25.933  0.00  0.00    +0.000 Cl
ATOM     28  C   UNL     1       9.256  14.796  23.870  0.00  0.00    +0.000 A 
ATOM     29  C   UNL     1       9.220  14.480  22.510  0.00  0.00    +0.000 A 
ENDBRANCH  15  23
TORSDOF 2
ENDMDL
