MODEL 1
REMARK VINA RESULT:      -7.7      0.000      0.000
REMARK  Name = 
REMARK  11 active torsions:
REMARK  status: ('A' for Active; 'I' for Inactive)
REMARK    1  A    between atoms: C_2  and  C_3
REMARK    2  A    between atoms: C_3  and  O_4
REMARK    3  A    between atoms: O_4  and  C_5
REMARK    4  A    between atoms: C_8  and  S_9
REMARK    5  A    between atoms: S_9  and  N_12
REMARK    6  A    between atoms: N_12  and  C_13
REMARK    7  A    between atoms: C_13  and  C_14
REMARK    8  A    between atoms: C_14  and  C_15
REMARK    9  A    between atoms: N_23  and  C_24
REMARK   10  A    between atoms: C_24  and  C_25
REMARK   11  A    between atoms: C_25  and  C_26
REMARK                            x       y       z     vdW  Elec       q    Type
REMARK                         _______ _______ _______ _____ _____    ______ ____
ROOT
ATOM      1  C   UNL     1       2.559   6.867  18.741  0.00  0.00    +0.000 A 
ATOM      2  C   UNL     1       2.614   6.307  20.020  0.00  0.00    +0.000 A 
ATOM      3  C   UNL     1       2.241   4.982  20.218  0.00  0.00    +0.000 A 
ATOM      4  C   UNL     1       1.739   4.230  19.155  0.00  0.00    +0.000 A 
ATOM      5  C   UNL     1       1.608   4.801  17.884  0.00  0.00    +0.000 A 
ATOM      6  C   UNL     1       2.023   6.124  17.684  0.00  0.00    +0.000 A 
ENDROOT
BRANCH   4   7
ATOM      7  S   UNL     1       1.295   2.535  19.444  0.00  0.00    +0.000 S 
ATOM      8  O   UNL     1       1.596   2.250  20.833  0.00  0.00    +0.000 OA
ATOM      9  O   UNL     1      -0.015   2.292  18.889  0.00  0.00    +0.000 OA
BRANCH   7  10
ATOM     10  N   UNL     1       2.413   1.669  18.535  0.00  0.00    +0.000 NA
ATOM     11  H   UNL     1       2.050   1.527  17.591  0.00  0.00    +0.000 HD
BRANCH  10  12
ATOM     12  C   UNL     1       3.837   2.044  18.612  0.00  0.00    +0.000 C 
BRANCH  12  13
ATOM     13  C   UNL     1       4.395   2.524  17.274  0.00  0.00    +0.000 C 
BRANCH  13  14
ATOM     14  C   UNL     1       4.959   3.909  17.397  0.00  0.00    +0.000 A 
ATOM     15  C   UNL     1       5.003   4.741  16.270  0.00  0.00    +0.000 A 
ATOM     16  C   UNL     1       5.622   5.984  16.342  0.00  0.00    +0.000 A 
ATOM     17  C   UNL     1       6.195   6.403  17.541  0.00  0.00    +0.000 A 
ATOM     18  C   UNL     1       6.131   5.590  18.673  0.00  0.00    +0.000 A 
ATOM     19  C   UNL     1       5.510   4.345  18.605  0.00  0.00    +0.000 A 
ENDBRANCH  13  14
ENDBRANCH  12  13
ENDBRANCH  10  12
ENDBRANCH   7  10
ENDBRANCH   4   7
BRANCH   1  20
ATOM     20  O   UNL     1       3.034   8.118  18.439  0.00  0.00    +0.000 OA
BRANCH  20  21
ATOM     21  C   UNL     1       2.087   8.943  17.755  0.00  0.00    +0.000 C 
BRANCH  21  23
ATOM     22  O   UNL     1       1.130   9.502  19.898  0.00  0.00    +0.000 OA
ATOM     23  C   UNL     1       1.196   9.753  18.699  0.00  0.00    +0.000 C 
ATOM     24  N   UNL     1       0.500  10.774  18.095  0.00  0.00    +0.000 N 
ATOM     25  H   UNL     1       0.702  10.956  17.118  0.00  0.00    +0.000 HD
BRANCH  24  26
ATOM     26  C   UNL     1      -0.313  11.684  18.874  0.00  0.00    +0.000 C 
BRANCH  26  27
ATOM     27  C   UNL     1      -1.699  11.114  19.159  0.00  0.00    +0.000 C 
BRANCH  27  28
ATOM     28  C   UNL     1      -2.503  10.928  17.896  0.00  0.00    +0.000 A 
ATOM     29  C   UNL     1      -3.695  11.638  17.705  0.00  0.00    +0.000 A 
ATOM     30  C   UNL     1      -4.455  11.446  16.550  0.00  0.00    +0.000 A 
ATOM     31  C   UNL     1      -4.031  10.542  15.577  0.00  0.00    +0.000 A 
ATOM     32  C   UNL     1      -2.847   9.830  15.759  0.00  0.00    +0.000 A 
ATOM     33  C   UNL     1      -2.087  10.019  16.914  0.00  0.00    +0.000 A 
ENDBRANCH  27  28
ENDBRANCH  26  27
ENDBRANCH  24  26
ENDBRANCH  21  23
ENDBRANCH  20  21
ENDBRANCH   1  20
TORSDOF 11
ENDMDL
MODEL 2
REMARK VINA RESULT:      -7.6      3.250      4.750
REMARK  Name = 
REMARK  11 active torsions:
REMARK  status: ('A' for Active; 'I' for Inactive)
REMARK    1  A    between atoms: C_2  and  C_3
REMARK    2  A    between atoms: C_3  and  O_4
REMARK    3  A    between atoms: O_4  and  C_5
REMARK    4  A    between atoms: C_8  and  S_9
REMARK    5  A    between atoms: S_9  and  N_12
REMARK    6  A    between atoms: N_12  and  C_13
REMARK    7  A    between atoms: C_13  and  C_14
REMARK    8  A    between atoms: C_14  and  C_15
REMARK    9  A    between atoms: N_23  and  C_24
REMARK   10  A    between atoms: C_24  and  C_25
REMARK   11  A    between atoms: C_25  and  C_26
REMARK                            x       y       z     vdW  Elec       q    Type
REMARK                         _______ _______ _______ _____ _____    ______ ____
ROOT
ATOM      1  C   UNL     1       2.379   7.766  18.626  0.00  0.00    +0.000 A 
ATOM      2  C   UNL     1       2.584   6.740  19.552  0.00  0.00    +0.000 A 
ATOM      3  C   UNL     1       3.656   5.868  19.401  0.00  0.00    +0.000 A 
ATOM      4  C   UNL     1       4.488   5.968  18.285  0.00  0.00    +0.000 A 
ATOM      5  C   UNL     1       4.251   6.945  17.311  0.00  0.00    +0.000 A 
ATOM      6  C   UNL     1       3.191   7.844  17.490  0.00  0.00    +0.000 A 
ENDROOT
BRANCH   4   7
ATOM      7  S   UNL     1       5.860   4.851  18.140  0.00  0.00    +0.000 S 
ATOM      8  O   UNL     1       6.925   5.572  17.473  0.00  0.00    +0.000 OA
ATOM      9  O   UNL     1       6.070   4.198  19.410  0.00  0.00    +0.000 OA
BRANCH   7  10
ATOM     10  N   UNL     1       5.320   3.695  17.045  0.00  0.00    +0.000 NA
ATOM     11  H   UNL     1       5.961   2.899  17.043  0.00  0.00    +0.000 HD
BRANCH  10  12
ATOM     12  C   UNL     1       3.888   3.349  17.023  0.00  0.00    +0.000 C 
BRANCH  12  13
ATOM     13  C   UNL     1       3.560   2.134  17.887  0.00  0.00    +0.000 C 
BRANCH  13  14
ATOM     14  C   UNL     1       2.779   2.539  19.103  0.00  0.00    +0.000 A 
ATOM     15  C   UNL     1       3.360   2.411  20.373  0.00  0.00    +0.000 A 
ATOM     16  C   UNL     1       2.611   2.679  21.514  0.00  0.00    +0.000 A 
ATOM     17  C   UNL     1       1.283   3.079  21.392  0.00  0.00    +0.000 A 
ATOM     18  C   UNL     1       0.708   3.234  20.130  0.00  0.00    +0.000 A 
ATOM     19  C   UNL     1       1.455   2.968  18.984  0.00  0.00    +0.000 A 
ENDBRANCH  13  14
ENDBRANCH  12  13
ENDBRANCH  10  12
ENDBRANCH   7  10
ENDBRANCH   4   7
BRANCH   1  20
ATOM     20  O   UNL     1       1.430   8.745  18.776  0.00  0.00    +0.000 OA
BRANCH  20  21
ATOM     21  C   UNL     1       1.188   9.106  20.138  0.00  0.00    +0.000 C 
BRANCH  21  23
ATOM     22  O   UNL     1       1.240  11.508  19.917  0.00  0.00    +0.000 OA
ATOM     23  C   UNL     1       0.623  10.519  20.299  0.00  0.00    +0.000 C 
ATOM     24  N   UNL     1      -0.619  10.576  20.888  0.00  0.00    +0.000 N 
ATOM     25  H   UNL     1      -1.082   9.694  21.077  0.00  0.00    +0.000 HD
BRANCH  24  26
ATOM     26  C   UNL     1      -1.321  11.835  21.024  0.00  0.00    +0.000 C 
BRANCH  26  27
ATOM     27  C   UNL     1      -1.510  12.230  22.486  0.00  0.00    +0.000 C 
BRANCH  27  28
ATOM     28  C   UNL     1      -2.956  12.510  22.812  0.00  0.00    +0.000 A 
ATOM     29  C   UNL     1      -3.800  13.084  21.852  0.00  0.00    +0.000 A 
ATOM     30  C   UNL     1      -5.131  13.369  22.161  0.00  0.00    +0.000 A 
ATOM     31  C   UNL     1      -5.629  13.086  23.431  0.00  0.00    +0.000 A 
ATOM     32  C   UNL     1      -4.797  12.518  24.394  0.00  0.00    +0.000 A 
ATOM     33  C   UNL     1      -3.465  12.233  24.088  0.00  0.00    +0.000 A 
ENDBRANCH  27  28
ENDBRANCH  26  27
ENDBRANCH  24  26
ENDBRANCH  21  23
ENDBRANCH  20  21
ENDBRANCH   1  20
TORSDOF 11
ENDMDL
MODEL 3
REMARK VINA RESULT:      -7.6      3.573      4.976
REMARK  Name = 
REMARK  11 active torsions:
REMARK  status: ('A' for Active; 'I' for Inactive)
REMARK    1  A    between atoms: C_2  and  C_3
REMARK    2  A    between atoms: C_3  and  O_4
REMARK    3  A    between atoms: O_4  and  C_5
REMARK    4  A    between atoms: C_8  and  S_9
REMARK    5  A    between atoms: S_9  and  N_12
REMARK    6  A    between atoms: N_12  and  C_13
REMARK    7  A    between atoms: C_13  and  C_14
REMARK    8  A    between atoms: C_14  and  C_15
REMARK    9  A    between atoms: N_23  and  C_24
REMARK   10  A    between atoms: C_24  and  C_25
REMARK   11  A    between atoms: C_25  and  C_26
REMARK                            x       y       z     vdW  Elec       q    Type
REMARK                         _______ _______ _______ _____ _____    ______ ____
ROOT
ATOM      1  C   UNL     1       2.305   7.762  19.106  0.00  0.00    +0.000 A 
ATOM      2  C   UNL     1       2.886   8.149  17.895  0.00  0.00    +0.000 A 
ATOM      3  C   UNL     1       3.837   7.337  17.287  0.00  0.00    +0.000 A 
ATOM      4  C   UNL     1       4.269   6.171  17.920  0.00  0.00    +0.000 A 
ATOM      5  C   UNL     1       3.750   5.809  19.167  0.00  0.00    +0.000 A 
ATOM      6  C   UNL     1       2.763   6.612  19.756  0.00  0.00    +0.000 A 
ENDROOT
BRANCH   4   7
ATOM      7  S   UNL     1       5.468   5.150  17.100  0.00  0.00    +0.000 S 
ATOM      8  O   UNL     1       5.126   5.143  15.692  0.00  0.00    +0.000 OA
ATOM      9  O   UNL     1       6.787   5.517  17.555  0.00  0.00    +0.000 OA
BRANCH   7  10
ATOM     10  N   UNL     1       5.133   3.604  17.671  0.00  0.00    +0.000 NA
ATOM     11  H   UNL     1       5.195   3.595  18.691  0.00  0.00    +0.000 HD
BRANCH  10  12
ATOM     12  C   UNL     1       3.990   2.867  17.103  0.00  0.00    +0.000 C 
BRANCH  12  13
ATOM     13  C   UNL     1       3.482   1.762  18.026  0.00  0.00    +0.000 C 
BRANCH  13  14
ATOM     14  C   UNL     1       2.727   2.341  19.187  0.00  0.00    +0.000 A 
ATOM     15  C   UNL     1       3.307   2.332  20.463  0.00  0.00    +0.000 A 
ATOM     16  C   UNL     1       2.577   2.764  21.565  0.00  0.00    +0.000 A 
ATOM     17  C   UNL     1       1.268   3.211  21.396  0.00  0.00    +0.000 A 
ATOM     18  C   UNL     1       0.695   3.248  20.125  0.00  0.00    +0.000 A 
ATOM     19  C   UNL     1       1.424   2.817  19.018  0.00  0.00    +0.000 A 
ENDBRANCH  13  14
ENDBRANCH  12  13
ENDBRANCH  10  12
ENDBRANCH   7  10
ENDBRANCH   4   7
BRANCH   1  20
ATOM     20  O   UNL     1       1.268   8.436  19.699  0.00  0.00    +0.000 OA
BRANCH  20  21
ATOM     21  C   UNL     1       1.334   8.449  21.128  0.00  0.00    +0.000 C 
BRANCH  21  23
ATOM     22  O   UNL     1      -0.928   8.225  21.936  0.00  0.00    +0.000 OA
ATOM     23  C   UNL     1       0.049   8.951  21.789  0.00  0.00    +0.000 C 
ATOM     24  N   UNL     1       0.093  10.262  22.206  0.00  0.00    +0.000 N 
ATOM     25  H   UNL     1       0.982  10.743  22.125  0.00  0.00    +0.000 HD
BRANCH  24  26
ATOM     26  C   UNL     1      -1.013  10.850  22.930  0.00  0.00    +0.000 C 
BRANCH  26  27
ATOM     27  C   UNL     1      -1.605  12.051  22.197  0.00  0.00    +0.000 C 
BRANCH  27  28
ATOM     28  C   UNL     1      -3.006  12.359  22.659  0.00  0.00    +0.000 A 
ATOM     29  C   UNL     1      -3.987  12.747  21.736  0.00  0.00    +0.000 A 
ATOM     30  C   UNL     1      -5.277  13.060  22.166  0.00  0.00    +0.000 A 
ATOM     31  C   UNL     1      -5.599  12.991  23.520  0.00  0.00    +0.000 A 
ATOM     32  C   UNL     1      -4.631  12.609  24.446  0.00  0.00    +0.000 A 
ATOM     33  C   UNL     1      -3.339  12.296  24.019  0.00  0.00    +0.000 A 
ENDBRANCH  27  28
ENDBRANCH  26  27
ENDBRANCH  24  26
ENDBRANCH  21  23
ENDBRANCH  20  21
ENDBRANCH   1  20
TORSDOF 11
ENDMDL
MODEL 4
REMARK VINA RESULT:      -7.5      2.521      4.045
REMARK  Name = 
REMARK  11 active torsions:
REMARK  status: ('A' for Active; 'I' for Inactive)
REMARK    1  A    between atoms: C_2  and  C_3
REMARK    2  A    between atoms: C_3  and  O_4
REMARK    3  A    between atoms: O_4  and  C_5
REMARK    4  A    between atoms: C_8  and  S_9
REMARK    5  A    between atoms: S_9  and  N_12
REMARK    6  A    between atoms: N_12  and  C_13
REMARK    7  A    between atoms: C_13  and  C_14
REMARK    8  A    between atoms: C_14  and  C_15
REMARK    9  A    between atoms: N_23  and  C_24
REMARK   10  A    between atoms: C_24  and  C_25
REMARK   11  A    between atoms: C_25  and  C_26
REMARK                            x       y       z     vdW  Elec       q    Type
REMARK                         _______ _______ _______ _____ _____    ______ ____
ROOT
ATOM      1  C   UNL     1       2.313   7.774  18.883  0.00  0.00    +0.000 A 
ATOM      2  C   UNL     1       2.617   6.599  19.577  0.00  0.00    +0.000 A 
ATOM      3  C   UNL     1       3.682   5.804  19.168  0.00  0.00    +0.000 A 
ATOM      4  C   UNL     1       4.404   6.137  18.021  0.00  0.00    +0.000 A 
ATOM      5  C   UNL     1       4.063   7.270  17.274  0.00  0.00    +0.000 A 
ATOM      6  C   UNL     1       3.013   8.087  17.714  0.00  0.00    +0.000 A 
ENDROOT
BRANCH   4   7
ATOM      7  S   UNL     1       5.771   5.109  17.546  0.00  0.00    +0.000 S 
ATOM      8  O   UNL     1       5.871   5.177  16.102  0.00  0.00    +0.000 OA
ATOM      9  O   UNL     1       6.899   5.405  18.396  0.00  0.00    +0.000 OA
BRANCH   7  10
ATOM     10  N   UNL     1       5.245   3.553  17.906  0.00  0.00    +0.000 NA
ATOM     11  H   UNL     1       5.252   3.415  18.918  0.00  0.00    +0.000 HD
BRANCH  10  12
ATOM     12  C   UNL     1       4.060   3.022  17.207  0.00  0.00    +0.000 C 
BRANCH  12  13
ATOM     13  C   UNL     1       3.389   1.880  17.966  0.00  0.00    +0.000 C 
BRANCH  13  14
ATOM     14  C   UNL     1       2.656   2.396  19.169  0.00  0.00    +0.000 A 
ATOM     15  C   UNL     1       3.269   2.343  20.428  0.00  0.00    +0.000 A 
ATOM     16  C   UNL     1       2.561   2.716  21.567  0.00  0.00    +0.000 A 
ATOM     17  C   UNL     1       1.241   3.147  21.450  0.00  0.00    +0.000 A 
ATOM     18  C   UNL     1       0.635   3.227  20.196  0.00  0.00    +0.000 A 
ATOM     19  C   UNL     1       1.341   2.857  19.054  0.00  0.00    +0.000 A 
ENDBRANCH  13  14
ENDBRANCH  12  13
ENDBRANCH  10  12
ENDBRANCH   7  10
ENDBRANCH   4   7
BRANCH   1  20
ATOM     20  O   UNL     1       1.368   8.677  19.299  0.00  0.00    +0.000 OA
BRANCH  20  21
ATOM     21  C   UNL     1       0.834   9.478  18.241  0.00  0.00    +0.000 C 
BRANCH  21  23
ATOM     22  O   UNL     1      -0.842  10.250  19.796  0.00  0.00    +0.000 OA
ATOM     23  C   UNL     1      -0.424  10.250  18.643  0.00  0.00    +0.000 C 
ATOM     24  N   UNL     1      -1.025  10.940  17.615  0.00  0.00    +0.000 N 
ATOM     25  H   UNL     1      -0.544  10.953  16.723  0.00  0.00    +0.000 HD
BRANCH  24  26
ATOM     26  C   UNL     1      -2.171  11.790  17.859  0.00  0.00    +0.000 C 
BRANCH  26  27
ATOM     27  C   UNL     1      -3.468  11.165  17.352  0.00  0.00    +0.000 C 
BRANCH  27  28
ATOM     28  C   UNL     1      -4.665  11.632  18.140  0.00  0.00    +0.000 A 
ATOM     29  C   UNL     1      -4.501  12.182  19.418  0.00  0.00    +0.000 A 
ATOM     30  C   UNL     1      -5.611  12.589  20.160  0.00  0.00    +0.000 A 
ATOM     31  C   UNL     1      -6.894  12.448  19.634  0.00  0.00    +0.000 A 
ATOM     32  C   UNL     1      -7.067  11.899  18.365  0.00  0.00    +0.000 A 
ATOM     33  C   UNL     1      -5.960  11.490  17.621  0.00  0.00    +0.000 A 
ENDBRANCH  27  28
ENDBRANCH  26  27
ENDBRANCH  24  26
ENDBRANCH  21  23
ENDBRANCH  20  21
ENDBRANCH   1  20
TORSDOF 11
ENDMDL
MODEL 5
REMARK VINA RESULT:      -7.5      3.439      4.754
REMARK  Name = 
REMARK  11 active torsions:
REMARK  status: ('A' for Active; 'I' for Inactive)
REMARK    1  A    between atoms: C_2  and  C_3
REMARK    2  A    between atoms: C_3  and  O_4
REMARK    3  A    between atoms: O_4  and  C_5
REMARK    4  A    between atoms: C_8  and  S_9
REMARK    5  A    between atoms: S_9  and  N_12
REMARK    6  A    between atoms: N_12  and  C_13
REMARK    7  A    between atoms: C_13  and  C_14
REMARK    8  A    between atoms: C_14  and  C_15
REMARK    9  A    between atoms: N_23  and  C_24
REMARK   10  A    between atoms: C_24  and  C_25
REMARK   11  A    between atoms: C_25  and  C_26
REMARK                            x       y       z     vdW  Elec       q    Type
REMARK                         _______ _______ _______ _____ _____    ______ ____
ROOT
ATOM      1  C   UNL     1       2.164   7.812  19.034  0.00  0.00    +0.000 A 
ATOM      2  C   UNL     1       2.401   6.678  19.818  0.00  0.00    +0.000 A 
ATOM      3  C   UNL     1       3.408   5.787  19.466  0.00  0.00    +0.000 A 
ATOM      4  C   UNL     1       4.136   5.980  18.291  0.00  0.00    +0.000 A 
ATOM      5  C   UNL     1       3.860   7.071  17.459  0.00  0.00    +0.000 A 
ATOM      6  C   UNL     1       2.869   7.986  17.840  0.00  0.00    +0.000 A 
ENDROOT
BRANCH   4   7
ATOM      7  S   UNL     1       5.430   4.832  17.890  0.00  0.00    +0.000 S 
ATOM      8  O   UNL     1       6.405   5.552  17.097  0.00  0.00    +0.000 OA
ATOM      9  O   UNL     1       5.808   4.115  19.084  0.00  0.00    +0.000 OA
BRANCH   7  10
ATOM     10  N   UNL     1       4.687   3.744  16.845  0.00  0.00    +0.000 NA
ATOM     11  H   UNL     1       5.204   3.710  15.964  0.00  0.00    +0.000 HD
BRANCH  10  12
ATOM     12  C   UNL     1       4.250   2.438  17.369  0.00  0.00    +0.000 C 
BRANCH  12  13
ATOM     13  C   UNL     1       2.731   2.326  17.485  0.00  0.00    +0.000 C 
BRANCH  13  14
ATOM     14  C   UNL     1       2.289   2.525  18.905  0.00  0.00    +0.000 A 
ATOM     15  C   UNL     1       1.033   3.090  19.166  0.00  0.00    +0.000 A 
ATOM     16  C   UNL     1       0.655   3.381  20.473  0.00  0.00    +0.000 A 
ATOM     17  C   UNL     1       1.527   3.105  21.523  0.00  0.00    +0.000 A 
ATOM     18  C   UNL     1       2.767   2.517  21.272  0.00  0.00    +0.000 A 
ATOM     19  C   UNL     1       3.149   2.222  19.964  0.00  0.00    +0.000 A 
ENDBRANCH  13  14
ENDBRANCH  12  13
ENDBRANCH  10  12
ENDBRANCH   7  10
ENDBRANCH   4   7
BRANCH   1  20
ATOM     20  O   UNL     1       1.284   8.804  19.384  0.00  0.00    +0.000 OA
BRANCH  20  21
ATOM     21  C   UNL     1       1.071   8.913  20.794  0.00  0.00    +0.000 C 
BRANCH  21  23
ATOM     22  O   UNL     1       1.149  11.323  20.729  0.00  0.00    +0.000 OA
ATOM     23  C   UNL     1       0.663  10.318  21.238  0.00  0.00    +0.000 C 
ATOM     24  N   UNL     1      -0.288  10.351  22.233  0.00  0.00    +0.000 N 
ATOM     25  H   UNL     1      -0.694   9.466  22.514  0.00  0.00    +0.000 HD
BRANCH  24  26
ATOM     26  C   UNL     1      -0.840  11.608  22.693  0.00  0.00    +0.000 C 
BRANCH  26  27
ATOM     27  C   UNL     1      -1.911  12.144  21.747  0.00  0.00    +0.000 C 
BRANCH  27  28
ATOM     28  C   UNL     1      -3.190  12.476  22.472  0.00  0.00    +0.000 A 
ATOM     29  C   UNL     1      -3.331  12.173  23.833  0.00  0.00    +0.000 A 
ATOM     30  C   UNL     1      -4.524  12.455  24.500  0.00  0.00    +0.000 A 
ATOM     31  C   UNL     1      -5.587  13.039  23.814  0.00  0.00    +0.000 A 
ATOM     32  C   UNL     1      -5.458  13.343  22.460  0.00  0.00    +0.000 A 
ATOM     33  C   UNL     1      -4.266  13.061  21.790  0.00  0.00    +0.000 A 
ENDBRANCH  27  28
ENDBRANCH  26  27
ENDBRANCH  24  26
ENDBRANCH  21  23
ENDBRANCH  20  21
ENDBRANCH   1  20
TORSDOF 11
ENDMDL
MODEL 6
REMARK VINA RESULT:      -7.4      3.751      6.092
REMARK  Name = 
REMARK  11 active torsions:
REMARK  status: ('A' for Active; 'I' for Inactive)
REMARK    1  A    between atoms: C_2  and  C_3
REMARK    2  A    between atoms: C_3  and  O_4
REMARK    3  A    between atoms: O_4  and  C_5
REMARK    4  A    between atoms: C_8  and  S_9
REMARK    5  A    between atoms: S_9  and  N_12
REMARK    6  A    between atoms: N_12  and  C_13
REMARK    7  A    between atoms: C_13  and  C_14
REMARK    8  A    between atoms: C_14  and  C_15
REMARK    9  A    between atoms: N_23  and  C_24
REMARK   10  A    between atoms: C_24  and  C_25
REMARK   11  A    between atoms: C_25  and  C_26
REMARK                            x       y       z     vdW  Elec       q    Type
REMARK                         _______ _______ _______ _____ _____    ______ ____
ROOT
ATOM      1  C   UNL     1       4.137   3.331  18.892  0.00  0.00    +0.000 A 
ATOM      2  C   UNL     1       5.061   4.232  19.429  0.00  0.00    +0.000 A 
ATOM      3  C   UNL     1       5.658   5.186  18.614  0.00  0.00    +0.000 A 
ATOM      4  C   UNL     1       5.394   5.200  17.244  0.00  0.00    +0.000 A 
ATOM      5  C   UNL     1       4.528   4.257  16.680  0.00  0.00    +0.000 A 
ATOM      6  C   UNL     1       3.900   3.322  17.515  0.00  0.00    +0.000 A 
ENDROOT
BRANCH   4   7
ATOM      7  S   UNL     1       6.159   6.450  16.240  0.00  0.00    +0.000 S 
ATOM      8  O   UNL     1       5.193   6.832  15.230  0.00  0.00    +0.000 OA
ATOM      9  O   UNL     1       6.780   7.428  17.100  0.00  0.00    +0.000 OA
BRANCH   7  10
ATOM     10  N   UNL     1       7.378   5.621  15.431  0.00  0.00    +0.000 NA
ATOM     11  H   UNL     1       8.161   5.458  16.067  0.00  0.00    +0.000 HD
BRANCH  10  12
ATOM     12  C   UNL     1       7.015   4.477  14.575  0.00  0.00    +0.000 C 
BRANCH  12  13
ATOM     13  C   UNL     1       7.174   4.778  13.087  0.00  0.00    +0.000 C 
BRANCH  13  14
ATOM     14  C   UNL     1       6.681   3.631  12.254  0.00  0.00    +0.000 A 
ATOM     15  C   UNL     1       5.303   3.400  12.143  0.00  0.00    +0.000 A 
ATOM     16  C   UNL     1       4.835   2.278  11.466  0.00  0.00    +0.000 A 
ATOM     17  C   UNL     1       5.740   1.388  10.894  0.00  0.00    +0.000 A 
ATOM     18  C   UNL     1       7.112   1.628  10.978  0.00  0.00    +0.000 A 
ATOM     19  C   UNL     1       7.584   2.751  11.654  0.00  0.00    +0.000 A 
ENDBRANCH  13  14
ENDBRANCH  12  13
ENDBRANCH  10  12
ENDBRANCH   7  10
ENDBRANCH   4   7
BRANCH   1  20
ATOM     20  O   UNL     1       3.407   2.451  19.651  0.00  0.00    +0.000 OA
BRANCH  20  21
ATOM     21  C   UNL     1       2.903   3.019  20.863  0.00  0.00    +0.000 C 
BRANCH  21  23
ATOM     22  O   UNL     1       0.691   3.702  20.184  0.00  0.00    +0.000 OA
ATOM     23  C   UNL     1       1.782   4.035  20.636  0.00  0.00    +0.000 C 
ATOM     24  N   UNL     1       2.098   5.327  20.989  0.00  0.00    +0.000 N 
ATOM     25  H   UNL     1       2.992   5.476  21.444  0.00  0.00    +0.000 HD
BRANCH  24  26
ATOM     26  C   UNL     1       1.109   6.381  20.917  0.00  0.00    +0.000 C 
BRANCH  26  27
ATOM     27  C   UNL     1       1.740   7.740  20.622  0.00  0.00    +0.000 C 
BRANCH  27  28
ATOM     28  C   UNL     1       0.870   8.879  21.091  0.00  0.00    +0.000 A 
ATOM     29  C   UNL     1       0.616   9.060  22.457  0.00  0.00    +0.000 A 
ATOM     30  C   UNL     1      -0.212  10.097  22.890  0.00  0.00    +0.000 A 
ATOM     31  C   UNL     1      -0.793  10.960  21.964  0.00  0.00    +0.000 A 
ATOM     32  C   UNL     1      -0.548  10.788  20.603  0.00  0.00    +0.000 A 
ATOM     33  C   UNL     1       0.278   9.750  20.167  0.00  0.00    +0.000 A 
ENDBRANCH  27  28
ENDBRANCH  26  27
ENDBRANCH  24  26
ENDBRANCH  21  23
ENDBRANCH  20  21
ENDBRANCH   1  20
TORSDOF 11
ENDMDL
MODEL 7
REMARK VINA RESULT:      -7.4      2.802      4.163
REMARK  Name = 
REMARK  11 active torsions:
REMARK  status: ('A' for Active; 'I' for Inactive)
REMARK    1  A    between atoms: C_2  and  C_3
REMARK    2  A    between atoms: C_3  and  O_4
REMARK    3  A    between atoms: O_4  and  C_5
REMARK    4  A    between atoms: C_8  and  S_9
REMARK    5  A    between atoms: S_9  and  N_12
REMARK    6  A    between atoms: N_12  and  C_13
REMARK    7  A    between atoms: C_13  and  C_14
REMARK    8  A    between atoms: C_14  and  C_15
REMARK    9  A    between atoms: N_23  and  C_24
REMARK   10  A    between atoms: C_24  and  C_25
REMARK   11  A    between atoms: C_25  and  C_26
REMARK                            x       y       z     vdW  Elec       q    Type
REMARK                         _______ _______ _______ _____ _____    ______ ____
ROOT
ATOM      1  C   UNL     1       1.799   7.935  19.616  0.00  0.00    +0.000 A 
ATOM      2  C   UNL     1       2.371   6.734  20.045  0.00  0.00    +0.000 A 
ATOM      3  C   UNL     1       3.367   6.128  19.288  0.00  0.00    +0.000 A 
ATOM      4  C   UNL     1       3.746   6.677  18.062  0.00  0.00    +0.000 A 
ATOM      5  C   UNL     1       3.129   7.839  17.585  0.00  0.00    +0.000 A 
ATOM      6  C   UNL     1       2.153   8.465  18.372  0.00  0.00    +0.000 A 
ENDROOT
BRANCH   4   7
ATOM      7  S   UNL     1       5.039   5.885  17.136  0.00  0.00    +0.000 S 
ATOM      8  O   UNL     1       5.363   6.761  16.028  0.00  0.00    +0.000 OA
ATOM      9  O   UNL     1       6.052   5.417  18.050  0.00  0.00    +0.000 OA
BRANCH   7  10
ATOM     10  N   UNL     1       4.283   4.541  16.465  0.00  0.00    +0.000 NA
ATOM     11  H   UNL     1       4.564   4.443  15.487  0.00  0.00    +0.000 HD
BRANCH  10  12
ATOM     12  C   UNL     1       4.245   3.286  17.237  0.00  0.00    +0.000 C 
BRANCH  12  13
ATOM     13  C   UNL     1       2.825   2.766  17.449  0.00  0.00    +0.000 C 
BRANCH  13  14
ATOM     14  C   UNL     1       2.425   2.880  18.891  0.00  0.00    +0.000 A 
ATOM     15  C   UNL     1       3.362   2.596  19.894  0.00  0.00    +0.000 A 
ATOM     16  C   UNL     1       2.976   2.591  21.230  0.00  0.00    +0.000 A 
ATOM     17  C   UNL     1       1.655   2.874  21.570  0.00  0.00    +0.000 A 
ATOM     18  C   UNL     1       0.725   3.185  20.578  0.00  0.00    +0.000 A 
ATOM     19  C   UNL     1       1.108   3.193  19.238  0.00  0.00    +0.000 A 
ENDBRANCH  13  14
ENDBRANCH  12  13
ENDBRANCH  10  12
ENDBRANCH   7  10
ENDBRANCH   4   7
BRANCH   1  20
ATOM     20  O   UNL     1       0.911   8.663  20.368  0.00  0.00    +0.000 OA
BRANCH  20  21
ATOM     21  C   UNL     1       1.262   8.745  21.752  0.00  0.00    +0.000 C 
BRANCH  21  23
ATOM     22  O   UNL     1       0.307   9.662  23.768  0.00  0.00    +0.000 OA
ATOM     23  C   UNL     1       0.380   9.710  22.544  0.00  0.00    +0.000 C 
ATOM     24  N   UNL     1      -0.302  10.627  21.776  0.00  0.00    +0.000 N 
ATOM     25  H   UNL     1      -0.095  10.642  20.783  0.00  0.00    +0.000 HD
BRANCH  24  26
ATOM     26  C   UNL     1      -1.104  11.663  22.390  0.00  0.00    +0.000 C 
BRANCH  26  27
ATOM     27  C   UNL     1      -1.377  12.819  21.433  0.00  0.00    +0.000 C 
BRANCH  27  28
ATOM     28  C   UNL     1      -2.567  12.549  20.547  0.00  0.00    +0.000 A 
ATOM     29  C   UNL     1      -3.863  12.835  20.995  0.00  0.00    +0.000 A 
ATOM     30  C   UNL     1      -4.968  12.559  20.188  0.00  0.00    +0.000 A 
ATOM     31  C   UNL     1      -4.788  11.994  18.926  0.00  0.00    +0.000 A 
ATOM     32  C   UNL     1      -3.502  11.705  18.472  0.00  0.00    +0.000 A 
ATOM     33  C   UNL     1      -2.396  11.978  19.278  0.00  0.00    +0.000 A 
ENDBRANCH  27  28
ENDBRANCH  26  27
ENDBRANCH  24  26
ENDBRANCH  21  23
ENDBRANCH  20  21
ENDBRANCH   1  20
TORSDOF 11
ENDMDL
MODEL 8
REMARK VINA RESULT:      -7.3      2.516      3.834
REMARK  Name = 
REMARK  11 active torsions:
REMARK  status: ('A' for Active; 'I' for Inactive)
REMARK    1  A    between atoms: C_2  and  C_3
REMARK    2  A    between atoms: C_3  and  O_4
REMARK    3  A    between atoms: O_4  and  C_5
REMARK    4  A    between atoms: C_8  and  S_9
REMARK    5  A    between atoms: S_9  and  N_12
REMARK    6  A    between atoms: N_12  and  C_13
REMARK    7  A    between atoms: C_13  and  C_14
REMARK    8  A    between atoms: C_14  and  C_15
REMARK    9  A    between atoms: N_23  and  C_24
REMARK   10  A    between atoms: C_24  and  C_25
REMARK   11  A    between atoms: C_25  and  C_26
REMARK                            x       y       z     vdW  Elec       q    Type
REMARK                         _______ _______ _______ _____ _____    ______ ____
ROOT
ATOM      1  C   UNL     1       2.383   7.641  19.035  0.00  0.00    +0.000 A 
ATOM      2  C   UNL     1       2.741   6.550  19.832  0.00  0.00    +0.000 A 
ATOM      3  C   UNL     1       3.775   5.708  19.437  0.00  0.00    +0.000 A 
ATOM      4  C   UNL     1       4.409   5.907  18.210  0.00  0.00    +0.000 A 
ATOM      5  C   UNL     1       4.012   6.952  17.369  0.00  0.00    +0.000 A 
ATOM      6  C   UNL     1       2.994   7.819  17.791  0.00  0.00    +0.000 A 
ENDROOT
BRANCH   4   7
ATOM      7  S   UNL     1       5.741   4.825  17.753  0.00  0.00    +0.000 S 
ATOM      8  O   UNL     1       6.614   5.575  16.873  0.00  0.00    +0.000 OA
ATOM      9  O   UNL     1       6.243   4.172  18.938  0.00  0.00    +0.000 OA
BRANCH   7  10
ATOM     10  N   UNL     1       4.998   3.661  16.794  0.00  0.00    +0.000 NA
ATOM     11  H   UNL     1       5.599   3.439  15.998  0.00  0.00    +0.000 HD
BRANCH  10  12
ATOM     12  C   UNL     1       4.362   2.501  17.445  0.00  0.00    +0.000 C 
BRANCH  12  13
ATOM     13  C   UNL     1       2.839   2.604  17.480  0.00  0.00    +0.000 C 
BRANCH  13  14
ATOM     14  C   UNL     1       2.349   2.801  18.885  0.00  0.00    +0.000 A 
ATOM     15  C   UNL     1       3.183   2.468  19.961  0.00  0.00    +0.000 A 
ATOM     16  C   UNL     1       2.704   2.541  21.265  0.00  0.00    +0.000 A 
ATOM     17  C   UNL     1       1.394   2.951  21.498  0.00  0.00    +0.000 A 
ATOM     18  C   UNL     1       0.569   3.310  20.433  0.00  0.00    +0.000 A 
ATOM     19  C   UNL     1       1.045   3.240  19.125  0.00  0.00    +0.000 A 
ENDBRANCH  13  14
ENDBRANCH  12  13
ENDBRANCH  10  12
ENDBRANCH   7  10
ENDBRANCH   4   7
BRANCH   1  20
ATOM     20  O   UNL     1       1.469   8.591  19.417  0.00  0.00    +0.000 OA
BRANCH  20  21
ATOM     21  C   UNL     1       1.199   8.596  20.821  0.00  0.00    +0.000 C 
BRANCH  21  23
ATOM     22  O   UNL     1       0.554  10.158  22.543  0.00  0.00    +0.000 OA
ATOM     23  C   UNL     1       0.840   9.981  21.363  0.00  0.00    +0.000 C 
ATOM     24  N   UNL     1       0.879  10.991  20.429  0.00  0.00    +0.000 N 
ATOM     25  H   UNL     1       1.222  10.752  19.505  0.00  0.00    +0.000 HD
BRANCH  24  26
ATOM     26  C   UNL     1       0.653  12.368  20.811  0.00  0.00    +0.000 C 
BRANCH  26  27
ATOM     27  C   UNL     1       0.055  13.189  19.672  0.00  0.00    +0.000 C 
BRANCH  27  28
ATOM     28  C   UNL     1      -1.310  12.689  19.273  0.00  0.00    +0.000 A 
ATOM     29  C   UNL     1      -2.408  12.871  20.125  0.00  0.00    +0.000 A 
ATOM     30  C   UNL     1      -3.667  12.384  19.770  0.00  0.00    +0.000 A 
ATOM     31  C   UNL     1      -3.840  11.710  18.562  0.00  0.00    +0.000 A 
ATOM     32  C   UNL     1      -2.754  11.522  17.709  0.00  0.00    +0.000 A 
ATOM     33  C   UNL     1      -1.494  12.007  18.063  0.00  0.00    +0.000 A 
ENDBRANCH  27  28
ENDBRANCH  26  27
ENDBRANCH  24  26
ENDBRANCH  21  23
ENDBRANCH  20  21
ENDBRANCH   1  20
TORSDOF 11
ENDMDL
MODEL 9
REMARK VINA RESULT:      -7.2      3.138      4.867
REMARK  Name = 
REMARK  11 active torsions:
REMARK  status: ('A' for Active; 'I' for Inactive)
REMARK    1  A    between atoms: C_2  and  C_3
REMARK    2  A    between atoms: C_3  and  O_4
REMARK    3  A    between atoms: O_4  and  C_5
REMARK    4  A    between atoms: C_8  and  S_9
REMARK    5  A    between atoms: S_9  and  N_12
REMARK    6  A    between atoms: N_12  and  C_13
REMARK    7  A    between atoms: C_13  and  C_14
REMARK    8  A    between atoms: C_14  and  C_15
REMARK    9  A    between atoms: N_23  and  C_24
REMARK   10  A    between atoms: C_24  and  C_25
REMARK   11  A    between atoms: C_25  and  C_26
REMARK                            x       y       z     vdW  Elec       q    Type
REMARK                         _______ _______ _______ _____ _____    ______ ____
ROOT
ATOM      1  C   UNL     1       2.400   7.746  18.703  0.00  0.00    +0.000 A 
ATOM      2  C   UNL     1       3.234   7.880  17.589  0.00  0.00    +0.000 A 
ATOM      3  C   UNL     1       4.248   6.957  17.363  0.00  0.00    +0.000 A 
ATOM      4  C   UNL     1       4.485   5.937  18.286  0.00  0.00    +0.000 A 
ATOM      5  C   UNL     1       3.706   5.834  19.443  0.00  0.00    +0.000 A 
ATOM      6  C   UNL     1       2.660   6.746  19.645  0.00  0.00    +0.000 A 
ENDROOT
BRANCH   4   7
ATOM      7  S   UNL     1       5.776   4.765  17.949  0.00  0.00    +0.000 S 
ATOM      8  O   UNL     1       6.830   5.481  17.259  0.00  0.00    +0.000 OA
ATOM      9  O   UNL     1       6.040   4.000  19.144  0.00  0.00    +0.000 OA
BRANCH   7  10
ATOM     10  N   UNL     1       5.090   3.732  16.812  0.00  0.00    +0.000 NA
ATOM     11  H   UNL     1       5.739   2.970  16.607  0.00  0.00    +0.000 HD
BRANCH  10  12
ATOM     12  C   UNL     1       3.681   3.333  16.972  0.00  0.00    +0.000 C 
BRANCH  12  13
ATOM     13  C   UNL     1       3.506   2.146  17.916  0.00  0.00    +0.000 C 
BRANCH  13  14
ATOM     14  C   UNL     1       2.749   2.550  19.147  0.00  0.00    +0.000 A 
ATOM     15  C   UNL     1       3.329   2.360  20.409  0.00  0.00    +0.000 A 
ATOM     16  C   UNL     1       2.598   2.627  21.561  0.00  0.00    +0.000 A 
ATOM     17  C   UNL     1       1.287   3.089  21.458  0.00  0.00    +0.000 A 
ATOM     18  C   UNL     1       0.715   3.306  20.205  0.00  0.00    +0.000 A 
ATOM     19  C   UNL     1       1.445   3.041  19.048  0.00  0.00    +0.000 A 
ENDBRANCH  13  14
ENDBRANCH  12  13
ENDBRANCH  10  12
ENDBRANCH   7  10
ENDBRANCH   4   7
BRANCH   1  20
ATOM     20  O   UNL     1       1.297   8.532  18.924  0.00  0.00    +0.000 OA
BRANCH  20  21
ATOM     21  C   UNL     1       1.111   9.550  17.938  0.00  0.00    +0.000 C 
BRANCH  21  23
ATOM     22  O   UNL     1       2.538  11.494  18.008  0.00  0.00    +0.000 OA
ATOM     23  C   UNL     1       1.523  10.942  18.420  0.00  0.00    +0.000 C 
ATOM     24  N   UNL     1       0.662  11.513  19.329  0.00  0.00    +0.000 N 
ATOM     25  H   UNL     1      -0.198  11.013  19.527  0.00  0.00    +0.000 HD
BRANCH  24  26
ATOM     26  C   UNL     1       0.870  12.863  19.806  0.00  0.00    +0.000 C 
BRANCH  26  27
ATOM     27  C   UNL     1      -0.207  13.821  19.303  0.00  0.00    +0.000 C 
BRANCH  27  28
ATOM     28  C   UNL     1       0.373  15.144  18.870  0.00  0.00    +0.000 A 
ATOM     29  C   UNL     1      -0.471  16.214  18.546  0.00  0.00    +0.000 A 
ATOM     30  C   UNL     1       0.063  17.431  18.118  0.00  0.00    +0.000 A 
ATOM     31  C   UNL     1       1.443  17.588  18.007  0.00  0.00    +0.000 A 
ATOM     32  C   UNL     1       2.291  16.529  18.325  0.00  0.00    +0.000 A 
ATOM     33  C   UNL     1       1.760  15.310  18.752  0.00  0.00    +0.000 A 
ENDBRANCH  27  28
ENDBRANCH  26  27
ENDBRANCH  24  26
ENDBRANCH  21  23
ENDBRANCH  20  21
ENDBRANCH   1  20
TORSDOF 11
ENDMDL
