MODEL 1
REMARK VINA RESULT:      -7.6      0.000      0.000
REMARK  Name = 
REMARK  8 active torsions:
REMARK  status: ('A' for Active; 'I' for Inactive)
REMARK    1  A    between atoms: C_2  and  C_3
REMARK    2  A    between atoms: C_3  and  O_4
REMARK    3  A    between atoms: O_4  and  C_5
REMARK    4  A    between atoms: C_5  and  C_7
REMARK    5  A    between atoms: C_7  and  N_8
REMARK    6  A    between atoms: C_9  and  C_11
REMARK    7  A    between atoms: N_17  and  C_18
REMARK    8  A    between atoms: C_18  and  C_19
REMARK                            x       y       z     vdW  Elec       q    Type
REMARK                         _______ _______ _______ _____ _____    ______ ____
ROOT
ATOM      1  O   UNL     1       1.573   2.082  19.773  0.00  0.00    +0.000 OA
ENDROOT
BRANCH   1   2
ATOM      2  C   UNL     1       2.311   2.152  18.632  0.00  0.00    +0.000 C 
ATOM      3  O   UNL     1       1.858   2.172  17.494  0.00  0.00    +0.000 OA
BRANCH   2   4
ATOM      4  C   UNL     1       3.797   2.119  18.948  0.00  0.00    +0.000 C 
BRANCH   4   5
ATOM      5  N   UNL     1       4.577   2.777  17.913  0.00  0.00    +0.000 N 
ATOM      6  C   UNL     1       5.432   3.813  18.227  0.00  0.00    +0.000 C 
ATOM      7  O   UNL     1       5.558   4.234  19.371  0.00  0.00    +0.000 OA
ATOM      8  H   UNL     1       4.661   2.314  17.017  0.00  0.00    +0.000 HD
BRANCH   6   9
ATOM      9  C   UNL     1       6.206   4.363  17.023  0.00  0.00    +0.000 C 
ATOM     10  C   UNL     1       5.403   5.437  16.276  0.00  0.00    +0.000 C 
ATOM     11  C   UNL     1       5.340   6.751  17.052  0.00  0.00    +0.000 C 
ATOM     12  C   UNL     1       6.740   7.276  17.351  0.00  0.00    +0.000 C 
ATOM     13  C   UNL     1       7.575   6.248  18.106  0.00  0.00    +0.000 C 
ATOM     14  C   UNL     1       7.599   4.888  17.406  0.00  0.00    +0.000 C 
ENDBRANCH   6   9
ENDBRANCH   4   5
ENDBRANCH   2   4
ENDBRANCH   1   2
BRANCH   1  15
ATOM     15  C   UNL     1       0.847   3.270  20.102  0.00  0.00    +0.000 C 
BRANCH  15  17
ATOM     16  O   UNL     1       2.329   4.519  21.552  0.00  0.00    +0.000 OA
ATOM     17  C   UNL     1       1.782   4.426  20.459  0.00  0.00    +0.000 C 
ATOM     18  N   UNL     1       1.989   5.310  19.421  0.00  0.00    +0.000 N 
ATOM     19  H   UNL     1       1.614   5.069  18.511  0.00  0.00    +0.000 HD
BRANCH  18  20
ATOM     20  C   UNL     1       2.882   6.439  19.520  0.00  0.00    +0.000 C 
BRANCH  20  21
ATOM     21  C   UNL     1       2.122   7.724  19.330  0.00  0.00    +0.000 A 
ATOM     22  C   UNL     1       2.130   8.385  18.092  0.00  0.00    +0.000 A 
ATOM     23  C   UNL     1       1.471   9.606  17.940  0.00  0.00    +0.000 A 
ATOM     24  C   UNL     1       0.801  10.178  19.019  0.00  0.00    +0.000 A 
ATOM     25  C   UNL     1       0.782   9.528  20.252  0.00  0.00    +0.000 A 
ATOM     26  C   UNL     1       1.443   8.308  20.409  0.00  0.00    +0.000 A 
ENDBRANCH  20  21
ENDBRANCH  18  20
ENDBRANCH  15  17
ENDBRANCH   1  15
TORSDOF 8
ENDMDL
MODEL 2
REMARK VINA RESULT:      -7.5      0.704      1.210
REMARK  Name = 
REMARK  8 active torsions:
REMARK  status: ('A' for Active; 'I' for Inactive)
REMARK    1  A    between atoms: C_2  and  C_3
REMARK    2  A    between atoms: C_3  and  O_4
REMARK    3  A    between atoms: O_4  and  C_5
REMARK    4  A    between atoms: C_5  and  C_7
REMARK    5  A    between atoms: C_7  and  N_8
REMARK    6  A    between atoms: C_9  and  C_11
REMARK    7  A    between atoms: N_17  and  C_18
REMARK    8  A    between atoms: C_18  and  C_19
REMARK                            x       y       z     vdW  Elec       q    Type
REMARK                         _______ _______ _______ _____ _____    ______ ____
ROOT
ATOM      1  O   UNL     1       1.439   1.794  19.100  0.00  0.00    +0.000 OA
ENDROOT
BRANCH   1   2
ATOM      2  C   UNL     1       2.330   2.240  18.172  0.00  0.00    +0.000 C 
ATOM      3  O   UNL     1       2.063   2.525  17.012  0.00  0.00    +0.000 OA
BRANCH   2   4
ATOM      4  C   UNL     1       3.739   2.261  18.744  0.00  0.00    +0.000 C 
BRANCH   4   5
ATOM      5  N   UNL     1       4.687   2.830  17.801  0.00  0.00    +0.000 N 
ATOM      6  C   UNL     1       5.107   4.138  17.929  0.00  0.00    +0.000 C 
ATOM      7  O   UNL     1       4.692   4.876  18.814  0.00  0.00    +0.000 OA
ATOM      8  H   UNL     1       5.207   2.194  17.210  0.00  0.00    +0.000 HD
BRANCH   6   9
ATOM      9  C   UNL     1       6.139   4.561  16.876  0.00  0.00    +0.000 C 
ATOM     10  C   UNL     1       5.739   5.872  16.184  0.00  0.00    +0.000 C 
ATOM     11  C   UNL     1       5.922   7.082  17.098  0.00  0.00    +0.000 C 
ATOM     12  C   UNL     1       7.363   7.183  17.589  0.00  0.00    +0.000 C 
ATOM     13  C   UNL     1       7.804   5.907  18.296  0.00  0.00    +0.000 C 
ATOM     14  C   UNL     1       7.563   4.656  17.449  0.00  0.00    +0.000 C 
ENDBRANCH   6   9
ENDBRANCH   4   5
ENDBRANCH   2   4
ENDBRANCH   1   2
BRANCH   1  15
ATOM     15  C   UNL     1       0.529   2.781  19.593  0.00  0.00    +0.000 C 
BRANCH  15  17
ATOM     16  O   UNL     1       1.580   3.510  21.648  0.00  0.00    +0.000 OA
ATOM     17  C   UNL     1       1.226   3.789  20.508  0.00  0.00    +0.000 C 
ATOM     18  N   UNL     1       1.463   5.007  19.909  0.00  0.00    +0.000 N 
ATOM     19  H   UNL     1       1.270   5.095  18.918  0.00  0.00    +0.000 HD
BRANCH  18  20
ATOM     20  C   UNL     1       2.162   6.083  20.570  0.00  0.00    +0.000 C 
BRANCH  20  21
ATOM     21  C   UNL     1       1.999   7.364  19.797  0.00  0.00    +0.000 A 
ATOM     22  C   UNL     1       1.313   8.454  20.354  0.00  0.00    +0.000 A 
ATOM     23  C   UNL     1       1.115   9.619  19.610  0.00  0.00    +0.000 A 
ATOM     24  C   UNL     1       1.598   9.705  18.305  0.00  0.00    +0.000 A 
ATOM     25  C   UNL     1       2.285   8.629  17.744  0.00  0.00    +0.000 A 
ATOM     26  C   UNL     1       2.481   7.462  18.484  0.00  0.00    +0.000 A 
ENDBRANCH  20  21
ENDBRANCH  18  20
ENDBRANCH  15  17
ENDBRANCH   1  15
TORSDOF 8
ENDMDL
MODEL 3
REMARK VINA RESULT:      -7.5      1.867      4.717
REMARK  Name = 
REMARK  8 active torsions:
REMARK  status: ('A' for Active; 'I' for Inactive)
REMARK    1  A    between atoms: C_2  and  C_3
REMARK    2  A    between atoms: C_3  and  O_4
REMARK    3  A    between atoms: O_4  and  C_5
REMARK    4  A    between atoms: C_5  and  C_7
REMARK    5  A    between atoms: C_7  and  N_8
REMARK    6  A    between atoms: C_9  and  C_11
REMARK    7  A    between atoms: N_17  and  C_18
REMARK    8  A    between atoms: C_18  and  C_19
REMARK                            x       y       z     vdW  Elec       q    Type
REMARK                         _______ _______ _______ _____ _____    ______ ____
ROOT
ATOM      1  O   UNL     1       7.405   5.778  16.823  0.00  0.00    +0.000 OA
ENDROOT
BRANCH   1   2
ATOM      2  C   UNL     1       7.558   4.784  17.739  0.00  0.00    +0.000 C 
ATOM      3  O   UNL     1       8.492   3.994  17.781  0.00  0.00    +0.000 OA
BRANCH   2   4
ATOM      4  C   UNL     1       6.360   4.723  18.674  0.00  0.00    +0.000 C 
BRANCH   4   5
ATOM      5  N   UNL     1       5.268   3.962  18.091  0.00  0.00    +0.000 N 
ATOM      6  C   UNL     1       4.605   3.004  18.829  0.00  0.00    +0.000 C 
ATOM      7  O   UNL     1       4.913   2.739  19.985  0.00  0.00    +0.000 OA
ATOM      8  H   UNL     1       4.854   4.307  17.234  0.00  0.00    +0.000 HD
BRANCH   6   9
ATOM      9  C   UNL     1       3.455   2.328  18.073  0.00  0.00    +0.000 C 
ATOM     10  C   UNL     1       2.534   1.548  19.023  0.00  0.00    +0.000 C 
ATOM     11  C   UNL     1       1.661   2.475  19.866  0.00  0.00    +0.000 C 
ATOM     12  C   UNL     1       0.824   3.393  18.981  0.00  0.00    +0.000 C 
ATOM     13  C   UNL     1       1.696   4.201  18.027  0.00  0.00    +0.000 C 
ATOM     14  C   UNL     1       2.647   3.318  17.217  0.00  0.00    +0.000 C 
ENDBRANCH   6   9
ENDBRANCH   4   5
ENDBRANCH   2   4
ENDBRANCH   1   2
BRANCH   1  15
ATOM     15  C   UNL     1       6.724   6.943  17.296  0.00  0.00    +0.000 C 
BRANCH  15  17
ATOM     16  O   UNL     1       5.125   6.871  15.481  0.00  0.00    +0.000 OA
ATOM     17  C   UNL     1       5.336   7.083  16.670  0.00  0.00    +0.000 C 
ATOM     18  N   UNL     1       4.352   7.412  17.576  0.00  0.00    +0.000 N 
ATOM     19  H   UNL     1       4.595   7.420  18.559  0.00  0.00    +0.000 HD
BRANCH  18  20
ATOM     20  C   UNL     1       2.961   7.535  17.212  0.00  0.00    +0.000 C 
BRANCH  20  21
ATOM     21  C   UNL     1       2.169   8.103  18.358  0.00  0.00    +0.000 A 
ATOM     22  C   UNL     1       1.444   9.295  18.208  0.00  0.00    +0.000 A 
ATOM     23  C   UNL     1       0.760   9.848  19.292  0.00  0.00    +0.000 A 
ATOM     24  C   UNL     1       0.794   9.217  20.534  0.00  0.00    +0.000 A 
ATOM     25  C   UNL     1       1.506   8.030  20.693  0.00  0.00    +0.000 A 
ATOM     26  C   UNL     1       2.195   7.477  19.613  0.00  0.00    +0.000 A 
ENDBRANCH  20  21
ENDBRANCH  18  20
ENDBRANCH  15  17
ENDBRANCH   1  15
TORSDOF 8
ENDMDL
MODEL 4
REMARK VINA RESULT:      -7.5      3.933      7.039
REMARK  Name = 
REMARK  8 active torsions:
REMARK  status: ('A' for Active; 'I' for Inactive)
REMARK    1  A    between atoms: C_2  and  C_3
REMARK    2  A    between atoms: C_3  and  O_4
REMARK    3  A    between atoms: O_4  and  C_5
REMARK    4  A    between atoms: C_5  and  C_7
REMARK    5  A    between atoms: C_7  and  N_8
REMARK    6  A    between atoms: C_9  and  C_11
REMARK    7  A    between atoms: N_17  and  C_18
REMARK    8  A    between atoms: C_18  and  C_19
REMARK                            x       y       z     vdW  Elec       q    Type
REMARK                         _______ _______ _______ _____ _____    ______ ____
ROOT
ATOM      1  O   UNL     1       8.201   5.300  17.845  0.00  0.00    +0.000 OA
ENDROOT
BRANCH   1   2
ATOM      2  C   UNL     1       7.258   4.661  17.100  0.00  0.00    +0.000 C 
ATOM      3  O   UNL     1       7.174   4.698  15.880  0.00  0.00    +0.000 OA
BRANCH   2   4
ATOM      4  C   UNL     1       6.255   3.951  17.995  0.00  0.00    +0.000 C 
BRANCH   4   5
ATOM      5  N   UNL     1       4.933   4.546  17.889  0.00  0.00    +0.000 N 
ATOM      6  C   UNL     1       3.801   3.759  17.938  0.00  0.00    +0.000 C 
ATOM      7  O   UNL     1       3.855   2.539  18.050  0.00  0.00    +0.000 OA
ATOM      8  H   UNL     1       4.851   5.546  18.020  0.00  0.00    +0.000 HD
BRANCH   6   9
ATOM      9  C   UNL     1       2.492   4.553  17.854  0.00  0.00    +0.000 C 
ATOM     10  C   UNL     1       1.267   3.649  18.053  0.00  0.00    +0.000 C 
ATOM     11  C   UNL     1       1.107   3.210  19.507  0.00  0.00    +0.000 C 
ATOM     12  C   UNL     1       1.007   4.417  20.434  0.00  0.00    +0.000 C 
ATOM     13  C   UNL     1       2.210   5.341  20.283  0.00  0.00    +0.000 C 
ATOM     14  C   UNL     1       2.459   5.742  18.828  0.00  0.00    +0.000 C 
ENDBRANCH   6   9
ENDBRANCH   4   5
ENDBRANCH   2   4
ENDBRANCH   1   2
BRANCH   1  15
ATOM     15  C   UNL     1       7.719   6.396  18.628  0.00  0.00    +0.000 C 
BRANCH  15  17
ATOM     16  O   UNL     1       7.122   7.852  16.790  0.00  0.00    +0.000 OA
ATOM     17  C   UNL     1       7.734   7.706  17.842  0.00  0.00    +0.000 C 
ATOM     18  N   UNL     1       8.449   8.712  18.457  0.00  0.00    +0.000 N 
ATOM     19  H   UNL     1       8.794   8.544  19.394  0.00  0.00    +0.000 HD
BRANCH  18  20
ATOM     20  C   UNL     1       8.544  10.047  17.919  0.00  0.00    +0.000 C 
BRANCH  20  21
ATOM     21  C   UNL     1       9.627  10.818  18.625  0.00  0.00    +0.000 A 
ATOM     22  C   UNL     1       9.612  10.960  20.020  0.00  0.00    +0.000 A 
ATOM     23  C   UNL     1      10.587  11.726  20.663  0.00  0.00    +0.000 A 
ATOM     24  C   UNL     1      11.582  12.357  19.919  0.00  0.00    +0.000 A 
ATOM     25  C   UNL     1      11.609  12.218  18.532  0.00  0.00    +0.000 A 
ATOM     26  C   UNL     1      10.633  11.457  17.887  0.00  0.00    +0.000 A 
ENDBRANCH  20  21
ENDBRANCH  18  20
ENDBRANCH  15  17
ENDBRANCH   1  15
TORSDOF 8
ENDMDL
MODEL 5
REMARK VINA RESULT:      -7.3      4.149      7.138
REMARK  Name = 
REMARK  8 active torsions:
REMARK  status: ('A' for Active; 'I' for Inactive)
REMARK    1  A    between atoms: C_2  and  C_3
REMARK    2  A    between atoms: C_3  and  O_4
REMARK    3  A    between atoms: O_4  and  C_5
REMARK    4  A    between atoms: C_5  and  C_7
REMARK    5  A    between atoms: C_7  and  N_8
REMARK    6  A    between atoms: C_9  and  C_11
REMARK    7  A    between atoms: N_17  and  C_18
REMARK    8  A    between atoms: C_18  and  C_19
REMARK                            x       y       z     vdW  Elec       q    Type
REMARK                         _______ _______ _______ _____ _____    ______ ____
ROOT
ATOM      1  O   UNL     1       6.546   6.482  17.150  0.00  0.00    +0.000 OA
ENDROOT
BRANCH   1   2
ATOM      2  C   UNL     1       6.804   5.442  16.312  0.00  0.00    +0.000 C 
ATOM      3  O   UNL     1       7.618   5.452  15.397  0.00  0.00    +0.000 OA
BRANCH   2   4
ATOM      4  C   UNL     1       5.880   4.271  16.605  0.00  0.00    +0.000 C 
BRANCH   4   5
ATOM      5  N   UNL     1       4.526   4.719  16.886  0.00  0.00    +0.000 N 
ATOM      6  C   UNL     1       3.868   4.300  18.024  0.00  0.00    +0.000 C 
ATOM      7  O   UNL     1       4.376   3.526  18.827  0.00  0.00    +0.000 OA
ATOM      8  H   UNL     1       4.174   5.515  16.371  0.00  0.00    +0.000 HD
BRANCH   6   9
ATOM      9  C   UNL     1       2.466   4.901  18.184  0.00  0.00    +0.000 C 
ATOM     10  C   UNL     1       1.373   3.828  18.078  0.00  0.00    +0.000 C 
ATOM     11  C   UNL     1       1.320   2.939  19.318  0.00  0.00    +0.000 C 
ATOM     12  C   UNL     1       1.098   3.770  20.577  0.00  0.00    +0.000 C 
ATOM     13  C   UNL     1       2.168   4.844  20.736  0.00  0.00    +0.000 C 
ATOM     14  C   UNL     1       2.315   5.710  19.484  0.00  0.00    +0.000 C 
ENDBRANCH   6   9
ENDBRANCH   4   5
ENDBRANCH   2   4
ENDBRANCH   1   2
BRANCH   1  15
ATOM     15  C   UNL     1       7.298   7.672  16.893  0.00  0.00    +0.000 C 
BRANCH  15  17
ATOM     16  O   UNL     1       8.524   7.306  18.947  0.00  0.00    +0.000 OA
ATOM     17  C   UNL     1       8.113   8.104  18.112  0.00  0.00    +0.000 C 
ATOM     18  N   UNL     1       8.382   9.455  18.146  0.00  0.00    +0.000 N 
ATOM     19  H   UNL     1       8.130  10.010  17.337  0.00  0.00    +0.000 HD
BRANCH  18  20
ATOM     20  C   UNL     1       9.186  10.068  19.176  0.00  0.00    +0.000 C 
BRANCH  20  21
ATOM     21  C   UNL     1       9.721  11.393  18.701  0.00  0.00    +0.000 A 
ATOM     22  C   UNL     1       9.178  12.596  19.176  0.00  0.00    +0.000 A 
ATOM     23  C   UNL     1       9.639  13.820  18.687  0.00  0.00    +0.000 A 
ATOM     24  C   UNL     1      10.643  13.853  17.722  0.00  0.00    +0.000 A 
ATOM     25  C   UNL     1      11.193  12.664  17.247  0.00  0.00    +0.000 A 
ATOM     26  C   UNL     1      10.732  11.439  17.730  0.00  0.00    +0.000 A 
ENDBRANCH  20  21
ENDBRANCH  18  20
ENDBRANCH  15  17
ENDBRANCH   1  15
TORSDOF 8
ENDMDL
MODEL 6
REMARK VINA RESULT:      -7.2      1.200      1.985
REMARK  Name = 
REMARK  8 active torsions:
REMARK  status: ('A' for Active; 'I' for Inactive)
REMARK    1  A    between atoms: C_2  and  C_3
REMARK    2  A    between atoms: C_3  and  O_4
REMARK    3  A    between atoms: O_4  and  C_5
REMARK    4  A    between atoms: C_5  and  C_7
REMARK    5  A    between atoms: C_7  and  N_8
REMARK    6  A    between atoms: C_9  and  C_11
REMARK    7  A    between atoms: N_17  and  C_18
REMARK    8  A    between atoms: C_18  and  C_19
REMARK                            x       y       z     vdW  Elec       q    Type
REMARK                         _______ _______ _______ _____ _____    ______ ____
ROOT
ATOM      1  O   UNL     1       2.379   2.489  20.141  0.00  0.00    +0.000 OA
ENDROOT
BRANCH   1   2
ATOM      2  C   UNL     1       3.412   2.259  19.286  0.00  0.00    +0.000 C 
ATOM      3  O   UNL     1       3.339   1.632  18.237  0.00  0.00    +0.000 OA
BRANCH   2   4
ATOM      4  C   UNL     1       4.711   2.817  19.847  0.00  0.00    +0.000 C 
BRANCH   4   5
ATOM      5  N   UNL     1       5.542   3.386  18.799  0.00  0.00    +0.000 N 
ATOM      6  C   UNL     1       5.974   4.694  18.876  0.00  0.00    +0.000 C 
ATOM      7  O   UNL     1       5.665   5.432  19.803  0.00  0.00    +0.000 OA
ATOM      8  H   UNL     1       5.988   2.750  18.151  0.00  0.00    +0.000 HD
BRANCH   6   9
ATOM      9  C   UNL     1       6.875   5.116  17.709  0.00  0.00    +0.000 C 
ATOM     10  C   UNL     1       6.690   4.202  16.490  0.00  0.00    +0.000 C 
ATOM     11  C   UNL     1       5.362   4.455  15.779  0.00  0.00    +0.000 C 
ATOM     12  C   UNL     1       5.242   5.913  15.347  0.00  0.00    +0.000 C 
ATOM     13  C   UNL     1       5.406   6.863  16.528  0.00  0.00    +0.000 C 
ATOM     14  C   UNL     1       6.686   6.592  17.321  0.00  0.00    +0.000 C 
ENDBRANCH   6   9
ENDBRANCH   4   5
ENDBRANCH   2   4
ENDBRANCH   1   2
BRANCH   1  15
ATOM     15  C   UNL     1       2.346   3.797  20.718  0.00  0.00    +0.000 C 
BRANCH  15  17
ATOM     16  O   UNL     1       1.419   4.696  18.672  0.00  0.00    +0.000 OA
ATOM     17  C   UNL     1       2.118   4.878  19.662  0.00  0.00    +0.000 C 
ATOM     18  N   UNL     1       2.724   6.080  19.961  0.00  0.00    +0.000 N 
ATOM     19  H   UNL     1       3.154   6.180  20.873  0.00  0.00    +0.000 HD
BRANCH  18  20
ATOM     20  C   UNL     1       2.588   7.253  19.133  0.00  0.00    +0.000 C 
BRANCH  20  21
ATOM     21  C   UNL     1       1.670   8.251  19.786  0.00  0.00    +0.000 A 
ATOM     22  C   UNL     1       1.246   8.073  21.112  0.00  0.00    +0.000 A 
ATOM     23  C   UNL     1       0.347   8.970  21.692  0.00  0.00    +0.000 A 
ATOM     24  C   UNL     1      -0.137  10.050  20.955  0.00  0.00    +0.000 A 
ATOM     25  C   UNL     1       0.282  10.238  19.639  0.00  0.00    +0.000 A 
ATOM     26  C   UNL     1       1.177   9.341  19.055  0.00  0.00    +0.000 A 
ENDBRANCH  20  21
ENDBRANCH  18  20
ENDBRANCH  15  17
ENDBRANCH   1  15
TORSDOF 8
ENDMDL
MODEL 7
REMARK VINA RESULT:      -7.2      3.968      6.982
REMARK  Name = 
REMARK  8 active torsions:
REMARK  status: ('A' for Active; 'I' for Inactive)
REMARK    1  A    between atoms: C_2  and  C_3
REMARK    2  A    between atoms: C_3  and  O_4
REMARK    3  A    between atoms: O_4  and  C_5
REMARK    4  A    between atoms: C_5  and  C_7
REMARK    5  A    between atoms: C_7  and  N_8
REMARK    6  A    between atoms: C_9  and  C_11
REMARK    7  A    between atoms: N_17  and  C_18
REMARK    8  A    between atoms: C_18  and  C_19
REMARK                            x       y       z     vdW  Elec       q    Type
REMARK                         _______ _______ _______ _____ _____    ______ ____
ROOT
ATOM      1  O   UNL     1       7.408   6.073  16.325  0.00  0.00    +0.000 OA
ENDROOT
BRANCH   1   2
ATOM      2  C   UNL     1       6.401   5.391  15.716  0.00  0.00    +0.000 C 
ATOM      3  O   UNL     1       5.635   5.853  14.880  0.00  0.00    +0.000 OA
BRANCH   2   4
ATOM      4  C   UNL     1       6.290   3.980  16.272  0.00  0.00    +0.000 C 
BRANCH   4   5
ATOM      5  N   UNL     1       5.827   3.987  17.650  0.00  0.00    +0.000 N 
ATOM      6  C   UNL     1       4.486   3.852  17.942  0.00  0.00    +0.000 C 
ATOM      7  O   UNL     1       3.633   3.744  17.069  0.00  0.00    +0.000 OA
ATOM      8  H   UNL     1       6.514   3.850  18.381  0.00  0.00    +0.000 HD
BRANCH   6   9
ATOM      9  C   UNL     1       4.179   3.837  19.445  0.00  0.00    +0.000 C 
ATOM     10  C   UNL     1       3.234   4.979  19.842  0.00  0.00    +0.000 C 
ATOM     11  C   UNL     1       1.802   4.728  19.374  0.00  0.00    +0.000 C 
ATOM     12  C   UNL     1       1.270   3.410  19.925  0.00  0.00    +0.000 C 
ATOM     13  C   UNL     1       2.170   2.239  19.546  0.00  0.00    +0.000 C 
ATOM     14  C   UNL     1       3.632   2.482  19.923  0.00  0.00    +0.000 C 
ENDBRANCH   6   9
ENDBRANCH   4   5
ENDBRANCH   2   4
ENDBRANCH   1   2
BRANCH   1  15
ATOM     15  C   UNL     1       7.068   7.388  16.774  0.00  0.00    +0.000 C 
BRANCH  15  17
ATOM     16  O   UNL     1       8.308   7.008  18.817  0.00  0.00    +0.000 OA
ATOM     17  C   UNL     1       7.904   7.810  17.983  0.00  0.00    +0.000 C 
ATOM     18  N   UNL     1       8.200   9.155  18.008  0.00  0.00    +0.000 N 
ATOM     19  H   UNL     1       7.951   9.712  17.199  0.00  0.00    +0.000 HD
BRANCH  18  20
ATOM     20  C   UNL     1       9.027   9.757  19.026  0.00  0.00    +0.000 C 
BRANCH  20  21
ATOM     21  C   UNL     1       9.676  11.009  18.499  0.00  0.00    +0.000 A 
ATOM     22  C   UNL     1       8.901  12.036  17.939  0.00  0.00    +0.000 A 
ATOM     23  C   UNL     1       9.513  13.168  17.400  0.00  0.00    +0.000 A 
ATOM     24  C   UNL     1      10.902  13.285  17.413  0.00  0.00    +0.000 A 
ATOM     25  C   UNL     1      11.681  12.273  17.972  0.00  0.00    +0.000 A 
ATOM     26  C   UNL     1      11.072  11.138  18.509  0.00  0.00    +0.000 A 
ENDBRANCH  20  21
ENDBRANCH  18  20
ENDBRANCH  15  17
ENDBRANCH   1  15
TORSDOF 8
ENDMDL
MODEL 8
REMARK VINA RESULT:      -7.2      4.146      7.093
REMARK  Name = 
REMARK  8 active torsions:
REMARK  status: ('A' for Active; 'I' for Inactive)
REMARK    1  A    between atoms: C_2  and  C_3
REMARK    2  A    between atoms: C_3  and  O_4
REMARK    3  A    between atoms: O_4  and  C_5
REMARK    4  A    between atoms: C_5  and  C_7
REMARK    5  A    between atoms: C_7  and  N_8
REMARK    6  A    between atoms: C_9  and  C_11
REMARK    7  A    between atoms: N_17  and  C_18
REMARK    8  A    between atoms: C_18  and  C_19
REMARK                            x       y       z     vdW  Elec       q    Type
REMARK                         _______ _______ _______ _____ _____    ______ ____
ROOT
ATOM      1  O   UNL     1       6.412   6.636  17.272  0.00  0.00    +0.000 OA
ENDROOT
BRANCH   1   2
ATOM      2  C   UNL     1       6.782   5.333  17.141  0.00  0.00    +0.000 C 
ATOM      3  O   UNL     1       7.537   4.892  16.285  0.00  0.00    +0.000 OA
BRANCH   2   4
ATOM      4  C   UNL     1       6.062   4.463  18.159  0.00  0.00    +0.000 C 
BRANCH   4   5
ATOM      5  N   UNL     1       4.696   4.911  18.371  0.00  0.00    +0.000 N 
ATOM      6  C   UNL     1       3.630   4.142  17.954  0.00  0.00    +0.000 C 
ATOM      7  O   UNL     1       3.781   3.072  17.375  0.00  0.00    +0.000 OA
ATOM      8  H   UNL     1       4.541   5.663  19.031  0.00  0.00    +0.000 HD
BRANCH   6   9
ATOM      9  C   UNL     1       2.261   4.744  18.295  0.00  0.00    +0.000 C 
ATOM     10  C   UNL     1       1.151   3.684  18.263  0.00  0.00    +0.000 C 
ATOM     11  C   UNL     1       1.224   2.741  19.461  0.00  0.00    +0.000 C 
ATOM     12  C   UNL     1       1.153   3.516  20.773  0.00  0.00    +0.000 C 
ATOM     13  C   UNL     1       2.246   4.575  20.858  0.00  0.00    +0.000 C 
ATOM     14  C   UNL     1       2.264   5.495  19.637  0.00  0.00    +0.000 C 
ENDBRANCH   6   9
ENDBRANCH   4   5
ENDBRANCH   2   4
ENDBRANCH   1   2
BRANCH   1  15
ATOM     15  C   UNL     1       7.421   7.592  16.935  0.00  0.00    +0.000 C 
BRANCH  15  17
ATOM     16  O   UNL     1       8.596   7.315  19.033  0.00  0.00    +0.000 OA
ATOM     17  C   UNL     1       8.176   8.080  18.172  0.00  0.00    +0.000 C 
ATOM     18  N   UNL     1       8.382   9.442  18.192  0.00  0.00    +0.000 N 
ATOM     19  H   UNL     1       8.131   9.972  17.366  0.00  0.00    +0.000 HD
BRANCH  18  20
ATOM     20  C   UNL     1       9.124  10.108  19.235  0.00  0.00    +0.000 C 
BRANCH  20  21
ATOM     21  C   UNL     1       9.637  11.435  18.746  0.00  0.00    +0.000 A 
ATOM     22  C   UNL     1      10.551  11.503  17.684  0.00  0.00    +0.000 A 
ATOM     23  C   UNL     1      11.067  12.734  17.274  0.00  0.00    +0.000 A 
ATOM     24  C   UNL     1      10.678  13.905  17.920  0.00  0.00    +0.000 A 
ATOM     25  C   UNL     1       9.767  13.850  18.974  0.00  0.00    +0.000 A 
ATOM     26  C   UNL     1       9.252  12.621  19.389  0.00  0.00    +0.000 A 
ENDBRANCH  20  21
ENDBRANCH  18  20
ENDBRANCH  15  17
ENDBRANCH   1  15
TORSDOF 8
ENDMDL
MODEL 9
REMARK VINA RESULT:      -7.2      2.385      4.745
REMARK  Name = 
REMARK  8 active torsions:
REMARK  status: ('A' for Active; 'I' for Inactive)
REMARK    1  A    between atoms: C_2  and  C_3
REMARK    2  A    between atoms: C_3  and  O_4
REMARK    3  A    between atoms: O_4  and  C_5
REMARK    4  A    between atoms: C_5  and  C_7
REMARK    5  A    between atoms: C_7  and  N_8
REMARK    6  A    between atoms: C_9  and  C_11
REMARK    7  A    between atoms: N_17  and  C_18
REMARK    8  A    between atoms: C_18  and  C_19
REMARK                            x       y       z     vdW  Elec       q    Type
REMARK                         _______ _______ _______ _____ _____    ______ ____
ROOT
ATOM      1  O   UNL     1       3.177   6.278  17.492  0.00  0.00    +0.000 OA
ENDROOT
BRANCH   1   2
ATOM      2  C   UNL     1       4.491   6.084  17.193  0.00  0.00    +0.000 C 
ATOM      3  O   UNL     1       5.353   6.952  17.185  0.00  0.00    +0.000 OA
BRANCH   2   4
ATOM      4  C   UNL     1       4.742   4.641  16.783  0.00  0.00    +0.000 C 
BRANCH   4   5
ATOM      5  N   UNL     1       3.946   3.717  17.572  0.00  0.00    +0.000 N 
ATOM      6  C   UNL     1       4.350   3.342  18.837  0.00  0.00    +0.000 C 
ATOM      7  O   UNL     1       5.392   3.746  19.338  0.00  0.00    +0.000 OA
ATOM      8  H   UNL     1       2.991   3.547  17.282  0.00  0.00    +0.000 HD
BRANCH   6   9
ATOM      9  C   UNL     1       3.371   2.395  19.543  0.00  0.00    +0.000 C 
ATOM     10  C   UNL     1       3.069   2.859  20.975  0.00  0.00    +0.000 C 
ATOM     11  C   UNL     1       2.164   4.089  21.001  0.00  0.00    +0.000 C 
ATOM     12  C   UNL     1       0.856   3.821  20.264  0.00  0.00    +0.000 C 
ATOM     13  C   UNL     1       1.104   3.370  18.829  0.00  0.00    +0.000 C 
ATOM     14  C   UNL     1       2.072   2.188  18.748  0.00  0.00    +0.000 C 
ENDBRANCH   6   9
ENDBRANCH   4   5
ENDBRANCH   2   4
ENDBRANCH   1   2
BRANCH   1  15
ATOM     15  C   UNL     1       2.929   7.028  18.685  0.00  0.00    +0.000 C 
BRANCH  15  17
ATOM     16  O   UNL     1       2.238   8.886  17.296  0.00  0.00    +0.000 OA
ATOM     17  C   UNL     1       2.194   8.336  18.391  0.00  0.00    +0.000 C 
ATOM     18  N   UNL     1       1.442   8.797  19.450  0.00  0.00    +0.000 N 
ATOM     19  H   UNL     1       1.348   8.198  20.261  0.00  0.00    +0.000 HD
BRANCH  18  20
ATOM     20  C   UNL     1       0.620   9.980  19.371  0.00  0.00    +0.000 C 
BRANCH  20  21
ATOM     21  C   UNL     1      -0.024  10.259  20.702  0.00  0.00    +0.000 A 
ATOM     22  C   UNL     1      -0.803  11.409  20.895  0.00  0.00    +0.000 A 
ATOM     23  C   UNL     1      -1.349  11.691  22.149  0.00  0.00    +0.000 A 
ATOM     24  C   UNL     1      -1.122  10.829  23.219  0.00  0.00    +0.000 A 
ATOM     25  C   UNL     1      -0.354   9.680  23.038  0.00  0.00    +0.000 A 
ATOM     26  C   UNL     1       0.197   9.398  21.787  0.00  0.00    +0.000 A 
ENDBRANCH  20  21
ENDBRANCH  18  20
ENDBRANCH  15  17
ENDBRANCH   1  15
TORSDOF 8
ENDMDL
