MODEL 1
REMARK VINA RESULT:      -7.0      0.000      0.000
REMARK  Name = 
REMARK  3 active torsions:
REMARK  status: ('A' for Active; 'I' for Inactive)
REMARK    1  A    between atoms: N_1  and  C_2
REMARK    2  A    between atoms: C_10  and  C_11
REMARK    3  A    between atoms: C_11  and  C_13
REMARK                            x       y       z     vdW  Elec       q    Type
REMARK                         _______ _______ _______ _____ _____    ______ ____
ROOT
ATOM      1  C   UNL     1       4.341   2.994  19.849  0.00  0.00    +0.000 A 
ATOM      2  S   UNL     1       2.826   2.916  20.606  0.00  0.00    +0.000 S 
ATOM      3  C   UNL     1       2.512   4.577  20.349  0.00  0.00    +0.000 A 
ATOM      4  C   UNL     1       1.381   5.282  20.771  0.00  0.00    +0.000 A 
ATOM      5  N   UNL     1       1.263   6.603  20.512  0.00  0.00    +0.000 NA
ATOM      6  C   UNL     1       2.229   7.207  19.800  0.00  0.00    +0.000 A 
ATOM      7  C   UNL     1       3.355   6.562  19.313  0.00  0.00    +0.000 A 
ATOM      8  C   UNL     1       3.540   5.195  19.632  0.00  0.00    +0.000 A 
ATOM      9  C   UNL     1       4.636   4.263  19.363  0.00  0.00    +0.000 A 
ENDROOT
BRANCH   1  10
ATOM     10  N   UNL     1       5.119   1.886  19.799  0.00  0.00    +0.000 N 
ATOM     11  H   UNL     1       6.046   1.919  20.208  0.00  0.00    +0.000 HD
ATOM     12  H   UNL     1       4.665   0.973  19.893  0.00  0.00    +0.000 HD
ENDBRANCH   1  10
BRANCH   9  13
ATOM     13  C   UNL     1       5.907   4.530  18.669  0.00  0.00    +0.000 C 
ATOM     14  O   UNL     1       6.919   4.882  19.275  0.00  0.00    +0.000 OA
BRANCH  13  15
ATOM     15  C   UNL     1       5.995   4.440  17.185  0.00  0.00    +0.000 A 
ATOM     16  C   UNL     1       4.901   3.921  16.473  0.00  0.00    +0.000 A 
ATOM     17  C   UNL     1       4.979   3.741  15.088  0.00  0.00    +0.000 A 
ATOM     18  C   UNL     1       6.150   4.085  14.414  0.00  0.00    +0.000 A 
ATOM     19 BR   UNL     1       6.292   3.776  12.556  0.00  0.00    +0.000 Br
ATOM     20  C   UNL     1       7.233   4.624  15.107  0.00  0.00    +0.000 A 
ATOM     21  C   UNL     1       7.165   4.780  16.492  0.00  0.00    +0.000 A 
ENDBRANCH  13  15
ENDBRANCH   9  13
TORSDOF 3
ENDMDL
MODEL 2
REMARK VINA RESULT:      -6.9      2.563      3.047
REMARK  Name = 
REMARK  3 active torsions:
REMARK  status: ('A' for Active; 'I' for Inactive)
REMARK    1  A    between atoms: N_1  and  C_2
REMARK    2  A    between atoms: C_10  and  C_11
REMARK    3  A    between atoms: C_11  and  C_13
REMARK                            x       y       z     vdW  Elec       q    Type
REMARK                         _______ _______ _______ _____ _____    ______ ____
ROOT
ATOM      1  C   UNL     1       3.610   2.552  18.532  0.00  0.00    +0.000 A 
ATOM      2  S   UNL     1       2.375   2.455  19.691  0.00  0.00    +0.000 S 
ATOM      3  C   UNL     1       2.270   4.155  19.851  0.00  0.00    +0.000 A 
ATOM      4  C   UNL     1       1.430   4.856  20.721  0.00  0.00    +0.000 A 
ATOM      5  N   UNL     1       1.456   6.206  20.756  0.00  0.00    +0.000 NA
ATOM      6  C   UNL     1       2.266   6.857  19.905  0.00  0.00    +0.000 A 
ATOM      7  C   UNL     1       3.094   6.228  18.986  0.00  0.00    +0.000 A 
ATOM      8  C   UNL     1       3.141   4.813  18.978  0.00  0.00    +0.000 A 
ATOM      9  C   UNL     1       3.954   3.861  18.220  0.00  0.00    +0.000 A 
ENDROOT
BRANCH   1  10
ATOM     10  N   UNL     1       4.155   1.412  18.044  0.00  0.00    +0.000 N 
ATOM     11  H   UNL     1       5.151   1.387  17.858  0.00  0.00    +0.000 HD
ATOM     12  H   UNL     1       3.779   0.517  18.372  0.00  0.00    +0.000 HD
ENDBRANCH   1  10
BRANCH   9  13
ATOM     13  C   UNL     1       5.005   4.151  17.229  0.00  0.00    +0.000 C 
ATOM     14  O   UNL     1       5.200   3.424  16.256  0.00  0.00    +0.000 OA
BRANCH  13  15
ATOM     15  C   UNL     1       5.918   5.313  17.408  0.00  0.00    +0.000 A 
ATOM     16  C   UNL     1       6.926   5.237  18.383  0.00  0.00    +0.000 A 
ATOM     17  C   UNL     1       7.748   6.340  18.639  0.00  0.00    +0.000 A 
ATOM     18  C   UNL     1       7.564   7.518  17.916  0.00  0.00    +0.000 A 
ATOM     19 BR   UNL     1       8.617   9.037  18.307  0.00  0.00    +0.000 Br
ATOM     20  C   UNL     1       6.583   7.597  16.929  0.00  0.00    +0.000 A 
ATOM     21  C   UNL     1       5.747   6.505  16.691  0.00  0.00    +0.000 A 
ENDBRANCH  13  15
ENDBRANCH   9  13
TORSDOF 3
ENDMDL
MODEL 3
REMARK VINA RESULT:      -6.8      3.574      5.997
REMARK  Name = 
REMARK  3 active torsions:
REMARK  status: ('A' for Active; 'I' for Inactive)
REMARK    1  A    between atoms: N_1  and  C_2
REMARK    2  A    between atoms: C_10  and  C_11
REMARK    3  A    between atoms: C_11  and  C_13
REMARK                            x       y       z     vdW  Elec       q    Type
REMARK                         _______ _______ _______ _____ _____    ______ ____
ROOT
ATOM      1  C   UNL     1       2.990   4.133  17.838  0.00  0.00    +0.000 A 
ATOM      2  S   UNL     1       4.066   3.498  16.691  0.00  0.00    +0.000 S 
ATOM      3  C   UNL     1       5.412   4.300  17.378  0.00  0.00    +0.000 A 
ATOM      4  C   UNL     1       6.726   4.271  16.902  0.00  0.00    +0.000 A 
ATOM      5  N   UNL     1       7.697   4.964  17.535  0.00  0.00    +0.000 NA
ATOM      6  C   UNL     1       7.382   5.637  18.655  0.00  0.00    +0.000 A 
ATOM      7  C   UNL     1       6.111   5.675  19.207  0.00  0.00    +0.000 A 
ATOM      8  C   UNL     1       5.059   5.017  18.524  0.00  0.00    +0.000 A 
ATOM      9  C   UNL     1       3.619   4.942  18.777  0.00  0.00    +0.000 A 
ENDROOT
BRANCH   1  10
ATOM     10  N   UNL     1       1.671   3.844  17.744  0.00  0.00    +0.000 N 
ATOM     11  H   UNL     1       1.372   2.879  17.832  0.00  0.00    +0.000 HD
ATOM     12  H   UNL     1       1.000   4.514  18.134  0.00  0.00    +0.000 HD
ENDBRANCH   1  10
BRANCH   9  13
ATOM     13  C   UNL     1       2.851   5.582  19.859  0.00  0.00    +0.000 C 
ATOM     14  O   UNL     1       2.588   4.994  20.907  0.00  0.00    +0.000 OA
BRANCH  13  15
ATOM     15  C   UNL     1       2.309   6.959  19.692  0.00  0.00    +0.000 A 
ATOM     16  C   UNL     1       1.616   7.547  20.763  0.00  0.00    +0.000 A 
ATOM     17  C   UNL     1       1.018   8.803  20.616  0.00  0.00    +0.000 A 
ATOM     18  C   UNL     1       1.119   9.474  19.398  0.00  0.00    +0.000 A 
ATOM     19 BR   UNL     1       0.252  11.136  19.164  0.00  0.00    +0.000 Br
ATOM     20  C   UNL     1       1.825   8.911  18.335  0.00  0.00    +0.000 A 
ATOM     21  C   UNL     1       2.399   7.647  18.475  0.00  0.00    +0.000 A 
ENDBRANCH  13  15
ENDBRANCH   9  13
TORSDOF 3
ENDMDL
MODEL 4
REMARK VINA RESULT:      -6.8      4.052      5.678
REMARK  Name = 
REMARK  3 active torsions:
REMARK  status: ('A' for Active; 'I' for Inactive)
REMARK    1  A    between atoms: N_1  and  C_2
REMARK    2  A    between atoms: C_10  and  C_11
REMARK    3  A    between atoms: C_11  and  C_13
REMARK                            x       y       z     vdW  Elec       q    Type
REMARK                         _______ _______ _______ _____ _____    ______ ____
ROOT
ATOM      1  C   UNL     1       5.011   4.935  18.834  0.00  0.00    +0.000 A 
ATOM      2  S   UNL     1       5.012   3.331  19.385  0.00  0.00    +0.000 S 
ATOM      3  C   UNL     1       3.345   3.124  19.059  0.00  0.00    +0.000 A 
ATOM      4  C   UNL     1       2.587   1.978  19.314  0.00  0.00    +0.000 A 
ATOM      5  N   UNL     1       1.269   1.952  19.018  0.00  0.00    +0.000 NA
ATOM      6  C   UNL     1       0.720   3.028  18.430  0.00  0.00    +0.000 A 
ATOM      7  C   UNL     1       1.420   4.180  18.109  0.00  0.00    +0.000 A 
ATOM      8  C   UNL     1       2.786   4.263  18.474  0.00  0.00    +0.000 A 
ATOM      9  C   UNL     1       3.767   5.345  18.370  0.00  0.00    +0.000 A 
ENDROOT
BRANCH   1  10
ATOM     10  N   UNL     1       6.149   5.665  18.908  0.00  0.00    +0.000 N 
ATOM     11  H   UNL     1       6.686   5.651  19.768  0.00  0.00    +0.000 HD
ATOM     12  H   UNL     1       6.730   5.740  18.067  0.00  0.00    +0.000 HD
ENDBRANCH   1  10
BRANCH   9  13
ATOM     13  C   UNL     1       3.566   6.707  17.846  0.00  0.00    +0.000 C 
ATOM     14  O   UNL     1       4.230   7.147  16.908  0.00  0.00    +0.000 OA
BRANCH  13  15
ATOM     15  C   UNL     1       2.584   7.628  18.480  0.00  0.00    +0.000 A 
ATOM     16  C   UNL     1       2.090   8.709  17.733  0.00  0.00    +0.000 A 
ATOM     17  C   UNL     1       1.233   9.645  18.322  0.00  0.00    +0.000 A 
ATOM     18  C   UNL     1       0.864   9.494  19.658  0.00  0.00    +0.000 A 
ATOM     19 BR   UNL     1      -0.232  10.792  20.484  0.00  0.00    +0.000 Br
ATOM     20  C   UNL     1       1.328   8.410  20.403  0.00  0.00    +0.000 A 
ATOM     21  C   UNL     1       2.204   7.492  19.823  0.00  0.00    +0.000 A 
ENDBRANCH  13  15
ENDBRANCH   9  13
TORSDOF 3
ENDMDL
MODEL 5
REMARK VINA RESULT:      -6.8      4.267      6.347
REMARK  Name = 
REMARK  3 active torsions:
REMARK  status: ('A' for Active; 'I' for Inactive)
REMARK    1  A    between atoms: N_1  and  C_2
REMARK    2  A    between atoms: C_10  and  C_11
REMARK    3  A    between atoms: C_11  and  C_13
REMARK                            x       y       z     vdW  Elec       q    Type
REMARK                         _______ _______ _______ _____ _____    ______ ____
ROOT
ATOM      1  C   UNL     1       4.972   6.077  17.613  0.00  0.00    +0.000 A 
ATOM      2  S   UNL     1       5.506   4.468  17.644  0.00  0.00    +0.000 S 
ATOM      3  C   UNL     1       3.928   3.854  17.889  0.00  0.00    +0.000 A 
ATOM      4  C   UNL     1       3.577   2.512  18.059  0.00  0.00    +0.000 A 
ATOM      5  N   UNL     1       2.288   2.164  18.259  0.00  0.00    +0.000 NA
ATOM      6  C   UNL     1       1.350   3.126  18.239  0.00  0.00    +0.000 A 
ATOM      7  C   UNL     1       1.621   4.470  18.032  0.00  0.00    +0.000 A 
ATOM      8  C   UNL     1       2.971   4.873  17.894  0.00  0.00    +0.000 A 
ATOM      9  C   UNL     1       3.595   6.190  17.760  0.00  0.00    +0.000 A 
ENDROOT
BRANCH   1  10
ATOM     10  N   UNL     1       5.876   7.076  17.480  0.00  0.00    +0.000 N 
ATOM     11  H   UNL     1       6.855   6.839  17.363  0.00  0.00    +0.000 HD
ATOM     12  H   UNL     1       5.597   7.916  16.965  0.00  0.00    +0.000 HD
ENDBRANCH   1  10
BRANCH   9  13
ATOM     13  C   UNL     1       2.940   7.510  17.754  0.00  0.00    +0.000 C 
ATOM     14  O   UNL     1       3.086   8.305  16.827  0.00  0.00    +0.000 OA
BRANCH  13  15
ATOM     15  C   UNL     1       2.119   7.955  18.914  0.00  0.00    +0.000 A 
ATOM     16  C   UNL     1       1.398   9.156  18.810  0.00  0.00    +0.000 A 
ATOM     17  C   UNL     1       0.685   9.651  19.908  0.00  0.00    +0.000 A 
ATOM     18  C   UNL     1       0.687   8.940  21.107  0.00  0.00    +0.000 A 
ATOM     19 BR   UNL     1      -0.210   9.637  22.616  0.00  0.00    +0.000 Br
ATOM     20  C   UNL     1       1.378   7.734  21.214  0.00  0.00    +0.000 A 
ATOM     21  C   UNL     1       2.111   7.254  20.127  0.00  0.00    +0.000 A 
ENDBRANCH  13  15
ENDBRANCH   9  13
TORSDOF 3
ENDMDL
MODEL 6
REMARK VINA RESULT:      -6.8      4.020      5.589
REMARK  Name = 
REMARK  3 active torsions:
REMARK  status: ('A' for Active; 'I' for Inactive)
REMARK    1  A    between atoms: N_1  and  C_2
REMARK    2  A    between atoms: C_10  and  C_11
REMARK    3  A    between atoms: C_11  and  C_13
REMARK                            x       y       z     vdW  Elec       q    Type
REMARK                         _______ _______ _______ _____ _____    ______ ____
ROOT
ATOM      1  C   UNL     1       5.023   4.879  18.833  0.00  0.00    +0.000 A 
ATOM      2  S   UNL     1       4.968   3.291  19.426  0.00  0.00    +0.000 S 
ATOM      3  C   UNL     1       3.305   3.117  19.062  0.00  0.00    +0.000 A 
ATOM      4  C   UNL     1       2.511   1.998  19.328  0.00  0.00    +0.000 A 
ATOM      5  N   UNL     1       1.201   1.997  18.999  0.00  0.00    +0.000 NA
ATOM      6  C   UNL     1       0.695   3.070  18.367  0.00  0.00    +0.000 A 
ATOM      7  C   UNL     1       1.433   4.195  18.034  0.00  0.00    +0.000 A 
ATOM      8  C   UNL     1       2.790   4.254  18.432  0.00  0.00    +0.000 A 
ATOM      9  C   UNL     1       3.801   5.307  18.325  0.00  0.00    +0.000 A 
ENDROOT
BRANCH   1  10
ATOM     10  N   UNL     1       6.177   5.581  18.916  0.00  0.00    +0.000 N 
ATOM     11  H   UNL     1       6.135   6.594  18.928  0.00  0.00    +0.000 HD
ATOM     12  H   UNL     1       6.935   5.199  19.490  0.00  0.00    +0.000 HD
ENDBRANCH   1  10
BRANCH   9  13
ATOM     13  C   UNL     1       3.650   6.658  17.759  0.00  0.00    +0.000 C 
ATOM     14  O   UNL     1       4.297   7.031  16.781  0.00  0.00    +0.000 OA
BRANCH  13  15
ATOM     15  C   UNL     1       2.742   7.651  18.397  0.00  0.00    +0.000 A 
ATOM     16  C   UNL     1       2.334   7.439  19.724  0.00  0.00    +0.000 A 
ATOM     17  C   UNL     1       1.415   8.303  20.329  0.00  0.00    +0.000 A 
ATOM     18  C   UNL     1       0.907   9.383  19.608  0.00  0.00    +0.000 A 
ATOM     19 BR   UNL     1      -0.391  10.511  20.389  0.00  0.00    +0.000 Br
ATOM     20  C   UNL     1       1.325   9.618  18.298  0.00  0.00    +0.000 A 
ATOM     21  C   UNL     1       2.222   8.741  17.686  0.00  0.00    +0.000 A 
ENDBRANCH  13  15
ENDBRANCH   9  13
TORSDOF 3
ENDMDL
MODEL 7
REMARK VINA RESULT:      -6.8      0.106      1.115
REMARK  Name = 
REMARK  3 active torsions:
REMARK  status: ('A' for Active; 'I' for Inactive)
REMARK    1  A    between atoms: N_1  and  C_2
REMARK    2  A    between atoms: C_10  and  C_11
REMARK    3  A    between atoms: C_11  and  C_13
REMARK                            x       y       z     vdW  Elec       q    Type
REMARK                         _______ _______ _______ _____ _____    ______ ____
ROOT
ATOM      1  C   UNL     1       4.318   3.039  19.823  0.00  0.00    +0.000 A 
ATOM      2  S   UNL     1       2.804   2.951  20.580  0.00  0.00    +0.000 S 
ATOM      3  C   UNL     1       2.488   4.616  20.341  0.00  0.00    +0.000 A 
ATOM      4  C   UNL     1       1.357   5.315  20.771  0.00  0.00    +0.000 A 
ATOM      5  N   UNL     1       1.238   6.638  20.527  0.00  0.00    +0.000 NA
ATOM      6  C   UNL     1       2.203   7.251  19.820  0.00  0.00    +0.000 A 
ATOM      7  C   UNL     1       3.329   6.612  19.326  0.00  0.00    +0.000 A 
ATOM      8  C   UNL     1       3.515   5.242  19.630  0.00  0.00    +0.000 A 
ATOM      9  C   UNL     1       4.612   4.313  19.350  0.00  0.00    +0.000 A 
ENDROOT
BRANCH   1  10
ATOM     10  N   UNL     1       5.096   1.933  19.760  0.00  0.00    +0.000 N 
ATOM     11  H   UNL     1       5.861   1.908  19.095  0.00  0.00    +0.000 HD
ATOM     12  H   UNL     1       5.300   1.435  20.632  0.00  0.00    +0.000 HD
ENDBRANCH   1  10
BRANCH   9  13
ATOM     13  C   UNL     1       5.882   4.589  18.658  0.00  0.00    +0.000 C 
ATOM     14  O   UNL     1       6.856   5.057  19.246  0.00  0.00    +0.000 OA
BRANCH  13  15
ATOM     15  C   UNL     1       6.012   4.364  17.192  0.00  0.00    +0.000 A 
ATOM     16  C   UNL     1       7.208   4.733  16.554  0.00  0.00    +0.000 A 
ATOM     17  C   UNL     1       7.335   4.617  15.166  0.00  0.00    +0.000 A 
ATOM     18  C   UNL     1       6.268   4.125  14.415  0.00  0.00    +0.000 A 
ATOM     19 BR   UNL     1       6.402   4.035  12.533  0.00  0.00    +0.000 Br
ATOM     20  C   UNL     1       5.085   3.732  15.040  0.00  0.00    +0.000 A 
ATOM     21  C   UNL     1       4.949   3.872  16.422  0.00  0.00    +0.000 A 
ENDBRANCH  13  15
ENDBRANCH   9  13
TORSDOF 3
ENDMDL
MODEL 8
REMARK VINA RESULT:      -6.7      1.207      1.412
REMARK  Name = 
REMARK  3 active torsions:
REMARK  status: ('A' for Active; 'I' for Inactive)
REMARK    1  A    between atoms: N_1  and  C_2
REMARK    2  A    between atoms: C_10  and  C_11
REMARK    3  A    between atoms: C_11  and  C_13
REMARK                            x       y       z     vdW  Elec       q    Type
REMARK                         _______ _______ _______ _____ _____    ______ ____
ROOT
ATOM      1  C   UNL     1       4.543   3.769  19.374  0.00  0.00    +0.000 A 
ATOM      2  S   UNL     1       3.044   4.197  20.040  0.00  0.00    +0.000 S 
ATOM      3  C   UNL     1       3.009   5.701  19.225  0.00  0.00    +0.000 A 
ATOM      4  C   UNL     1       2.017   6.679  19.331  0.00  0.00    +0.000 A 
ATOM      5  N   UNL     1       2.120   7.834  18.638  0.00  0.00    +0.000 NA
ATOM      6  C   UNL     1       3.166   7.997  17.811  0.00  0.00    +0.000 A 
ATOM      7  C   UNL     1       4.164   7.053  17.624  0.00  0.00    +0.000 A 
ATOM      8  C   UNL     1       4.120   5.864  18.392  0.00  0.00    +0.000 A 
ATOM      9  C   UNL     1       5.041   4.732  18.505  0.00  0.00    +0.000 A 
ENDROOT
BRANCH   1  10
ATOM     10  N   UNL     1       5.123   2.600  19.736  0.00  0.00    +0.000 N 
ATOM     11  H   UNL     1       6.126   2.497  19.629  0.00  0.00    +0.000 HD
ATOM     12  H   UNL     1       4.748   2.106  20.551  0.00  0.00    +0.000 HD
ENDBRANCH   1  10
BRANCH   9  13
ATOM     13  C   UNL     1       6.332   4.540  17.822  0.00  0.00    +0.000 C 
ATOM     14  O   UNL     1       7.395   4.490  18.441  0.00  0.00    +0.000 OA
BRANCH  13  15
ATOM     15  C   UNL     1       6.401   4.458  16.338  0.00  0.00    +0.000 A 
ATOM     16  C   UNL     1       5.507   3.609  15.665  0.00  0.00    +0.000 A 
ATOM     17  C   UNL     1       5.598   3.441  14.278  0.00  0.00    +0.000 A 
ATOM     18  C   UNL     1       6.580   4.126  13.565  0.00  0.00    +0.000 A 
ATOM     19 BR   UNL     1       6.759   3.848  11.705  0.00  0.00    +0.000 Br
ATOM     20  C   UNL     1       7.457   4.991  14.219  0.00  0.00    +0.000 A 
ATOM     21  C   UNL     1       7.383   5.139  15.604  0.00  0.00    +0.000 A 
ENDBRANCH  13  15
ENDBRANCH   9  13
TORSDOF 3
ENDMDL
MODEL 9
REMARK VINA RESULT:      -6.7      3.544      5.963
REMARK  Name = 
REMARK  3 active torsions:
REMARK  status: ('A' for Active; 'I' for Inactive)
REMARK    1  A    between atoms: N_1  and  C_2
REMARK    2  A    between atoms: C_10  and  C_11
REMARK    3  A    between atoms: C_11  and  C_13
REMARK                            x       y       z     vdW  Elec       q    Type
REMARK                         _______ _______ _______ _____ _____    ______ ____
ROOT
ATOM      1  C   UNL     1       3.070   4.038  17.847  0.00  0.00    +0.000 A 
ATOM      2  S   UNL     1       4.196   3.447  16.725  0.00  0.00    +0.000 S 
ATOM      3  C   UNL     1       5.494   4.297  17.445  0.00  0.00    +0.000 A 
ATOM      4  C   UNL     1       6.819   4.319  17.001  0.00  0.00    +0.000 A 
ATOM      5  N   UNL     1       7.748   5.046  17.659  0.00  0.00    +0.000 NA
ATOM      6  C   UNL     1       7.382   5.703  18.772  0.00  0.00    +0.000 A 
ATOM      7  C   UNL     1       6.097   5.691  19.294  0.00  0.00    +0.000 A 
ATOM      8  C   UNL     1       5.087   4.997  18.585  0.00  0.00    +0.000 A 
ATOM      9  C   UNL     1       3.646   4.866  18.803  0.00  0.00    +0.000 A 
ENDROOT
BRANCH   1  10
ATOM     10  N   UNL     1       1.765   3.700  17.722  0.00  0.00    +0.000 N 
ATOM     11  H   UNL     1       1.245   4.040  16.920  0.00  0.00    +0.000 HD
ATOM     12  H   UNL     1       1.476   2.765  18.026  0.00  0.00    +0.000 HD
ENDBRANCH   1  10
BRANCH   9  13
ATOM     13  C   UNL     1       2.829   5.474  19.868  0.00  0.00    +0.000 C 
ATOM     14  O   UNL     1       2.567   4.874  20.910  0.00  0.00    +0.000 OA
BRANCH  13  15
ATOM     15  C   UNL     1       2.235   6.827  19.690  0.00  0.00    +0.000 A 
ATOM     16  C   UNL     1       2.401   7.482  18.458  0.00  0.00    +0.000 A 
ATOM     17  C   UNL     1       1.933   8.789  18.281  0.00  0.00    +0.000 A 
ATOM     18  C   UNL     1       1.292   9.438  19.336  0.00  0.00    +0.000 A 
ATOM     19 BR   UNL     1       0.723  11.228  19.132  0.00  0.00    +0.000 Br
ATOM     20  C   UNL     1       1.099   8.789  20.555  0.00  0.00    +0.000 A 
ATOM     21  C   UNL     1       1.589   7.496  20.739  0.00  0.00    +0.000 A 
ENDBRANCH  13  15
ENDBRANCH   9  13
TORSDOF 3
ENDMDL
