MODEL 1
REMARK VINA RESULT:      -7.9      0.000      0.000
REMARK  Name = 
REMARK  2 active torsions:
REMARK  status: ('A' for Active; 'I' for Inactive)
REMARK    1  A    between atoms: C_2  and  C_3
REMARK    2  A    between atoms: C_2  and  C_15
REMARK                            x       y       z     vdW  Elec       q    Type
REMARK                         _______ _______ _______ _____ _____    ______ ____
ROOT
ATOM      1  C   UNL     1       4.324   5.858  17.499  0.00  0.00    +0.000 C 
ATOM      2  C   UNL     1       3.663   6.613  18.388  0.00  0.00    +0.000 C 
ATOM      3  C   UNL     1       2.606   6.070  19.264  0.00  0.00    +0.000 C 
ATOM      4  O   UNL     1       2.079   6.775  20.111  0.00  0.00    +0.000 OA
ATOM      5  C   UNL     1       2.191   4.673  19.048  0.00  0.00    +0.000 A 
ATOM      6  C   UNL     1       1.099   4.148  19.747  0.00  0.00    +0.000 A 
ATOM      7  C   UNL     1       0.695   2.829  19.520  0.00  0.00    +0.000 A 
ATOM      8  C   UNL     1       1.377   2.037  18.597  0.00  0.00    +0.000 A 
ATOM      9  C   UNL     1       2.474   2.556  17.910  0.00  0.00    +0.000 A 
ATOM     10  C   UNL     1       2.882   3.876  18.141  0.00  0.00    +0.000 A 
ATOM     11  C   UNL     1       4.064   4.400  17.438  0.00  0.00    +0.000 C 
ATOM     12  O   UNL     1       4.807   3.622  16.853  0.00  0.00    +0.000 OA
ENDROOT
BRANCH   1  14
ATOM     13  O   UNL     1       5.236   6.712  15.483  0.00  0.00    +0.000 OA
ATOM     14  C   UNL     1       5.379   6.540  16.691  0.00  0.00    +0.000 C 
BRANCH  14  15
ATOM     15  C   UNL     1       6.573   6.985  17.388  0.00  0.00    +0.000 A 
ATOM     16  C   UNL     1       7.184   8.272  17.300  0.00  0.00    +0.000 A 
ATOM     17  C   UNL     1       8.258   8.260  18.157  0.00  0.00    +0.000 A 
ATOM     18  O   UNL     1       8.397   7.036  18.722  0.00  0.00    +0.000 OA
ATOM     19  C   UNL     1       7.386   6.264  18.244  0.00  0.00    +0.000 A 
ENDBRANCH  14  15
ENDBRANCH   1  14
TORSDOF 2
ENDMDL
MODEL 2
REMARK VINA RESULT:      -7.8      1.040      2.393
REMARK  Name = 
REMARK  2 active torsions:
REMARK  status: ('A' for Active; 'I' for Inactive)
REMARK    1  A    between atoms: C_2  and  C_3
REMARK    2  A    between atoms: C_2  and  C_15
REMARK                            x       y       z     vdW  Elec       q    Type
REMARK                         _______ _______ _______ _____ _____    ______ ____
ROOT
ATOM      1  C   UNL     1       4.633   5.231  17.298  0.00  0.00    +0.000 C 
ATOM      2  C   UNL     1       4.681   3.910  17.074  0.00  0.00    +0.000 C 
ATOM      3  C   UNL     1       3.743   2.960  17.705  0.00  0.00    +0.000 C 
ATOM      4  O   UNL     1       3.775   1.773  17.418  0.00  0.00    +0.000 OA
ATOM      5  C   UNL     1       2.808   3.492  18.714  0.00  0.00    +0.000 A 
ATOM      6  C   UNL     1       1.997   2.620  19.448  0.00  0.00    +0.000 A 
ATOM      7  C   UNL     1       1.130   3.128  20.419  0.00  0.00    +0.000 A 
ATOM      8  C   UNL     1       1.074   4.501  20.658  0.00  0.00    +0.000 A 
ATOM      9  C   UNL     1       1.873   5.371  19.918  0.00  0.00    +0.000 A 
ATOM     10  C   UNL     1       2.738   4.862  18.940  0.00  0.00    +0.000 A 
ATOM     11  C   UNL     1       3.549   5.793  18.138  0.00  0.00    +0.000 C 
ATOM     12  O   UNL     1       3.289   6.990  18.164  0.00  0.00    +0.000 OA
ENDROOT
BRANCH   1  14
ATOM     13  O   UNL     1       5.544   6.264  15.369  0.00  0.00    +0.000 OA
ATOM     14  C   UNL     1       5.636   6.071  16.579  0.00  0.00    +0.000 C 
BRANCH  14  15
ATOM     15  C   UNL     1       6.716   6.644  17.363  0.00  0.00    +0.000 A 
ATOM     16  C   UNL     1       7.250   7.963  17.247  0.00  0.00    +0.000 A 
ATOM     17  C   UNL     1       8.223   8.082  18.210  0.00  0.00    +0.000 A 
ATOM     18  O   UNL     1       8.376   6.910  18.873  0.00  0.00    +0.000 OA
ATOM     19  C   UNL     1       7.474   6.039  18.349  0.00  0.00    +0.000 A 
ENDBRANCH  14  15
ENDBRANCH   1  14
TORSDOF 2
ENDMDL
MODEL 3
REMARK VINA RESULT:      -7.6      2.152      2.999
REMARK  Name = 
REMARK  2 active torsions:
REMARK  status: ('A' for Active; 'I' for Inactive)
REMARK    1  A    between atoms: C_2  and  C_3
REMARK    2  A    between atoms: C_2  and  C_15
REMARK                            x       y       z     vdW  Elec       q    Type
REMARK                         _______ _______ _______ _____ _____    ______ ____
ROOT
ATOM      1  C   UNL     1       5.275   4.677  18.365  0.00  0.00    +0.000 C 
ATOM      2  C   UNL     1       4.641   5.854  18.263  0.00  0.00    +0.000 C 
ATOM      3  C   UNL     1       3.327   6.108  18.885  0.00  0.00    +0.000 C 
ATOM      4  O   UNL     1       2.817   7.217  18.830  0.00  0.00    +0.000 OA
ATOM      5  C   UNL     1       2.645   4.970  19.530  0.00  0.00    +0.000 A 
ATOM      6  C   UNL     1       1.339   5.114  20.008  0.00  0.00    +0.000 A 
ATOM      7  C   UNL     1       0.690   4.025  20.597  0.00  0.00    +0.000 A 
ATOM      8  C   UNL     1       1.341   2.797  20.707  0.00  0.00    +0.000 A 
ATOM      9  C   UNL     1       2.648   2.658  20.242  0.00  0.00    +0.000 A 
ATOM     10  C   UNL     1       3.301   3.750  19.657  0.00  0.00    +0.000 A 
ATOM     11  C   UNL     1       4.694   3.602  19.204  0.00  0.00    +0.000 C 
ATOM     12  O   UNL     1       5.336   2.619  19.554  0.00  0.00    +0.000 OA
ENDROOT
BRANCH   1  14
ATOM     13  O   UNL     1       7.639   4.498  18.359  0.00  0.00    +0.000 OA
ATOM     14  C   UNL     1       6.606   4.570  17.698  0.00  0.00    +0.000 C 
BRANCH  14  15
ATOM     15  C   UNL     1       6.629   4.559  16.246  0.00  0.00    +0.000 A 
ATOM     16  C   UNL     1       5.900   3.681  15.387  0.00  0.00    +0.000 A 
ATOM     17  C   UNL     1       6.191   4.058  14.098  0.00  0.00    +0.000 A 
ATOM     18  O   UNL     1       7.100   5.064  14.094  0.00  0.00    +0.000 OA
ATOM     19  C   UNL     1       7.372   5.354  15.393  0.00  0.00    +0.000 A 
ENDBRANCH  14  15
ENDBRANCH   1  14
TORSDOF 2
ENDMDL
MODEL 4
REMARK VINA RESULT:      -7.6      1.875      2.375
REMARK  Name = 
REMARK  2 active torsions:
REMARK  status: ('A' for Active; 'I' for Inactive)
REMARK    1  A    between atoms: C_2  and  C_3
REMARK    2  A    between atoms: C_2  and  C_15
REMARK                            x       y       z     vdW  Elec       q    Type
REMARK                         _______ _______ _______ _____ _____    ______ ____
ROOT
ATOM      1  C   UNL     1       4.499   4.176  17.701  0.00  0.00    +0.000 C 
ATOM      2  C   UNL     1       3.319   4.353  17.088  0.00  0.00    +0.000 C 
ATOM      3  C   UNL     1       2.027   4.129  17.767  0.00  0.00    +0.000 C 
ATOM      4  O   UNL     1       0.975   4.371  17.195  0.00  0.00    +0.000 OA
ATOM      5  C   UNL     1       2.060   3.566  19.129  0.00  0.00    +0.000 A 
ATOM      6  C   UNL     1       0.870   3.198  19.766  0.00  0.00    +0.000 A 
ATOM      7  C   UNL     1       0.910   2.644  21.049  0.00  0.00    +0.000 A 
ATOM      8  C   UNL     1       2.132   2.456  21.693  0.00  0.00    +0.000 A 
ATOM      9  C   UNL     1       3.317   2.835  21.064  0.00  0.00    +0.000 A 
ATOM     10  C   UNL     1       3.277   3.396  19.781  0.00  0.00    +0.000 A 
ATOM     11  C   UNL     1       4.531   3.828  19.142  0.00  0.00    +0.000 C 
ATOM     12  O   UNL     1       5.550   3.914  19.817  0.00  0.00    +0.000 OA
ENDROOT
BRANCH   1  14
ATOM     13  O   UNL     1       6.114   3.660  16.044  0.00  0.00    +0.000 OA
ATOM     14  C   UNL     1       5.724   4.456  16.895  0.00  0.00    +0.000 C 
BRANCH  14  15
ATOM     15  C   UNL     1       6.430   5.697  17.159  0.00  0.00    +0.000 A 
ATOM     16  C   UNL     1       7.547   5.876  18.029  0.00  0.00    +0.000 A 
ATOM     17  C   UNL     1       7.913   7.198  17.936  0.00  0.00    +0.000 A 
ATOM     18  O   UNL     1       7.063   7.867  17.120  0.00  0.00    +0.000 OA
ATOM     19  C   UNL     1       6.160   6.960  16.664  0.00  0.00    +0.000 A 
ENDBRANCH  14  15
ENDBRANCH   1  14
TORSDOF 2
ENDMDL
MODEL 5
REMARK VINA RESULT:      -7.5      1.878      5.890
REMARK  Name = 
REMARK  2 active torsions:
REMARK  status: ('A' for Active; 'I' for Inactive)
REMARK    1  A    between atoms: C_2  and  C_3
REMARK    2  A    between atoms: C_2  and  C_15
REMARK                            x       y       z     vdW  Elec       q    Type
REMARK                         _______ _______ _______ _____ _____    ______ ____
ROOT
ATOM      1  C   UNL     1       4.046   4.366  17.632  0.00  0.00    +0.000 C 
ATOM      2  C   UNL     1       4.067   5.201  16.583  0.00  0.00    +0.000 C 
ATOM      3  C   UNL     1       5.173   6.147  16.340  0.00  0.00    +0.000 C 
ATOM      4  O   UNL     1       5.189   6.840  15.334  0.00  0.00    +0.000 OA
ATOM      5  C   UNL     1       6.221   6.251  17.372  0.00  0.00    +0.000 A 
ATOM      6  C   UNL     1       7.215   7.231  17.267  0.00  0.00    +0.000 A 
ATOM      7  C   UNL     1       8.192   7.339  18.260  0.00  0.00    +0.000 A 
ATOM      8  C   UNL     1       8.178   6.475  19.355  0.00  0.00    +0.000 A 
ATOM      9  C   UNL     1       7.195   5.491  19.452  0.00  0.00    +0.000 A 
ATOM     10  C   UNL     1       6.219   5.378  18.454  0.00  0.00    +0.000 A 
ATOM     11  C   UNL     1       5.210   4.311  18.548  0.00  0.00    +0.000 C 
ATOM     12  O   UNL     1       5.372   3.401  19.352  0.00  0.00    +0.000 OA
ENDROOT
BRANCH   1  14
ATOM     13  O   UNL     1       2.508   2.773  16.782  0.00  0.00    +0.000 OA
ATOM     14  C   UNL     1       2.870   3.452  17.740  0.00  0.00    +0.000 C 
BRANCH  14  15
ATOM     15  C   UNL     1       2.175   3.403  19.014  0.00  0.00    +0.000 A 
ATOM     16  C   UNL     1       1.737   4.517  19.792  0.00  0.00    +0.000 A 
ATOM     17  C   UNL     1       1.093   4.004  20.892  0.00  0.00    +0.000 A 
ATOM     18  O   UNL     1       1.156   2.649  20.885  0.00  0.00    +0.000 OA
ATOM     19  C   UNL     1       1.822   2.291  19.757  0.00  0.00    +0.000 A 
ENDBRANCH  14  15
ENDBRANCH   1  14
TORSDOF 2
ENDMDL
MODEL 6
REMARK VINA RESULT:      -7.5      2.071      2.981
REMARK  Name = 
REMARK  2 active torsions:
REMARK  status: ('A' for Active; 'I' for Inactive)
REMARK    1  A    between atoms: C_2  and  C_3
REMARK    2  A    between atoms: C_2  and  C_15
REMARK                            x       y       z     vdW  Elec       q    Type
REMARK                         _______ _______ _______ _____ _____    ______ ____
ROOT
ATOM      1  C   UNL     1       5.128   5.637  17.812  0.00  0.00    +0.000 C 
ATOM      2  C   UNL     1       4.169   6.574  17.795  0.00  0.00    +0.000 C 
ATOM      3  C   UNL     1       2.966   6.498  18.647  0.00  0.00    +0.000 C 
ATOM      4  O   UNL     1       2.152   7.408  18.655  0.00  0.00    +0.000 OA
ATOM      5  C   UNL     1       2.771   5.273  19.445  0.00  0.00    +0.000 A 
ATOM      6  C   UNL     1       1.583   5.081  20.158  0.00  0.00    +0.000 A 
ATOM      7  C   UNL     1       1.394   3.908  20.894  0.00  0.00    +0.000 A 
ATOM      8  C   UNL     1       2.387   2.928  20.916  0.00  0.00    +0.000 A 
ATOM      9  C   UNL     1       3.576   3.125  20.216  0.00  0.00    +0.000 A 
ATOM     10  C   UNL     1       3.768   4.304  19.483  0.00  0.00    +0.000 A 
ATOM     11  C   UNL     1       5.043   4.518  18.779  0.00  0.00    +0.000 C 
ATOM     12  O   UNL     1       5.996   3.791  19.031  0.00  0.00    +0.000 OA
ENDROOT
BRANCH   1  14
ATOM     13  O   UNL     1       7.221   6.593  17.238  0.00  0.00    +0.000 OA
ATOM     14  C   UNL     1       6.296   5.855  16.907  0.00  0.00    +0.000 C 
BRANCH  14  15
ATOM     15  C   UNL     1       6.291   5.166  15.629  0.00  0.00    +0.000 A 
ATOM     16  C   UNL     1       5.273   4.298  15.130  0.00  0.00    +0.000 A 
ATOM     17  C   UNL     1       5.666   3.910  13.872  0.00  0.00    +0.000 A 
ATOM     18  O   UNL     1       6.887   4.422  13.580  0.00  0.00    +0.000 OA
ATOM     19  C   UNL     1       7.267   5.168  14.649  0.00  0.00    +0.000 A 
ENDBRANCH  14  15
ENDBRANCH   1  14
TORSDOF 2
ENDMDL
MODEL 7
REMARK VINA RESULT:      -7.3      2.549      4.292
REMARK  Name = 
REMARK  2 active torsions:
REMARK  status: ('A' for Active; 'I' for Inactive)
REMARK    1  A    between atoms: C_2  and  C_3
REMARK    2  A    between atoms: C_2  and  C_15
REMARK                            x       y       z     vdW  Elec       q    Type
REMARK                         _______ _______ _______ _____ _____    ______ ____
ROOT
ATOM      1  C   UNL     1       5.732   5.080  17.011  0.00  0.00    +0.000 C 
ATOM      2  C   UNL     1       5.361   4.253  18.000  0.00  0.00    +0.000 C 
ATOM      3  C   UNL     1       4.206   4.528  18.877  0.00  0.00    +0.000 C 
ATOM      4  O   UNL     1       3.858   3.714  19.719  0.00  0.00    +0.000 OA
ATOM      5  C   UNL     1       3.528   5.828  18.725  0.00  0.00    +0.000 A 
ATOM      6  C   UNL     1       2.522   6.204  19.622  0.00  0.00    +0.000 A 
ATOM      7  C   UNL     1       1.898   7.447  19.487  0.00  0.00    +0.000 A 
ATOM      8  C   UNL     1       2.278   8.313  18.462  0.00  0.00    +0.000 A 
ATOM      9  C   UNL     1       3.271   7.933  17.560  0.00  0.00    +0.000 A 
ATOM     10  C   UNL     1       3.892   6.684  17.692  0.00  0.00    +0.000 A 
ATOM     11  C   UNL     1       4.912   6.278  16.712  0.00  0.00    +0.000 C 
ATOM     12  O   UNL     1       5.035   6.917  15.674  0.00  0.00    +0.000 OA
ENDROOT
BRANCH   1  14
ATOM     13  O   UNL     1       8.023   4.554  16.703  0.00  0.00    +0.000 OA
ATOM     14  C   UNL     1       6.910   4.664  16.194  0.00  0.00    +0.000 C 
BRANCH  14  15
ATOM     15  C   UNL     1       6.688   4.399  14.784  0.00  0.00    +0.000 A 
ATOM     16  C   UNL     1       5.621   3.640  14.215  0.00  0.00    +0.000 A 
ATOM     17  C   UNL     1       5.784   3.689  12.851  0.00  0.00    +0.000 A 
ATOM     18  O   UNL     1       6.912   4.371  12.535  0.00  0.00    +0.000 OA
ATOM     19  C   UNL     1       7.462   4.786  13.705  0.00  0.00    +0.000 A 
ENDBRANCH  14  15
ENDBRANCH   1  14
TORSDOF 2
ENDMDL
MODEL 8
REMARK VINA RESULT:      -7.3      1.390      1.499
REMARK  Name = 
REMARK  2 active torsions:
REMARK  status: ('A' for Active; 'I' for Inactive)
REMARK    1  A    between atoms: C_2  and  C_3
REMARK    2  A    between atoms: C_2  and  C_15
REMARK                            x       y       z     vdW  Elec       q    Type
REMARK                         _______ _______ _______ _____ _____    ______ ____
ROOT
ATOM      1  C   UNL     1       4.929   5.155  18.002  0.00  0.00    +0.000 C 
ATOM      2  C   UNL     1       3.971   6.073  17.806  0.00  0.00    +0.000 C 
ATOM      3  C   UNL     1       2.660   6.014  18.482  0.00  0.00    +0.000 C 
ATOM      4  O   UNL     1       1.843   6.909  18.331  0.00  0.00    +0.000 OA
ATOM      5  C   UNL     1       2.367   4.823  19.300  0.00  0.00    +0.000 A 
ATOM      6  C   UNL     1       1.092   4.642  19.846  0.00  0.00    +0.000 A 
ATOM      7  C   UNL     1       0.813   3.500  20.602  0.00  0.00    +0.000 A 
ATOM      8  C   UNL     1       1.803   2.540  20.810  0.00  0.00    +0.000 A 
ATOM      9  C   UNL     1       3.078   2.726  20.277  0.00  0.00    +0.000 A 
ATOM     10  C   UNL     1       3.359   3.874  19.525  0.00  0.00    +0.000 A 
ATOM     11  C   UNL     1       4.718   4.078  18.999  0.00  0.00    +0.000 C 
ATOM     12  O   UNL     1       5.634   3.380  19.418  0.00  0.00    +0.000 OA
ENDROOT
BRANCH   1  14
ATOM     13  O   UNL     1       6.507   4.634  16.311  0.00  0.00    +0.000 OA
ATOM     14  C   UNL     1       6.211   5.352  17.263  0.00  0.00    +0.000 C 
BRANCH  14  15
ATOM     15  C   UNL     1       7.087   6.419  17.715  0.00  0.00    +0.000 A 
ATOM     16  C   UNL     1       7.245   7.706  17.117  0.00  0.00    +0.000 A 
ATOM     17  C   UNL     1       8.138   8.398  17.899  0.00  0.00    +0.000 A 
ATOM     18  O   UNL     1       8.596   7.610  18.902  0.00  0.00    +0.000 OA
ATOM     19  C   UNL     1       7.969   6.411  18.779  0.00  0.00    +0.000 A 
ENDBRANCH  14  15
ENDBRANCH   1  14
TORSDOF 2
ENDMDL
MODEL 9
REMARK VINA RESULT:      -7.2      2.947      4.777
REMARK  Name = 
REMARK  2 active torsions:
REMARK  status: ('A' for Active; 'I' for Inactive)
REMARK    1  A    between atoms: C_2  and  C_3
REMARK    2  A    between atoms: C_2  and  C_15
REMARK                            x       y       z     vdW  Elec       q    Type
REMARK                         _______ _______ _______ _____ _____    ______ ____
ROOT
ATOM      1  C   UNL     1       5.648   4.876  15.787  0.00  0.00    +0.000 C 
ATOM      2  C   UNL     1       5.303   3.735  16.402  0.00  0.00    +0.000 C 
ATOM      3  C   UNL     1       4.270   3.678  17.454  0.00  0.00    +0.000 C 
ATOM      4  O   UNL     1       3.935   2.608  17.938  0.00  0.00    +0.000 OA
ATOM      5  C   UNL     1       3.699   4.955  17.921  0.00  0.00    +0.000 A 
ATOM      6  C   UNL     1       2.824   4.977  19.012  0.00  0.00    +0.000 A 
ATOM      7  C   UNL     1       2.305   6.193  19.464  0.00  0.00    +0.000 A 
ATOM      8  C   UNL     1       2.658   7.384  18.831  0.00  0.00    +0.000 A 
ATOM      9  C   UNL     1       3.519   7.361  17.735  0.00  0.00    +0.000 A 
ATOM     10  C   UNL     1       4.036   6.142  17.278  0.00  0.00    +0.000 A 
ATOM     11  C   UNL     1       4.914   6.126  16.097  0.00  0.00    +0.000 C 
ATOM     12  O   UNL     1       4.990   7.126  15.393  0.00  0.00    +0.000 OA
ENDROOT
BRANCH   1  14
ATOM     13  O   UNL     1       7.808   5.279  14.896  0.00  0.00    +0.000 OA
ATOM     14  C   UNL     1       6.698   4.779  14.730  0.00  0.00    +0.000 C 
BRANCH  14  15
ATOM     15  C   UNL     1       6.354   4.077  13.506  0.00  0.00    +0.000 A 
ATOM     16  C   UNL     1       5.052   3.653  13.102  0.00  0.00    +0.000 A 
ATOM     17  C   UNL     1       5.192   3.072  11.864  0.00  0.00    +0.000 A 
ATOM     18  O   UNL     1       6.498   3.046  11.500  0.00  0.00    +0.000 OA
ATOM     19  C   UNL     1       7.197   3.642  12.501  0.00  0.00    +0.000 A 
ENDBRANCH  14  15
ENDBRANCH   1  14
TORSDOF 2
ENDMDL
