MODEL 1
REMARK VINA RESULT:      -8.4      0.000      0.000
REMARK  Name = 
REMARK  12 active torsions:
REMARK  status: ('A' for Active; 'I' for Inactive)
REMARK    1  A    between atoms: C_1  and  O_2
REMARK    2  A    between atoms: O_2  and  C_3
REMARK    3  A    between atoms: C_6  and  C_7
REMARK    4  A    between atoms: C_7  and  C_9
REMARK    5  A    between atoms: C_12  and  C_13
REMARK    6  A    between atoms: C_13  and  N_14
REMARK    7  A    between atoms: N_14  and  C_15
REMARK    8  A    between atoms: N_14  and  C_16
REMARK    9  A    between atoms: C_16  and  C_17
REMARK   10  A    between atoms: C_21  and  C_22
REMARK   11  A    between atoms: C_27  and  O_28
REMARK   12  A    between atoms: O_28  and  C_29
REMARK                            x       y       z     vdW  Elec       q    Type
REMARK                         _______ _______ _______ _____ _____    ______ ____
ROOT
ATOM      1  C   UNL     1       2.820   6.418  18.618  0.00  0.00    +0.000 A 
ATOM      2  C   UNL     1       2.349   6.607  19.924  0.00  0.00    +0.000 A 
ATOM      3  C   UNL     1       1.770   7.825  20.288  0.00  0.00    +0.000 A 
ATOM      4  C   UNL     1       1.663   8.871  19.353  0.00  0.00    +0.000 A 
ATOM      5  C   UNL     1       2.086   8.659  18.040  0.00  0.00    +0.000 A 
ATOM      6  C   UNL     1       2.638   7.431  17.665  0.00  0.00    +0.000 A 
ENDROOT
BRANCH   1   7
ATOM      7  C   UNL     1       3.502   5.143  18.280  0.00  0.00    +0.000 C 
ATOM      8  O   UNL     1       3.116   4.093  18.789  0.00  0.00    +0.000 OA
BRANCH   7  12
ATOM      9  C   UNL     1       6.690   5.172  15.390  0.00  0.00    +0.000 A 
ATOM     10  C   UNL     1       5.627   4.259  15.288  0.00  0.00    +0.000 A 
ATOM     11  C   UNL     1       4.600   4.242  16.236  0.00  0.00    +0.000 A 
ATOM     12  C   UNL     1       4.649   5.109  17.327  0.00  0.00    +0.000 A 
ATOM     13  C   UNL     1       5.774   5.919  17.498  0.00  0.00    +0.000 A 
ATOM     14  C   UNL     1       6.783   5.987  16.529  0.00  0.00    +0.000 A 
BRANCH   9  16
ATOM     15  C   UNL     1       7.306   4.742  13.139  0.00  0.00    +0.000 C 
ATOM     16  O   UNL     1       7.654   5.258  14.423  0.00  0.00    +0.000 OA
ENDBRANCH   9  16
BRANCH  14  17
ATOM     17  O   UNL     1       7.734   6.913  16.860  0.00  0.00    +0.000 OA
ATOM     18  C   UNL     1       7.921   7.261  18.222  0.00  0.00    +0.000 C 
ENDBRANCH  14  17
ENDBRANCH   7  12
ENDBRANCH   1   7
BRANCH   4  19
ATOM     19  C   UNL     1       1.058  10.209  19.748  0.00  0.00    +0.000 C 
BRANCH  19  20
ATOM     20  N   UNL     1      -0.364  10.134  20.126  0.00  0.00    +0.000 NA
ATOM     21  C   UNL     1      -0.535  10.041  21.581  0.00  0.00    +0.000 C 
BRANCH  20  22
ATOM     22  C   UNL     1      -1.101  11.322  19.637  0.00  0.00    +0.000 C 
BRANCH  22  23
ATOM     23  C   UNL     1      -1.990  11.037  18.445  0.00  0.00    +0.000 A 
ATOM     24  C   UNL     1      -1.603  10.108  17.469  0.00  0.00    +0.000 A 
ATOM     25  C   UNL     1      -2.451   9.811  16.402  0.00  0.00    +0.000 A 
ATOM     26  C   UNL     1      -3.693  10.435  16.300  0.00  0.00    +0.000 A 
ATOM     27  C   UNL     1      -4.094  11.374  17.256  0.00  0.00    +0.000 A 
ATOM     28  C   UNL     1      -5.448  12.013  17.195  0.00  0.00    +0.000 C 
ATOM     29  C   UNL     1      -3.231  11.679  18.317  0.00  0.00    +0.000 A 
ENDBRANCH  22  23
ENDBRANCH  20  22
ENDBRANCH  19  20
ENDBRANCH   4  19
TORSDOF 8
ENDMDL
MODEL 2
REMARK VINA RESULT:      -8.4      0.609      1.085
REMARK  Name = 
REMARK  12 active torsions:
REMARK  status: ('A' for Active; 'I' for Inactive)
REMARK    1  A    between atoms: C_1  and  O_2
REMARK    2  A    between atoms: O_2  and  C_3
REMARK    3  A    between atoms: C_6  and  C_7
REMARK    4  A    between atoms: C_7  and  C_9
REMARK    5  A    between atoms: C_12  and  C_13
REMARK    6  A    between atoms: C_13  and  N_14
REMARK    7  A    between atoms: N_14  and  C_15
REMARK    8  A    between atoms: N_14  and  C_16
REMARK    9  A    between atoms: C_16  and  C_17
REMARK   10  A    between atoms: C_21  and  C_22
REMARK   11  A    between atoms: C_27  and  O_28
REMARK   12  A    between atoms: O_28  and  C_29
REMARK                            x       y       z     vdW  Elec       q    Type
REMARK                         _______ _______ _______ _____ _____    ______ ____
ROOT
ATOM      1  C   UNL     1       2.385   6.813  18.770  0.00  0.00    +0.000 A 
ATOM      2  C   UNL     1       2.248   7.917  17.918  0.00  0.00    +0.000 A 
ATOM      3  C   UNL     1       1.770   9.130  18.419  0.00  0.00    +0.000 A 
ATOM      4  C   UNL     1       1.414   9.250  19.776  0.00  0.00    +0.000 A 
ATOM      5  C   UNL     1       1.601   8.162  20.630  0.00  0.00    +0.000 A 
ATOM      6  C   UNL     1       2.109   6.957  20.138  0.00  0.00    +0.000 A 
ENDROOT
BRANCH   1   7
ATOM      7  C   UNL     1       2.821   5.514  18.195  0.00  0.00    +0.000 C 
ATOM      8  O   UNL     1       2.105   4.523  18.319  0.00  0.00    +0.000 OA
BRANCH   7  12
ATOM      9  C   UNL     1       6.447   5.220  15.896  0.00  0.00    +0.000 A 
ATOM     10  C   UNL     1       5.504   4.178  15.901  0.00  0.00    +0.000 A 
ATOM     11  C   UNL     1       4.334   4.271  16.659  0.00  0.00    +0.000 A 
ATOM     12  C   UNL     1       4.115   5.388  17.464  0.00  0.00    +0.000 A 
ATOM     13  C   UNL     1       5.115   6.358  17.562  0.00  0.00    +0.000 A 
ATOM     14  C   UNL     1       6.267   6.306  16.766  0.00  0.00    +0.000 A 
BRANCH   9  16
ATOM     15  C   UNL     1       7.315   4.924  13.708  0.00  0.00    +0.000 C 
ATOM     16  O   UNL     1       7.553   5.181  15.092  0.00  0.00    +0.000 OA
ENDBRANCH   9  16
BRANCH  14  17
ATOM     17  O   UNL     1       7.059   7.405  16.961  0.00  0.00    +0.000 OA
ATOM     18  C   UNL     1       7.989   7.411  18.031  0.00  0.00    +0.000 C 
ENDBRANCH  14  17
ENDBRANCH   7  12
ENDBRANCH   1   7
BRANCH   4  19
ATOM     19  C   UNL     1       0.867  10.559  20.324  0.00  0.00    +0.000 C 
BRANCH  19  20
ATOM     20  N   UNL     1      -0.583  10.541  20.583  0.00  0.00    +0.000 NA
ATOM     21  C   UNL     1      -0.879  10.623  22.019  0.00  0.00    +0.000 C 
BRANCH  20  22
ATOM     22  C   UNL     1      -1.254  11.668  19.895  0.00  0.00    +0.000 C 
BRANCH  22  23
ATOM     23  C   UNL     1      -2.098  11.241  18.712  0.00  0.00    +0.000 A 
ATOM     24  C   UNL     1      -1.598  10.336  17.766  0.00  0.00    +0.000 A 
ATOM     25  C   UNL     1      -2.400   9.906  16.708  0.00  0.00    +0.000 A 
ATOM     26  C   UNL     1      -3.708  10.372  16.587  0.00  0.00    +0.000 A 
ATOM     27  C   UNL     1      -4.223  11.284  17.515  0.00  0.00    +0.000 A 
ATOM     28  C   UNL     1      -5.645  11.753  17.434  0.00  0.00    +0.000 C 
ATOM     29  C   UNL     1      -3.407  11.724  18.565  0.00  0.00    +0.000 A 
ENDBRANCH  22  23
ENDBRANCH  20  22
ENDBRANCH  19  20
ENDBRANCH   4  19
TORSDOF 8
ENDMDL
MODEL 3
REMARK VINA RESULT:      -7.9      2.390      3.313
REMARK  Name = 
REMARK  12 active torsions:
REMARK  status: ('A' for Active; 'I' for Inactive)
REMARK    1  A    between atoms: C_1  and  O_2
REMARK    2  A    between atoms: O_2  and  C_3
REMARK    3  A    between atoms: C_6  and  C_7
REMARK    4  A    between atoms: C_7  and  C_9
REMARK    5  A    between atoms: C_12  and  C_13
REMARK    6  A    between atoms: C_13  and  N_14
REMARK    7  A    between atoms: N_14  and  C_15
REMARK    8  A    between atoms: N_14  and  C_16
REMARK    9  A    between atoms: C_16  and  C_17
REMARK   10  A    between atoms: C_21  and  C_22
REMARK   11  A    between atoms: C_27  and  O_28
REMARK   12  A    between atoms: O_28  and  C_29
REMARK                            x       y       z     vdW  Elec       q    Type
REMARK                         _______ _______ _______ _____ _____    ______ ____
ROOT
ATOM      1  C   UNL     1       2.262   7.201  19.536  0.00  0.00    +0.000 A 
ATOM      2  C   UNL     1       2.463   7.780  18.276  0.00  0.00    +0.000 A 
ATOM      3  C   UNL     1       1.935   9.043  17.996  0.00  0.00    +0.000 A 
ATOM      4  C   UNL     1       1.194   9.738  18.970  0.00  0.00    +0.000 A 
ATOM      5  C   UNL     1       1.042   9.179  20.240  0.00  0.00    +0.000 A 
ATOM      6  C   UNL     1       1.594   7.929  20.532  0.00  0.00    +0.000 A 
ENDROOT
BRANCH   1   7
ATOM      7  C   UNL     1       2.765   5.825  19.780  0.00  0.00    +0.000 C 
ATOM      8  O   UNL     1       2.422   5.223  20.795  0.00  0.00    +0.000 OA
BRANCH   7  12
ATOM      9  C   UNL     1       5.394   4.073  16.858  0.00  0.00    +0.000 A 
ATOM     10  C   UNL     1       3.998   4.017  16.705  0.00  0.00    +0.000 A 
ATOM     11  C   UNL     1       3.146   4.575  17.663  0.00  0.00    +0.000 A 
ATOM     12  C   UNL     1       3.681   5.154  18.813  0.00  0.00    +0.000 A 
ATOM     13  C   UNL     1       5.060   5.087  19.026  0.00  0.00    +0.000 A 
ATOM     14  C   UNL     1       5.929   4.582  18.051  0.00  0.00    +0.000 A 
BRANCH   9  16
ATOM     15  C   UNL     1       6.095   4.198  14.594  0.00  0.00    +0.000 C 
ATOM     16  O   UNL     1       6.239   3.610  15.887  0.00  0.00    +0.000 OA
ENDBRANCH   9  16
BRANCH  14  17
ATOM     17  O   UNL     1       7.237   4.703  18.435  0.00  0.00    +0.000 OA
ATOM     18  C   UNL     1       7.633   5.821  19.211  0.00  0.00    +0.000 C 
ENDBRANCH  14  17
ENDBRANCH   7  12
ENDBRANCH   1   7
BRANCH   4  19
ATOM     19  C   UNL     1       0.594  11.102  18.665  0.00  0.00    +0.000 C 
BRANCH  19  20
ATOM     20  N   UNL     1       0.822  12.105  19.720  0.00  0.00    +0.000 NA
ATOM     21  C   UNL     1       1.990  12.946  19.427  0.00  0.00    +0.000 C 
BRANCH  20  22
ATOM     22  C   UNL     1      -0.363  12.979  19.880  0.00  0.00    +0.000 C 
BRANCH  22  23
ATOM     23  C   UNL     1      -1.242  12.601  21.054  0.00  0.00    +0.000 A 
ATOM     24  C   UNL     1      -0.719  11.877  22.135  0.00  0.00    +0.000 A 
ATOM     25  C   UNL     1      -1.521  11.579  23.238  0.00  0.00    +0.000 A 
ATOM     26  C   UNL     1      -2.848  12.003  23.274  0.00  0.00    +0.000 A 
ATOM     27  C   UNL     1      -3.392  12.718  22.200  0.00  0.00    +0.000 A 
ATOM     28  C   UNL     1      -4.800  13.231  22.244  0.00  0.00    +0.000 C 
ATOM     29  C   UNL     1      -2.586  12.999  21.089  0.00  0.00    +0.000 A 
ENDBRANCH  22  23
ENDBRANCH  20  22
ENDBRANCH  19  20
ENDBRANCH   4  19
TORSDOF 8
ENDMDL
MODEL 4
REMARK VINA RESULT:      -7.9      2.075      2.838
REMARK  Name = 
REMARK  12 active torsions:
REMARK  status: ('A' for Active; 'I' for Inactive)
REMARK    1  A    between atoms: C_1  and  O_2
REMARK    2  A    between atoms: O_2  and  C_3
REMARK    3  A    between atoms: C_6  and  C_7
REMARK    4  A    between atoms: C_7  and  C_9
REMARK    5  A    between atoms: C_12  and  C_13
REMARK    6  A    between atoms: C_13  and  N_14
REMARK    7  A    between atoms: N_14  and  C_15
REMARK    8  A    between atoms: N_14  and  C_16
REMARK    9  A    between atoms: C_16  and  C_17
REMARK   10  A    between atoms: C_21  and  C_22
REMARK   11  A    between atoms: C_27  and  O_28
REMARK   12  A    between atoms: O_28  and  C_29
REMARK                            x       y       z     vdW  Elec       q    Type
REMARK                         _______ _______ _______ _____ _____    ______ ____
ROOT
ATOM      1  C   UNL     1       2.721   7.018  18.970  0.00  0.00    +0.000 A 
ATOM      2  C   UNL     1       2.044   7.496  20.099  0.00  0.00    +0.000 A 
ATOM      3  C   UNL     1       1.299   8.676  20.019  0.00  0.00    +0.000 A 
ATOM      4  C   UNL     1       1.232   9.395  18.811  0.00  0.00    +0.000 A 
ATOM      5  C   UNL     1       1.866   8.886  17.677  0.00  0.00    +0.000 A 
ATOM      6  C   UNL     1       2.585   7.691  17.746  0.00  0.00    +0.000 A 
ENDROOT
BRANCH   1   7
ATOM      7  C   UNL     1       3.569   5.805  19.103  0.00  0.00    +0.000 C 
ATOM      8  O   UNL     1       3.428   5.069  20.077  0.00  0.00    +0.000 OA
BRANCH   7  12
ATOM      9  C   UNL     1       6.375   4.889  15.972  0.00  0.00    +0.000 A 
ATOM     10  C   UNL     1       5.313   4.019  16.273  0.00  0.00    +0.000 A 
ATOM     11  C   UNL     1       4.411   4.313  17.299  0.00  0.00    +0.000 A 
ATOM     12  C   UNL     1       4.590   5.459  18.073  0.00  0.00    +0.000 A 
ATOM     13  C   UNL     1       5.722   6.250  17.861  0.00  0.00    +0.000 A 
ATOM     14  C   UNL     1       6.603   5.999  16.801  0.00  0.00    +0.000 A 
BRANCH   9  16
ATOM     15  C   UNL     1       6.595   4.201  13.712  0.00  0.00    +0.000 C 
ATOM     16  O   UNL     1       7.212   4.659  14.914  0.00  0.00    +0.000 OA
ENDBRANCH   9  16
BRANCH  14  17
ATOM     17  O   UNL     1       7.582   6.952  16.728  0.00  0.00    +0.000 OA
ATOM     18  C   UNL     1       7.760   7.850  17.811  0.00  0.00    +0.000 C 
ENDBRANCH  14  17
ENDBRANCH   7  12
ENDBRANCH   1   7
BRANCH   4  19
ATOM     19  C   UNL     1       0.445  10.694  18.722  0.00  0.00    +0.000 C 
BRANCH  19  20
ATOM     20  N   UNL     1       1.074  11.824  19.427  0.00  0.00    +0.000 NA
ATOM     21  C   UNL     1       2.163  12.418  18.640  0.00  0.00    +0.000 C 
BRANCH  20  22
ATOM     22  C   UNL     1       0.077  12.878  19.727  0.00  0.00    +0.000 C 
BRANCH  22  23
ATOM     23  C   UNL     1      -0.861  12.521  20.861  0.00  0.00    +0.000 A 
ATOM     24  C   UNL     1      -0.377  11.896  22.020  0.00  0.00    +0.000 A 
ATOM     25  C   UNL     1      -1.237  11.619  23.083  0.00  0.00    +0.000 A 
ATOM     26  C   UNL     1      -2.585  11.966  23.003  0.00  0.00    +0.000 A 
ATOM     27  C   UNL     1      -3.090  12.581  21.851  0.00  0.00    +0.000 A 
ATOM     28  C   UNL     1      -4.523  13.012  21.767  0.00  0.00    +0.000 C 
ATOM     29  C   UNL     1      -2.224  12.841  20.781  0.00  0.00    +0.000 A 
ENDBRANCH  22  23
ENDBRANCH  20  22
ENDBRANCH  19  20
ENDBRANCH   4  19
TORSDOF 8
ENDMDL
MODEL 5
REMARK VINA RESULT:      -7.9      1.164      1.930
REMARK  Name = 
REMARK  12 active torsions:
REMARK  status: ('A' for Active; 'I' for Inactive)
REMARK    1  A    between atoms: C_1  and  O_2
REMARK    2  A    between atoms: O_2  and  C_3
REMARK    3  A    between atoms: C_6  and  C_7
REMARK    4  A    between atoms: C_7  and  C_9
REMARK    5  A    between atoms: C_12  and  C_13
REMARK    6  A    between atoms: C_13  and  N_14
REMARK    7  A    between atoms: N_14  and  C_15
REMARK    8  A    between atoms: N_14  and  C_16
REMARK    9  A    between atoms: C_16  and  C_17
REMARK   10  A    between atoms: C_21  and  C_22
REMARK   11  A    between atoms: C_27  and  O_28
REMARK   12  A    between atoms: O_28  and  C_29
REMARK                            x       y       z     vdW  Elec       q    Type
REMARK                         _______ _______ _______ _____ _____    ______ ____
ROOT
ATOM      1  C   UNL     1       2.274   7.016  19.310  0.00  0.00    +0.000 A 
ATOM      2  C   UNL     1       2.366   7.750  18.120  0.00  0.00    +0.000 A 
ATOM      3  C   UNL     1       1.896   9.065  18.073  0.00  0.00    +0.000 A 
ATOM      4  C   UNL     1       1.320   9.657  19.212  0.00  0.00    +0.000 A 
ATOM      5  C   UNL     1       1.279   8.939  20.408  0.00  0.00    +0.000 A 
ATOM      6  C   UNL     1       1.776   7.635  20.466  0.00  0.00    +0.000 A 
ENDROOT
BRANCH   1   7
ATOM      7  C   UNL     1       2.708   5.595  19.310  0.00  0.00    +0.000 C 
ATOM      8  O   UNL     1       2.144   4.787  20.044  0.00  0.00    +0.000 OA
BRANCH   7  12
ATOM      9  C   UNL     1       5.842   4.392  16.618  0.00  0.00    +0.000 A 
ATOM     10  C   UNL     1       4.545   3.863  16.505  0.00  0.00    +0.000 A 
ATOM     11  C   UNL     1       3.532   4.245  17.389  0.00  0.00    +0.000 A 
ATOM     12  C   UNL     1       3.818   5.127  18.431  0.00  0.00    +0.000 A 
ATOM     13  C   UNL     1       5.137   5.544  18.623  0.00  0.00    +0.000 A 
ATOM     14  C   UNL     1       6.150   5.213  17.713  0.00  0.00    +0.000 A 
BRANCH   9  16
ATOM     15  C   UNL     1       6.813   4.864  14.505  0.00  0.00    +0.000 C 
ATOM     16  O   UNL     1       6.818   4.094  15.706  0.00  0.00    +0.000 OA
ENDBRANCH   9  16
BRANCH  14  17
ATOM     17  O   UNL     1       7.337   5.807  18.047  0.00  0.00    +0.000 OA
ATOM     18  C   UNL     1       7.797   5.734  19.387  0.00  0.00    +0.000 C 
ENDBRANCH  14  17
ENDBRANCH   7  12
ENDBRANCH   1   7
BRANCH   4  19
ATOM     19  C   UNL     1       0.782  11.079  19.163  0.00  0.00    +0.000 C 
BRANCH  19  20
ATOM     20  N   UNL     1      -0.561  11.232  19.747  0.00  0.00    +0.000 NA
ATOM     21  C   UNL     1      -0.497  11.586  21.171  0.00  0.00    +0.000 C 
BRANCH  20  22
ATOM     22  C   UNL     1      -1.330  12.277  19.033  0.00  0.00    +0.000 C 
BRANCH  22  23
ATOM     23  C   UNL     1      -2.466  11.729  18.195  0.00  0.00    +0.000 A 
ATOM     24  C   UNL     1      -3.792  11.816  18.643  0.00  0.00    +0.000 A 
ATOM     25  C   UNL     1      -4.839  11.358  17.841  0.00  0.00    +0.000 A 
ATOM     26  C   UNL     1      -4.573  10.814  16.586  0.00  0.00    +0.000 A 
ATOM     27  C   UNL     1      -3.256  10.708  16.125  0.00  0.00    +0.000 A 
ATOM     28  C   UNL     1      -2.954  10.178  14.756  0.00  0.00    +0.000 C 
ATOM     29  C   UNL     1      -2.209  11.155  16.941  0.00  0.00    +0.000 A 
ENDBRANCH  22  23
ENDBRANCH  20  22
ENDBRANCH  19  20
ENDBRANCH   4  19
TORSDOF 8
ENDMDL
MODEL 6
REMARK VINA RESULT:      -7.9      3.373      9.468
REMARK  Name = 
REMARK  12 active torsions:
REMARK  status: ('A' for Active; 'I' for Inactive)
REMARK    1  A    between atoms: C_1  and  O_2
REMARK    2  A    between atoms: O_2  and  C_3
REMARK    3  A    between atoms: C_6  and  C_7
REMARK    4  A    between atoms: C_7  and  C_9
REMARK    5  A    between atoms: C_12  and  C_13
REMARK    6  A    between atoms: C_13  and  N_14
REMARK    7  A    between atoms: N_14  and  C_15
REMARK    8  A    between atoms: N_14  and  C_16
REMARK    9  A    between atoms: C_16  and  C_17
REMARK   10  A    between atoms: C_21  and  C_22
REMARK   11  A    between atoms: C_27  and  O_28
REMARK   12  A    between atoms: O_28  and  C_29
REMARK                            x       y       z     vdW  Elec       q    Type
REMARK                         _______ _______ _______ _____ _____    ______ ____
ROOT
ATOM      1  C   UNL     1       1.386   9.358  19.059  0.00  0.00    +0.000 A 
ATOM      2  C   UNL     1       1.427   8.461  20.135  0.00  0.00    +0.000 A 
ATOM      3  C   UNL     1       1.973   7.187  19.961  0.00  0.00    +0.000 A 
ATOM      4  C   UNL     1       2.476   6.792  18.707  0.00  0.00    +0.000 A 
ATOM      5  C   UNL     1       2.479   7.708  17.654  0.00  0.00    +0.000 A 
ATOM      6  C   UNL     1       1.962   8.993  17.833  0.00  0.00    +0.000 A 
ENDROOT
BRANCH   1   7
ATOM      7  C   UNL     1       0.729  10.676  19.251  0.00  0.00    +0.000 C 
ATOM      8  O   UNL     1       1.376  11.618  19.703  0.00  0.00    +0.000 OA
BRANCH   7  12
ATOM      9  C   UNL     1      -3.352  11.464  18.135  0.00  0.00    +0.000 A 
ATOM     10  C   UNL     1      -2.784  12.056  19.276  0.00  0.00    +0.000 A 
ATOM     11  C   UNL     1      -1.463  11.788  19.643  0.00  0.00    +0.000 A 
ATOM     12  C   UNL     1      -0.706  10.882  18.901  0.00  0.00    +0.000 A 
ATOM     13  C   UNL     1      -1.316  10.193  17.850  0.00  0.00    +0.000 A 
ATOM     14  C   UNL     1      -2.620  10.492  17.436  0.00  0.00    +0.000 A 
BRANCH   9  16
ATOM     15  C   UNL     1      -5.673  10.977  18.228  0.00  0.00    +0.000 C 
ATOM     16  O   UNL     1      -4.614  11.785  17.715  0.00  0.00    +0.000 OA
ENDBRANCH   9  16
BRANCH  14  17
ATOM     17  O   UNL     1      -2.975   9.763  16.334  0.00  0.00    +0.000 OA
ATOM     18  C   UNL     1      -2.914  10.367  15.052  0.00  0.00    +0.000 C 
ENDBRANCH  14  17
ENDBRANCH   7  12
ENDBRANCH   1   7
BRANCH   4  19
ATOM     19  C   UNL     1       3.048   5.398  18.502  0.00  0.00    +0.000 C 
BRANCH  19  20
ATOM     20  N   UNL     1       3.625   4.803  19.721  0.00  0.00    +0.000 NA
ATOM     21  C   UNL     1       2.708   3.835  20.338  0.00  0.00    +0.000 C 
BRANCH  20  22
ATOM     22  C   UNL     1       4.903   4.119  19.418  0.00  0.00    +0.000 C 
BRANCH  22  23
ATOM     23  C   UNL     1       5.634   4.698  18.225  0.00  0.00    +0.000 A 
ATOM     24  C   UNL     1       6.502   5.788  18.378  0.00  0.00    +0.000 A 
ATOM     25  C   UNL     1       7.214   6.282  17.283  0.00  0.00    +0.000 A 
ATOM     26  C   UNL     1       7.068   5.692  16.029  0.00  0.00    +0.000 A 
ATOM     27  C   UNL     1       6.197   4.610  15.852  0.00  0.00    +0.000 A 
ATOM     28  C   UNL     1       6.069   3.927  14.525  0.00  0.00    +0.000 C 
ATOM     29  C   UNL     1       5.474   4.130  16.952  0.00  0.00    +0.000 A 
ENDBRANCH  22  23
ENDBRANCH  20  22
ENDBRANCH  19  20
ENDBRANCH   4  19
TORSDOF 8
ENDMDL
MODEL 7
REMARK VINA RESULT:      -7.9      1.347      1.557
REMARK  Name = 
REMARK  12 active torsions:
REMARK  status: ('A' for Active; 'I' for Inactive)
REMARK    1  A    between atoms: C_1  and  O_2
REMARK    2  A    between atoms: O_2  and  C_3
REMARK    3  A    between atoms: C_6  and  C_7
REMARK    4  A    between atoms: C_7  and  C_9
REMARK    5  A    between atoms: C_12  and  C_13
REMARK    6  A    between atoms: C_13  and  N_14
REMARK    7  A    between atoms: N_14  and  C_15
REMARK    8  A    between atoms: N_14  and  C_16
REMARK    9  A    between atoms: C_16  and  C_17
REMARK   10  A    between atoms: C_21  and  C_22
REMARK   11  A    between atoms: C_27  and  O_28
REMARK   12  A    between atoms: O_28  and  C_29
REMARK                            x       y       z     vdW  Elec       q    Type
REMARK                         _______ _______ _______ _____ _____    ______ ____
ROOT
ATOM      1  C   UNL     1       2.287   7.089  19.458  0.00  0.00    +0.000 A 
ATOM      2  C   UNL     1       1.598   7.711  20.508  0.00  0.00    +0.000 A 
ATOM      3  C   UNL     1       1.156   9.029  20.369  0.00  0.00    +0.000 A 
ATOM      4  C   UNL     1       1.406   9.743  19.182  0.00  0.00    +0.000 A 
ATOM      5  C   UNL     1       2.046   9.102  18.121  0.00  0.00    +0.000 A 
ATOM      6  C   UNL     1       2.462   7.774  18.246  0.00  0.00    +0.000 A 
ENDROOT
BRANCH   1   7
ATOM      7  C   UNL     1       2.814   5.716  19.661  0.00  0.00    +0.000 C 
ATOM      8  O   UNL     1       2.448   5.062  20.635  0.00  0.00    +0.000 OA
BRANCH   7  12
ATOM      9  C   UNL     1       5.592   4.155  16.769  0.00  0.00    +0.000 A 
ATOM     10  C   UNL     1       4.205   4.076  16.559  0.00  0.00    +0.000 A 
ATOM     11  C   UNL     1       3.305   4.572  17.506  0.00  0.00    +0.000 A 
ATOM     12  C   UNL     1       3.781   5.109  18.702  0.00  0.00    +0.000 A 
ATOM     13  C   UNL     1       5.152   5.062  18.966  0.00  0.00    +0.000 A 
ATOM     14  C   UNL     1       6.070   4.620  18.004  0.00  0.00    +0.000 A 
BRANCH   9  16
ATOM     15  C   UNL     1       6.801   4.716  14.806  0.00  0.00    +0.000 C 
ATOM     16  O   UNL     1       6.485   3.755  15.812  0.00  0.00    +0.000 OA
ENDBRANCH   9  16
BRANCH  14  17
ATOM     17  O   UNL     1       7.358   4.751  18.444  0.00  0.00    +0.000 OA
ATOM     18  C   UNL     1       7.683   5.799  19.344  0.00  0.00    +0.000 C 
ENDBRANCH  14  17
ENDBRANCH   7  12
ENDBRANCH   1   7
BRANCH   4  19
ATOM     19  C   UNL     1       0.951  11.187  19.033  0.00  0.00    +0.000 C 
BRANCH  19  20
ATOM     20  N   UNL     1      -0.209  11.539  19.870  0.00  0.00    +0.000 NA
ATOM     21  C   UNL     1       0.193  12.285  21.068  0.00  0.00    +0.000 C 
BRANCH  20  22
ATOM     22  C   UNL     1      -1.180  12.355  19.106  0.00  0.00    +0.000 C 
BRANCH  22  23
ATOM     23  C   UNL     1      -2.182  11.533  18.323  0.00  0.00    +0.000 A 
ATOM     24  C   UNL     1      -1.752  10.525  17.447  0.00  0.00    +0.000 A 
ATOM     25  C   UNL     1      -2.682   9.735  16.770  0.00  0.00    +0.000 A 
ATOM     26  C   UNL     1      -4.047   9.940  16.962  0.00  0.00    +0.000 A 
ATOM     27  C   UNL     1      -4.497  10.948  17.822  0.00  0.00    +0.000 A 
ATOM     28  C   UNL     1      -5.959  11.147  18.085  0.00  0.00    +0.000 C 
ATOM     29  C   UNL     1      -3.558  11.748  18.487  0.00  0.00    +0.000 A 
ENDBRANCH  22  23
ENDBRANCH  20  22
ENDBRANCH  19  20
ENDBRANCH   4  19
TORSDOF 8
ENDMDL
MODEL 8
REMARK VINA RESULT:      -7.8      3.340      9.314
REMARK  Name = 
REMARK  12 active torsions:
REMARK  status: ('A' for Active; 'I' for Inactive)
REMARK    1  A    between atoms: C_1  and  O_2
REMARK    2  A    between atoms: O_2  and  C_3
REMARK    3  A    between atoms: C_6  and  C_7
REMARK    4  A    between atoms: C_7  and  C_9
REMARK    5  A    between atoms: C_12  and  C_13
REMARK    6  A    between atoms: C_13  and  N_14
REMARK    7  A    between atoms: N_14  and  C_15
REMARK    8  A    between atoms: N_14  and  C_16
REMARK    9  A    between atoms: C_16  and  C_17
REMARK   10  A    between atoms: C_21  and  C_22
REMARK   11  A    between atoms: C_27  and  O_28
REMARK   12  A    between atoms: O_28  and  C_29
REMARK                            x       y       z     vdW  Elec       q    Type
REMARK                         _______ _______ _______ _____ _____    ______ ____
ROOT
ATOM      1  C   UNL     1       1.626   8.973  18.864  0.00  0.00    +0.000 A 
ATOM      2  C   UNL     1       2.419   8.308  17.921  0.00  0.00    +0.000 A 
ATOM      3  C   UNL     1       2.957   7.054  18.221  0.00  0.00    +0.000 A 
ATOM      4  C   UNL     1       2.715   6.456  19.472  0.00  0.00    +0.000 A 
ATOM      5  C   UNL     1       1.882   7.101  20.388  0.00  0.00    +0.000 A 
ATOM      6  C   UNL     1       1.318   8.341  20.078  0.00  0.00    +0.000 A 
ENDROOT
BRANCH   1   7
ATOM      7  C   UNL     1       1.132  10.339  18.549  0.00  0.00    +0.000 C 
ATOM      8  O   UNL     1       1.936  11.252  18.381  0.00  0.00    +0.000 OA
BRANCH   7  12
ATOM      9  C   UNL     1      -3.025  11.356  18.095  0.00  0.00    +0.000 A 
ATOM     10  C   UNL     1      -2.260  11.881  19.151  0.00  0.00    +0.000 A 
ATOM     11  C   UNL     1      -0.914  11.538  19.304  0.00  0.00    +0.000 A 
ATOM     12  C   UNL     1      -0.327  10.624  18.429  0.00  0.00    +0.000 A 
ATOM     13  C   UNL     1      -1.124  10.001  17.466  0.00  0.00    +0.000 A 
ATOM     14  C   UNL     1      -2.459  10.376  17.265  0.00  0.00    +0.000 A 
BRANCH   9  16
ATOM     15  C   UNL     1      -5.331  10.830  18.286  0.00  0.00    +0.000 C 
ATOM     16  O   UNL     1      -4.317  11.751  17.882  0.00  0.00    +0.000 OA
ENDBRANCH   9  16
BRANCH  14  17
ATOM     17  O   UNL     1      -3.014   9.704  16.211  0.00  0.00    +0.000 OA
ATOM     18  C   UNL     1      -2.997  10.296  14.922  0.00  0.00    +0.000 C 
ENDBRANCH  14  17
ENDBRANCH   7  12
ENDBRANCH   1   7
BRANCH   4  19
ATOM     19  C   UNL     1       3.318   5.103  19.818  0.00  0.00    +0.000 C 
BRANCH  19  20
ATOM     20  N   UNL     1       2.763   3.984  19.037  0.00  0.00    +0.000 NA
ATOM     21  C   UNL     1       1.797   4.448  18.033  0.00  0.00    +0.000 C 
BRANCH  20  22
ATOM     22  C   UNL     1       3.841   3.238  18.347  0.00  0.00    +0.000 C 
BRANCH  22  23
ATOM     23  C   UNL     1       4.877   4.131  17.698  0.00  0.00    +0.000 A 
ATOM     24  C   UNL     1       4.799   4.442  16.333  0.00  0.00    +0.000 A 
ATOM     25  C   UNL     1       5.726   5.309  15.752  0.00  0.00    +0.000 A 
ATOM     26  C   UNL     1       6.736   5.874  16.527  0.00  0.00    +0.000 A 
ATOM     27  C   UNL     1       6.839   5.568  17.889  0.00  0.00    +0.000 A 
ATOM     28  C   UNL     1       7.884   6.210  18.751  0.00  0.00    +0.000 C 
ATOM     29  C   UNL     1       5.914   4.685  18.462  0.00  0.00    +0.000 A 
ENDBRANCH  22  23
ENDBRANCH  20  22
ENDBRANCH  19  20
ENDBRANCH   4  19
TORSDOF 8
ENDMDL
MODEL 9
REMARK VINA RESULT:      -7.7      3.841      9.449
REMARK  Name = 
REMARK  12 active torsions:
REMARK  status: ('A' for Active; 'I' for Inactive)
REMARK    1  A    between atoms: C_1  and  O_2
REMARK    2  A    between atoms: O_2  and  C_3
REMARK    3  A    between atoms: C_6  and  C_7
REMARK    4  A    between atoms: C_7  and  C_9
REMARK    5  A    between atoms: C_12  and  C_13
REMARK    6  A    between atoms: C_13  and  N_14
REMARK    7  A    between atoms: N_14  and  C_15
REMARK    8  A    between atoms: N_14  and  C_16
REMARK    9  A    between atoms: C_16  and  C_17
REMARK   10  A    between atoms: C_21  and  C_22
REMARK   11  A    between atoms: C_27  and  O_28
REMARK   12  A    between atoms: O_28  and  C_29
REMARK                            x       y       z     vdW  Elec       q    Type
REMARK                         _______ _______ _______ _____ _____    ______ ____
ROOT
ATOM      1  C   UNL     1       0.877   9.910  19.385  0.00  0.00    +0.000 A 
ATOM      2  C   UNL     1       1.014   8.983  20.426  0.00  0.00    +0.000 A 
ATOM      3  C   UNL     1       1.803   7.843  20.247  0.00  0.00    +0.000 A 
ATOM      4  C   UNL     1       2.454   7.614  19.020  0.00  0.00    +0.000 A 
ATOM      5  C   UNL     1       2.355   8.567  18.006  0.00  0.00    +0.000 A 
ATOM      6  C   UNL     1       1.593   9.722  18.194  0.00  0.00    +0.000 A 
ENDROOT
BRANCH   1   7
ATOM      7  C   UNL     1      -0.030  11.071  19.575  0.00  0.00    +0.000 C 
ATOM      8  O   UNL     1       0.349  12.037  20.234  0.00  0.00    +0.000 OA
BRANCH   7  12
ATOM      9  C   UNL     1      -3.920  11.325  17.753  0.00  0.00    +0.000 A 
ATOM     10  C   UNL     1      -3.636  11.996  18.955  0.00  0.00    +0.000 A 
ATOM     11  C   UNL     1      -2.376  11.900  19.552  0.00  0.00    +0.000 A 
ATOM     12  C   UNL     1      -1.396  11.091  18.978  0.00  0.00    +0.000 A 
ATOM     13  C   UNL     1      -1.724  10.320  17.860  0.00  0.00    +0.000 A 
ATOM     14  C   UNL     1      -2.963  10.448  17.219  0.00  0.00    +0.000 A 
BRANCH   9  16
ATOM     15  C   UNL     1      -6.274  11.552  17.948  0.00  0.00    +0.000 C 
ATOM     16  O   UNL     1      -5.119  11.480  17.112  0.00  0.00    +0.000 OA
ENDBRANCH   9  16
BRANCH  14  17
ATOM     17  O   UNL     1      -3.028   9.670  16.096  0.00  0.00    +0.000 OA
ATOM     18  C   UNL     1      -2.958  10.285  14.820  0.00  0.00    +0.000 C 
ENDBRANCH  14  17
ENDBRANCH   7  12
ENDBRANCH   1   7
BRANCH   4  19
ATOM     19  C   UNL     1       3.294   6.363  18.807  0.00  0.00    +0.000 C 
BRANCH  19  20
ATOM     20  N   UNL     1       2.979   5.636  17.565  0.00  0.00    +0.000 NA
ATOM     21  C   UNL     1       4.175   5.014  16.982  0.00  0.00    +0.000 C 
BRANCH  20  22
ATOM     22  C   UNL     1       1.970   4.581  17.815  0.00  0.00    +0.000 C 
BRANCH  22  23
ATOM     23  C   UNL     1       2.150   3.870  19.140  0.00  0.00    +0.000 A 
ATOM     24  C   UNL     1       1.125   3.867  20.096  0.00  0.00    +0.000 A 
ATOM     25  C   UNL     1       1.277   3.165  21.292  0.00  0.00    +0.000 A 
ATOM     26  C   UNL     1       2.451   2.457  21.544  0.00  0.00    +0.000 A 
ATOM     27  C   UNL     1       3.491   2.455  20.608  0.00  0.00    +0.000 A 
ATOM     28  C   UNL     1       4.737   1.654  20.835  0.00  0.00    +0.000 C 
ATOM     29  C   UNL     1       3.337   3.176  19.416  0.00  0.00    +0.000 A 
ENDBRANCH  22  23
ENDBRANCH  20  22
ENDBRANCH  19  20
ENDBRANCH   4  19
TORSDOF 8
ENDMDL
