MODEL 1
REMARK VINA RESULT:      -7.2      0.000      0.000
REMARK  Name = 
REMARK  2 active torsions:
REMARK  status: ('A' for Active; 'I' for Inactive)
REMARK    1  A    between atoms: C_2  and  C_3
REMARK    2  A    between atoms: C_3  and  C_4
REMARK                            x       y       z     vdW  Elec       q    Type
REMARK                         _______ _______ _______ _____ _____    ______ ____
ROOT
ATOM      1  O   UNL     1       2.704   6.973  17.982  0.00  0.00    +0.000 OA
ATOM      2  C   UNL     1       3.521   6.141  18.385  0.00  0.00    +0.000 C 
ATOM      3  N   UNL     1       3.117   4.895  18.871  0.00  0.00    +0.000 N 
ATOM      4  C   UNL     1       4.060   3.882  19.352  0.00  0.00    +0.000 C 
ATOM      5  C   UNL     1       3.415   2.591  19.883  0.00  0.00    +0.000 C 
ATOM      6  C   UNL     1       2.770   2.733  21.273  0.00  0.00    +0.000 C 
ATOM      7  O   UNL     1       1.626   3.595  21.255  0.00  0.00    +0.000 OA
ATOM      8  C   UNL     1       0.690   3.154  20.263  0.00  0.00    +0.000 C 
ATOM      9  C   UNL     1       1.349   3.058  18.882  0.00  0.00    +0.000 C 
ATOM     10  C   UNL     1       1.829   4.420  18.356  0.00  0.00    +0.000 C 
ATOM     11  O   UNL     1       2.442   2.117  18.931  0.00  0.00    +0.000 OA
ENDROOT
BRANCH   2  12
ATOM     12  C   UNL     1       5.017   6.404  18.218  0.00  0.00    +0.000 C 
BRANCH  12  13
ATOM     13  C   UNL     1       5.605   5.716  16.992  0.00  0.00    +0.000 A 
ATOM     14  C   UNL     1       4.907   5.748  15.765  0.00  0.00    +0.000 A 
ATOM     15  C   UNL     1       5.403   5.107  14.631  0.00  0.00    +0.000 A 
ATOM     16  C   UNL     1       6.619   4.448  14.702  0.00  0.00    +0.000 A 
ATOM     17  F   UNL     1       7.095   3.825  13.616  0.00  0.00    +0.000 F 
ATOM     18  C   UNL     1       7.355   4.429  15.877  0.00  0.00    +0.000 A 
ATOM     19  C   UNL     1       6.854   5.065  17.020  0.00  0.00    +0.000 A 
ATOM     20 CL   UNL     1       7.824   5.008  18.446  0.00  0.00    +0.000 Cl
ENDBRANCH  12  13
ENDBRANCH   2  12
TORSDOF 2
ENDMDL
MODEL 2
REMARK VINA RESULT:      -7.1      1.383      1.999
REMARK  Name = 
REMARK  2 active torsions:
REMARK  status: ('A' for Active; 'I' for Inactive)
REMARK    1  A    between atoms: C_2  and  C_3
REMARK    2  A    between atoms: C_3  and  C_4
REMARK                            x       y       z     vdW  Elec       q    Type
REMARK                         _______ _______ _______ _____ _____    ______ ____
ROOT
ATOM      1  O   UNL     1       5.475   5.333  19.736  0.00  0.00    +0.000 OA
ATOM      2  C   UNL     1       4.509   5.348  18.968  0.00  0.00    +0.000 C 
ATOM      3  N   UNL     1       3.317   4.691  19.279  0.00  0.00    +0.000 N 
ATOM      4  C   UNL     1       2.150   4.693  18.393  0.00  0.00    +0.000 C 
ATOM      5  C   UNL     1       0.947   3.879  18.897  0.00  0.00    +0.000 C 
ATOM      6  C   UNL     1       1.116   2.355  18.764  0.00  0.00    +0.000 C 
ATOM      7  O   UNL     1       2.142   1.846  19.625  0.00  0.00    +0.000 OA
ATOM      8  C   UNL     1       1.897   2.250  20.978  0.00  0.00    +0.000 C 
ATOM      9  C   UNL     1       1.771   3.774  21.087  0.00  0.00    +0.000 C 
ATOM     10  C   UNL     1       3.069   4.507  20.712  0.00  0.00    +0.000 C 
ATOM     11  O   UNL     1       0.674   4.229  20.269  0.00  0.00    +0.000 OA
ENDROOT
BRANCH   2  12
ATOM     12  C   UNL     1       4.550   6.224  17.715  0.00  0.00    +0.000 C 
BRANCH  12  13
ATOM     13  C   UNL     1       5.296   5.569  16.559  0.00  0.00    +0.000 A 
ATOM     14  C   UNL     1       4.608   4.705  15.679  0.00  0.00    +0.000 A 
ATOM     15  C   UNL     1       5.265   4.069  14.627  0.00  0.00    +0.000 A 
ATOM     16  C   UNL     1       6.615   4.310  14.425  0.00  0.00    +0.000 A 
ATOM     17  F   UNL     1       7.250   3.694  13.419  0.00  0.00    +0.000 F 
ATOM     18  C   UNL     1       7.315   5.183  15.243  0.00  0.00    +0.000 A 
ATOM     19  C   UNL     1       6.659   5.816  16.305  0.00  0.00    +0.000 A 
ATOM     20 CL   UNL     1       7.589   6.895  17.279  0.00  0.00    +0.000 Cl
ENDBRANCH  12  13
ENDBRANCH   2  12
TORSDOF 2
ENDMDL
MODEL 3
REMARK VINA RESULT:      -7.1      3.404      6.047
REMARK  Name = 
REMARK  2 active torsions:
REMARK  status: ('A' for Active; 'I' for Inactive)
REMARK    1  A    between atoms: C_2  and  C_3
REMARK    2  A    between atoms: C_3  and  C_4
REMARK                            x       y       z     vdW  Elec       q    Type
REMARK                         _______ _______ _______ _____ _____    ______ ____
ROOT
ATOM      1  O   UNL     1       2.924   7.293  18.280  0.00  0.00    +0.000 OA
ATOM      2  C   UNL     1       3.200   6.160  17.877  0.00  0.00    +0.000 C 
ATOM      3  N   UNL     1       4.522   5.749  17.695  0.00  0.00    +0.000 N 
ATOM      4  C   UNL     1       4.884   4.409  17.224  0.00  0.00    +0.000 C 
ATOM      5  C   UNL     1       6.392   4.165  17.049  0.00  0.00    +0.000 C 
ATOM      6  C   UNL     1       6.999   4.829  15.802  0.00  0.00    +0.000 C 
ATOM      7  O   UNL     1       6.986   6.259  15.887  0.00  0.00    +0.000 OA
ATOM      8  C   UNL     1       7.624   6.688  17.097  0.00  0.00    +0.000 C 
ATOM      9  C   UNL     1       6.975   6.041  18.326  0.00  0.00    +0.000 C 
ATOM     10  C   UNL     1       5.508   6.459  18.514  0.00  0.00    +0.000 C 
ATOM     11  O   UNL     1       7.087   4.605  18.233  0.00  0.00    +0.000 OA
ENDROOT
BRANCH   2  12
ATOM     12  C   UNL     1       2.088   5.122  17.715  0.00  0.00    +0.000 C 
BRANCH  12  13
ATOM     13  C   UNL     1       1.931   4.227  18.937  0.00  0.00    +0.000 A 
ATOM     14  C   UNL     1       1.619   4.797  20.190  0.00  0.00    +0.000 A 
ATOM     15  C   UNL     1       1.494   4.010  21.334  0.00  0.00    +0.000 A 
ATOM     16  C   UNL     1       1.653   2.637  21.234  0.00  0.00    +0.000 A 
ATOM     17  F   UNL     1       1.542   1.879  22.333  0.00  0.00    +0.000 F 
ATOM     18  C   UNL     1       1.921   2.036  20.014  0.00  0.00    +0.000 A 
ATOM     19  C   UNL     1       2.055   2.826  18.865  0.00  0.00    +0.000 A 
ATOM     20 CL   UNL     1       2.381   2.011  17.379  0.00  0.00    +0.000 Cl
ENDBRANCH  12  13
ENDBRANCH   2  12
TORSDOF 2
ENDMDL
MODEL 4
REMARK VINA RESULT:      -6.7      2.579      3.786
REMARK  Name = 
REMARK  2 active torsions:
REMARK  status: ('A' for Active; 'I' for Inactive)
REMARK    1  A    between atoms: C_2  and  C_3
REMARK    2  A    between atoms: C_3  and  C_4
REMARK                            x       y       z     vdW  Elec       q    Type
REMARK                         _______ _______ _______ _____ _____    ______ ____
ROOT
ATOM      1  O   UNL     1       7.912   4.390  17.145  0.00  0.00    +0.000 OA
ATOM      2  C   UNL     1       6.910   4.945  16.687  0.00  0.00    +0.000 C 
ATOM      3  N   UNL     1       5.715   5.008  17.407  0.00  0.00    +0.000 N 
ATOM      4  C   UNL     1       4.508   5.664  16.895  0.00  0.00    +0.000 C 
ATOM      5  C   UNL     1       3.283   5.591  17.822  0.00  0.00    +0.000 C 
ATOM      6  C   UNL     1       2.593   4.216  17.847  0.00  0.00    +0.000 C 
ATOM      7  O   UNL     1       3.417   3.206  18.441  0.00  0.00    +0.000 OA
ATOM      8  C   UNL     1       3.849   3.622  19.743  0.00  0.00    +0.000 C 
ATOM      9  C   UNL     1       4.566   4.975  19.683  0.00  0.00    +0.000 C 
ATOM     10  C   UNL     1       5.865   4.925  18.863  0.00  0.00    +0.000 C 
ATOM     11  O   UNL     1       3.670   5.976  19.156  0.00  0.00    +0.000 OA
ENDROOT
BRANCH   2  12
ATOM     12  C   UNL     1       7.006   5.717  15.371  0.00  0.00    +0.000 C 
BRANCH  12  13
ATOM     13  C   UNL     1       6.705   4.852  14.154  0.00  0.00    +0.000 A 
ATOM     14  C   UNL     1       5.586   3.991  14.163  0.00  0.00    +0.000 A 
ATOM     15  C   UNL     1       5.296   3.166  13.078  0.00  0.00    +0.000 A 
ATOM     16  C   UNL     1       6.108   3.211  11.956  0.00  0.00    +0.000 A 
ATOM     17  F   UNL     1       5.837   2.413  10.914  0.00  0.00    +0.000 F 
ATOM     18  C   UNL     1       7.193   4.072  11.892  0.00  0.00    +0.000 A 
ATOM     19  C   UNL     1       7.490   4.896  12.985  0.00  0.00    +0.000 A 
ATOM     20 CL   UNL     1       8.850   5.948  12.836  0.00  0.00    +0.000 Cl
ENDBRANCH  12  13
ENDBRANCH   2  12
TORSDOF 2
ENDMDL
MODEL 5
REMARK VINA RESULT:      -6.7      1.299      1.389
REMARK  Name = 
REMARK  2 active torsions:
REMARK  status: ('A' for Active; 'I' for Inactive)
REMARK    1  A    between atoms: C_2  and  C_3
REMARK    2  A    between atoms: C_3  and  C_4
REMARK                            x       y       z     vdW  Elec       q    Type
REMARK                         _______ _______ _______ _____ _____    ______ ____
ROOT
ATOM      1  O   UNL     1       4.325   6.385  18.619  0.00  0.00    +0.000 OA
ATOM      2  C   UNL     1       4.540   5.171  18.662  0.00  0.00    +0.000 C 
ATOM      3  N   UNL     1       3.505   4.251  18.850  0.00  0.00    +0.000 N 
ATOM      4  C   UNL     1       3.724   2.803  18.900  0.00  0.00    +0.000 C 
ATOM      5  C   UNL     1       2.462   1.962  19.154  0.00  0.00    +0.000 C 
ATOM      6  C   UNL     1       1.964   1.995  20.610  0.00  0.00    +0.000 C 
ATOM      7  O   UNL     1       1.482   3.289  20.989  0.00  0.00    +0.000 OA
ATOM      8  C   UNL     1       0.485   3.737  20.063  0.00  0.00    +0.000 C 
ATOM      9  C   UNL     1       1.019   3.731  18.626  0.00  0.00    +0.000 C 
ATOM     10  C   UNL     1       2.182   4.714  18.420  0.00  0.00    +0.000 C 
ATOM     11  O   UNL     1       1.414   2.391  18.262  0.00  0.00    +0.000 OA
ENDROOT
BRANCH   2  12
ATOM     12  C   UNL     1       5.939   4.636  18.355  0.00  0.00    +0.000 C 
BRANCH  12  13
ATOM     13  C   UNL     1       6.281   4.692  16.872  0.00  0.00    +0.000 A 
ATOM     14  C   UNL     1       5.825   3.674  16.006  0.00  0.00    +0.000 A 
ATOM     15  C   UNL     1       6.142   3.680  14.649  0.00  0.00    +0.000 A 
ATOM     16  C   UNL     1       6.898   4.720  14.133  0.00  0.00    +0.000 A 
ATOM     17  F   UNL     1       7.212   4.724  12.830  0.00  0.00    +0.000 F 
ATOM     18  C   UNL     1       7.331   5.759  14.943  0.00  0.00    +0.000 A 
ATOM     19  C   UNL     1       7.021   5.750  16.308  0.00  0.00    +0.000 A 
ATOM     20 CL   UNL     1       7.585   7.077  17.256  0.00  0.00    +0.000 Cl
ENDBRANCH  12  13
ENDBRANCH   2  12
TORSDOF 2
ENDMDL
MODEL 6
REMARK VINA RESULT:      -6.7      3.971      5.774
REMARK  Name = 
REMARK  2 active torsions:
REMARK  status: ('A' for Active; 'I' for Inactive)
REMARK    1  A    between atoms: C_2  and  C_3
REMARK    2  A    between atoms: C_3  and  C_4
REMARK                            x       y       z     vdW  Elec       q    Type
REMARK                         _______ _______ _______ _____ _____    ______ ____
ROOT
ATOM      1  O   UNL     1       1.874   6.502  20.533  0.00  0.00    +0.000 OA
ATOM      2  C   UNL     1       2.034   7.259  19.571  0.00  0.00    +0.000 C 
ATOM      3  N   UNL     1       1.528   8.560  19.571  0.00  0.00    +0.000 N 
ATOM      4  C   UNL     1       1.705   9.486  18.449  0.00  0.00    +0.000 C 
ATOM      5  C   UNL     1       1.039  10.860  18.626  0.00  0.00    +0.000 C 
ATOM      6  C   UNL     1      -0.489  10.848  18.449  0.00  0.00    +0.000 C 
ATOM      7  O   UNL     1      -1.150  10.114  19.486  0.00  0.00    +0.000 OA
ATOM      8  C   UNL     1      -0.756  10.610  20.771  0.00  0.00    +0.000 C 
ATOM      9  C   UNL     1       0.768  10.575  20.936  0.00  0.00    +0.000 C 
ATOM     10  C   UNL     1       1.337   9.149  20.901  0.00  0.00    +0.000 C 
ATOM     11  O   UNL     1       1.383  11.395  19.920  0.00  0.00    +0.000 OA
ENDROOT
BRANCH   2  12
ATOM     12  C   UNL     1       2.932   6.829  18.411  0.00  0.00    +0.000 C 
BRANCH  12  13
ATOM     13  C   UNL     1       3.084   5.317  18.307  0.00  0.00    +0.000 A 
ATOM     14  C   UNL     1       2.037   4.541  17.766  0.00  0.00    +0.000 A 
ATOM     15  C   UNL     1       2.131   3.153  17.681  0.00  0.00    +0.000 A 
ATOM     16  C   UNL     1       3.288   2.524  18.112  0.00  0.00    +0.000 A 
ATOM     17  F   UNL     1       3.379   1.189  18.040  0.00  0.00    +0.000 F 
ATOM     18  C   UNL     1       4.355   3.255  18.613  0.00  0.00    +0.000 A 
ATOM     19  C   UNL     1       4.258   4.649  18.707  0.00  0.00    +0.000 A 
ATOM     20 CL   UNL     1       5.625   5.496  19.333  0.00  0.00    +0.000 Cl
ENDBRANCH  12  13
ENDBRANCH   2  12
TORSDOF 2
ENDMDL
MODEL 7
REMARK VINA RESULT:      -6.6      1.579      1.833
REMARK  Name = 
REMARK  2 active torsions:
REMARK  status: ('A' for Active; 'I' for Inactive)
REMARK    1  A    between atoms: C_2  and  C_3
REMARK    2  A    between atoms: C_3  and  C_4
REMARK                            x       y       z     vdW  Elec       q    Type
REMARK                         _______ _______ _______ _____ _____    ______ ____
ROOT
ATOM      1  O   UNL     1       4.081   5.435  16.814  0.00  0.00    +0.000 OA
ATOM      2  C   UNL     1       4.224   4.311  17.303  0.00  0.00    +0.000 C 
ATOM      3  N   UNL     1       3.321   3.800  18.238  0.00  0.00    +0.000 N 
ATOM      4  C   UNL     1       3.457   2.468  18.835  0.00  0.00    +0.000 C 
ATOM      5  C   UNL     1       2.383   2.105  19.873  0.00  0.00    +0.000 C 
ATOM      6  C   UNL     1       2.563   2.797  21.235  0.00  0.00    +0.000 C 
ATOM      7  O   UNL     1       2.366   4.213  21.156  0.00  0.00    +0.000 OA
ATOM      8  C   UNL     1       1.094   4.503  20.563  0.00  0.00    +0.000 C 
ATOM      9  C   UNL     1       0.956   3.834  19.191  0.00  0.00    +0.000 C 
ATOM     10  C   UNL     1       1.970   4.365  18.165  0.00  0.00    +0.000 C 
ATOM     11  O   UNL     1       1.079   2.403  19.335  0.00  0.00    +0.000 OA
ENDROOT
BRANCH   2  12
ATOM     12  C   UNL     1       5.321   3.387  16.774  0.00  0.00    +0.000 C 
BRANCH  12  13
ATOM     13  C   UNL     1       6.007   3.935  15.529  0.00  0.00    +0.000 A 
ATOM     14  C   UNL     1       5.635   3.458  14.254  0.00  0.00    +0.000 A 
ATOM     15  C   UNL     1       6.260   3.918  13.096  0.00  0.00    +0.000 A 
ATOM     16  C   UNL     1       7.248   4.883  13.196  0.00  0.00    +0.000 A 
ATOM     17  F   UNL     1       7.856   5.322  12.086  0.00  0.00    +0.000 F 
ATOM     18  C   UNL     1       7.614   5.406  14.427  0.00  0.00    +0.000 A 
ATOM     19  C   UNL     1       6.993   4.939  15.592  0.00  0.00    +0.000 A 
ATOM     20 CL   UNL     1       7.492   5.638  17.089  0.00  0.00    +0.000 Cl
ENDBRANCH  12  13
ENDBRANCH   2  12
TORSDOF 2
ENDMDL
MODEL 8
REMARK VINA RESULT:      -6.6      4.091      5.593
REMARK  Name = 
REMARK  2 active torsions:
REMARK  status: ('A' for Active; 'I' for Inactive)
REMARK    1  A    between atoms: C_2  and  C_3
REMARK    2  A    between atoms: C_3  and  C_4
REMARK                            x       y       z     vdW  Elec       q    Type
REMARK                         _______ _______ _______ _____ _____    ______ ____
ROOT
ATOM      1  O   UNL     1       2.740   8.230  17.090  0.00  0.00    +0.000 OA
ATOM      2  C   UNL     1       2.407   8.087  18.270  0.00  0.00    +0.000 C 
ATOM      3  N   UNL     1       1.536   8.981  18.898  0.00  0.00    +0.000 N 
ATOM      4  C   UNL     1       1.115   8.837  20.294  0.00  0.00    +0.000 C 
ATOM      5  C   UNL     1       0.185   9.946  20.812  0.00  0.00    +0.000 C 
ATOM      6  C   UNL     1       0.894  11.280  21.103  0.00  0.00    +0.000 C 
ATOM      7  O   UNL     1       1.387  11.904  19.912  0.00  0.00    +0.000 OA
ATOM      8  C   UNL     1       0.331  12.047  18.955  0.00  0.00    +0.000 C 
ATOM      9  C   UNL     1      -0.332  10.698  18.654  0.00  0.00    +0.000 C 
ATOM     10  C   UNL     1       0.628   9.696  17.996  0.00  0.00    +0.000 C 
ATOM     11  O   UNL     1      -0.887  10.150  19.869  0.00  0.00    +0.000 OA
ENDROOT
BRANCH   2  12
ATOM     12  C   UNL     1       2.826   6.828  19.029  0.00  0.00    +0.000 C 
BRANCH  12  13
ATOM     13  C   UNL     1       3.648   5.869  18.177  0.00  0.00    +0.000 A 
ATOM     14  C   UNL     1       5.021   6.121  17.960  0.00  0.00    +0.000 A 
ATOM     15  C   UNL     1       5.796   5.280  17.165  0.00  0.00    +0.000 A 
ATOM     16  C   UNL     1       5.215   4.158  16.596  0.00  0.00    +0.000 A 
ATOM     17  F   UNL     1       5.956   3.352  15.824  0.00  0.00    +0.000 F 
ATOM     18  C   UNL     1       3.880   3.855  16.818  0.00  0.00    +0.000 A 
ATOM     19  C   UNL     1       3.098   4.703  17.610  0.00  0.00    +0.000 A 
ATOM     20 CL   UNL     1       1.447   4.262  17.850  0.00  0.00    +0.000 Cl
ENDBRANCH  12  13
ENDBRANCH   2  12
TORSDOF 2
ENDMDL
MODEL 9
REMARK VINA RESULT:      -6.6      3.484      6.213
REMARK  Name = 
REMARK  2 active torsions:
REMARK  status: ('A' for Active; 'I' for Inactive)
REMARK    1  A    between atoms: C_2  and  C_3
REMARK    2  A    between atoms: C_3  and  C_4
REMARK                            x       y       z     vdW  Elec       q    Type
REMARK                         _______ _______ _______ _____ _____    ______ ____
ROOT
ATOM      1  O   UNL     1       3.120   3.130  16.190  0.00  0.00    +0.000 OA
ATOM      2  C   UNL     1       3.280   4.117  16.913  0.00  0.00    +0.000 C 
ATOM      3  N   UNL     1       4.505   4.785  16.980  0.00  0.00    +0.000 N 
ATOM      4  C   UNL     1       4.727   5.962  17.824  0.00  0.00    +0.000 C 
ATOM      5  C   UNL     1       6.156   6.529  17.789  0.00  0.00    +0.000 C 
ATOM      6  C   UNL     1       7.183   5.699  18.578  0.00  0.00    +0.000 C 
ATOM      7  O   UNL     1       7.410   4.413  17.988  0.00  0.00    +0.000 OA
ATOM      8  C   UNL     1       7.771   4.557  16.609  0.00  0.00    +0.000 C 
ATOM      9  C   UNL     1       6.712   5.355  15.839  0.00  0.00    +0.000 C 
ATOM     10  C   UNL     1       5.351   4.644  15.791  0.00  0.00    +0.000 C 
ATOM     11  O   UNL     1       6.580   6.670  16.418  0.00  0.00    +0.000 OA
ENDROOT
BRANCH   2  12
ATOM     12  C   UNL     1       2.081   4.725  17.642  0.00  0.00    +0.000 C 
BRANCH  12  13
ATOM     13  C   UNL     1       1.828   4.085  19.001  0.00  0.00    +0.000 A 
ATOM     14  C   UNL     1       1.594   2.695  19.091  0.00  0.00    +0.000 A 
ATOM     15  C   UNL     1       1.332   2.081  20.315  0.00  0.00    +0.000 A 
ATOM     16  C   UNL     1       1.329   2.846  21.470  0.00  0.00    +0.000 A 
ATOM     17  F   UNL     1       1.071   2.260  22.647  0.00  0.00    +0.000 F 
ATOM     18  C   UNL     1       1.595   4.206  21.428  0.00  0.00    +0.000 A 
ATOM     19  C   UNL     1       1.849   4.826  20.199  0.00  0.00    +0.000 A 
ATOM     20 CL   UNL     1       2.178   6.520  20.220  0.00  0.00    +0.000 Cl
ENDBRANCH  12  13
ENDBRANCH   2  12
TORSDOF 2
ENDMDL
