MODEL 1
REMARK VINA RESULT:      -7.0      0.000      0.000
REMARK  Name = 
REMARK  2 active torsions:
REMARK  status: ('A' for Active; 'I' for Inactive)
REMARK    1  A    between atoms: C_1  and  N_2
REMARK    2  A    between atoms: C_3  and  C_5
REMARK                            x       y       z     vdW  Elec       q    Type
REMARK                         _______ _______ _______ _____ _____    ______ ____
ROOT
ATOM      1  C   UNL     1       3.949   4.887  17.870  0.00  0.00    +0.000 C 
ATOM      2  C   UNL     1       3.613   6.393  17.885  0.00  0.00    +0.000 C 
ATOM      3  C   UNL     1       3.187   6.854  19.272  0.00  0.00    +0.000 C 
ATOM      4  C   UNL     1       1.889   6.164  19.668  0.00  0.00    +0.000 C 
ATOM      5  C   UNL     1       1.932   4.673  19.452  0.00  0.00    +0.000 A 
ATOM      6  C   UNL     1       0.928   3.884  20.036  0.00  0.00    +0.000 A 
ATOM      7  C   UNL     1       0.885   2.508  19.816  0.00  0.00    +0.000 A 
ATOM      8  C   UNL     1       1.845   1.904  19.009  0.00  0.00    +0.000 A 
ATOM      9  C   UNL     1       2.842   2.678  18.417  0.00  0.00    +0.000 A 
ATOM     10  C   UNL     1       2.895   4.069  18.621  0.00  0.00    +0.000 A 
ENDROOT
BRANCH   1  13
ATOM     11  C   UNL     1       7.827   4.661  17.948  0.00  0.00    +0.000 C 
ATOM     12  N   UNL     1       6.464   4.624  17.413  0.00  0.00    +0.000 N 
ATOM     13  C   UNL     1       5.408   4.648  18.349  0.00  0.00    +0.000 C 
ATOM     14  O   UNL     1       5.651   4.558  19.561  0.00  0.00    +0.000 OA
ATOM     15  C   UNL     1       6.213   4.457  16.049  0.00  0.00    +0.000 A 
ATOM     16  N   UNL     1       5.095   4.046  15.499  0.00  0.00    +0.000 NA
ATOM     17  C   UNL     1       5.183   4.062  14.126  0.00  0.00    +0.000 A 
ATOM     18  C   UNL     1       6.382   4.499  13.622  0.00  0.00    +0.000 A 
ATOM     19  S   UNL     1       7.452   4.841  14.916  0.00  0.00    +0.000 S 
ENDBRANCH   1  13
TORSDOF 1
ENDMDL
MODEL 2
REMARK VINA RESULT:      -6.9      2.659      5.715
REMARK  Name = 
REMARK  2 active torsions:
REMARK  status: ('A' for Active; 'I' for Inactive)
REMARK    1  A    between atoms: C_1  and  N_2
REMARK    2  A    between atoms: C_3  and  C_5
REMARK                            x       y       z     vdW  Elec       q    Type
REMARK                         _______ _______ _______ _____ _____    ______ ____
ROOT
ATOM      1  C   UNL     1       4.842   4.768  17.998  0.00  0.00    +0.000 C 
ATOM      2  C   UNL     1       5.849   4.671  19.162  0.00  0.00    +0.000 C 
ATOM      3  C   UNL     1       7.035   5.602  18.950  0.00  0.00    +0.000 C 
ATOM      4  C   UNL     1       7.820   5.166  17.721  0.00  0.00    +0.000 C 
ATOM      5  C   UNL     1       6.940   4.933  16.519  0.00  0.00    +0.000 A 
ATOM      6  C   UNL     1       7.547   4.812  15.259  0.00  0.00    +0.000 A 
ATOM      7  C   UNL     1       6.785   4.534  14.125  0.00  0.00    +0.000 A 
ATOM      8  C   UNL     1       5.408   4.373  14.237  0.00  0.00    +0.000 A 
ATOM      9  C   UNL     1       4.794   4.484  15.484  0.00  0.00    +0.000 A 
ATOM     10  C   UNL     1       5.548   4.755  16.640  0.00  0.00    +0.000 A 
ENDROOT
BRANCH   1  13
ATOM     11  C   UNL     1       2.024   7.050  19.394  0.00  0.00    +0.000 C 
ATOM     12  N   UNL     1       2.736   5.825  19.026  0.00  0.00    +0.000 N 
ATOM     13  C   UNL     1       3.879   5.969  18.209  0.00  0.00    +0.000 C 
ATOM     14  O   UNL     1       4.158   7.075  17.722  0.00  0.00    +0.000 OA
ATOM     15  C   UNL     1       2.251   4.560  19.366  0.00  0.00    +0.000 A 
ATOM     16  N   UNL     1       2.569   3.418  18.804  0.00  0.00    +0.000 NA
ATOM     17  C   UNL     1       1.947   2.366  19.437  0.00  0.00    +0.000 A 
ATOM     18  C   UNL     1       1.152   2.710  20.500  0.00  0.00    +0.000 A 
ATOM     19  S   UNL     1       1.135   4.415  20.670  0.00  0.00    +0.000 S 
ENDBRANCH   1  13
TORSDOF 1
ENDMDL
MODEL 3
REMARK VINA RESULT:      -6.2      1.013      1.026
REMARK  Name = 
REMARK  2 active torsions:
REMARK  status: ('A' for Active; 'I' for Inactive)
REMARK    1  A    between atoms: C_1  and  N_2
REMARK    2  A    between atoms: C_3  and  C_5
REMARK                            x       y       z     vdW  Elec       q    Type
REMARK                         _______ _______ _______ _____ _____    ______ ____
ROOT
ATOM      1  C   UNL     1       4.213   4.442  18.367  0.00  0.00    +0.000 C 
ATOM      2  C   UNL     1       3.609   5.637  17.601  0.00  0.00    +0.000 C 
ATOM      3  C   UNL     1       3.070   6.694  18.556  0.00  0.00    +0.000 C 
ATOM      4  C   UNL     1       1.910   6.122  19.357  0.00  0.00    +0.000 C 
ATOM      5  C   UNL     1       2.228   4.781  19.968  0.00  0.00    +0.000 A 
ATOM      6  C   UNL     1       1.370   4.276  20.958  0.00  0.00    +0.000 A 
ATOM      7  C   UNL     1       1.584   3.014  21.510  0.00  0.00    +0.000 A 
ATOM      8  C   UNL     1       2.657   2.241  21.079  0.00  0.00    +0.000 A 
ATOM      9  C   UNL     1       3.513   2.728  20.091  0.00  0.00    +0.000 A 
ATOM     10  C   UNL     1       3.306   3.995  19.516  0.00  0.00    +0.000 A 
ENDROOT
BRANCH   1  13
ATOM     11  C   UNL     1       7.954   5.484  18.248  0.00  0.00    +0.000 C 
ATOM     12  N   UNL     1       6.669   4.946  17.800  0.00  0.00    +0.000 N 
ATOM     13  C   UNL     1       5.678   4.746  18.785  0.00  0.00    +0.000 C 
ATOM     14  O   UNL     1       5.958   4.891  19.984  0.00  0.00    +0.000 OA
ATOM     15  C   UNL     1       6.462   4.537  16.480  0.00  0.00    +0.000 A 
ATOM     16  N   UNL     1       5.529   3.724  16.045  0.00  0.00    +0.000 NA
ATOM     17  C   UNL     1       5.584   3.595  14.676  0.00  0.00    +0.000 A 
ATOM     18  C   UNL     1       6.566   4.327  14.058  0.00  0.00    +0.000 A 
ATOM     19  S   UNL     1       7.489   5.153  15.242  0.00  0.00    +0.000 S 
ENDBRANCH   1  13
TORSDOF 1
ENDMDL
MODEL 4
REMARK VINA RESULT:      -6.2      3.512      5.810
REMARK  Name = 
REMARK  2 active torsions:
REMARK  status: ('A' for Active; 'I' for Inactive)
REMARK    1  A    between atoms: C_1  and  N_2
REMARK    2  A    between atoms: C_3  and  C_5
REMARK                            x       y       z     vdW  Elec       q    Type
REMARK                         _______ _______ _______ _____ _____    ______ ____
ROOT
ATOM      1  C   UNL     1       2.509   5.897  18.099  0.00  0.00    +0.000 C 
ATOM      2  C   UNL     1       1.463   4.844  17.680  0.00  0.00    +0.000 C 
ATOM      3  C   UNL     1       1.991   3.429  17.873  0.00  0.00    +0.000 C 
ATOM      4  C   UNL     1       3.175   3.188  16.947  0.00  0.00    +0.000 C 
ATOM      5  C   UNL     1       4.201   4.291  17.013  0.00  0.00    +0.000 A 
ATOM      6  C   UNL     1       5.462   4.066  16.441  0.00  0.00    +0.000 A 
ATOM      7  C   UNL     1       6.426   5.073  16.420  0.00  0.00    +0.000 A 
ATOM      8  C   UNL     1       6.139   6.318  16.971  0.00  0.00    +0.000 A 
ATOM      9  C   UNL     1       4.887   6.557  17.536  0.00  0.00    +0.000 A 
ATOM     10  C   UNL     1       3.900   5.555  17.557  0.00  0.00    +0.000 A 
ENDROOT
BRANCH   1  13
ATOM     11  C   UNL     1       1.653   7.382  21.585  0.00  0.00    +0.000 C 
ATOM     12  N   UNL     1       1.912   7.332  20.145  0.00  0.00    +0.000 N 
ATOM     13  C   UNL     1       2.459   6.136  19.633  0.00  0.00    +0.000 C 
ATOM     14  O   UNL     1       2.829   5.242  20.408  0.00  0.00    +0.000 OA
ATOM     15  C   UNL     1       1.736   8.451  19.327  0.00  0.00    +0.000 A 
ATOM     16  N   UNL     1       2.264   8.650  18.142  0.00  0.00    +0.000 NA
ATOM     17  C   UNL     1       1.823   9.834  17.597  0.00  0.00    +0.000 A 
ATOM     18  C   UNL     1       0.940  10.542  18.372  0.00  0.00    +0.000 A 
ATOM     19  S   UNL     1       0.707   9.725  19.860  0.00  0.00    +0.000 S 
ENDBRANCH   1  13
TORSDOF 1
ENDMDL
MODEL 5
REMARK VINA RESULT:      -5.7      7.583      9.825
REMARK  Name = 
REMARK  2 active torsions:
REMARK  status: ('A' for Active; 'I' for Inactive)
REMARK    1  A    between atoms: C_1  and  N_2
REMARK    2  A    between atoms: C_3  and  C_5
REMARK                            x       y       z     vdW  Elec       q    Type
REMARK                         _______ _______ _______ _____ _____    ______ ____
ROOT
ATOM      1  C   UNL     1      -0.214  10.771  20.783  0.00  0.00    +0.000 C 
ATOM      2  C   UNL     1      -0.600  10.066  22.100  0.00  0.00    +0.000 C 
ATOM      3  C   UNL     1       0.602   9.387  22.741  0.00  0.00    +0.000 C 
ATOM      4  C   UNL     1       1.105   8.270  21.838  0.00  0.00    +0.000 C 
ATOM      5  C   UNL     1       1.281   8.711  20.407  0.00  0.00    +0.000 A 
ATOM      6  C   UNL     1       2.003   7.881  19.535  0.00  0.00    +0.000 A 
ATOM      7  C   UNL     1       2.141   8.211  18.188  0.00  0.00    +0.000 A 
ATOM      8  C   UNL     1       1.558   9.375  17.696  0.00  0.00    +0.000 A 
ATOM      9  C   UNL     1       0.832  10.204  18.549  0.00  0.00    +0.000 A 
ATOM     10  C   UNL     1       0.675   9.881  19.910  0.00  0.00    +0.000 A 
ENDROOT
BRANCH   1  13
ATOM     11  C   UNL     1       0.106  14.512  21.780  0.00  0.00    +0.000 C 
ATOM     12  N   UNL     1      -0.490  13.282  21.257  0.00  0.00    +0.000 N 
ATOM     13  C   UNL     1       0.373  12.180  21.070  0.00  0.00    +0.000 C 
ATOM     14  O   UNL     1       1.597  12.321  21.212  0.00  0.00    +0.000 OA
ATOM     15  C   UNL     1      -1.825  13.226  20.849  0.00  0.00    +0.000 A 
ATOM     16  N   UNL     1      -2.367  12.340  20.047  0.00  0.00    +0.000 NA
ATOM     17  C   UNL     1      -3.720  12.553  19.916  0.00  0.00    +0.000 A 
ATOM     18  C   UNL     1      -4.219  13.609  20.636  0.00  0.00    +0.000 A 
ATOM     19  S   UNL     1      -2.934  14.398  21.452  0.00  0.00    +0.000 S 
ENDBRANCH   1  13
TORSDOF 1
ENDMDL
MODEL 6
REMARK VINA RESULT:      -5.7      2.423      3.622
REMARK  Name = 
REMARK  2 active torsions:
REMARK  status: ('A' for Active; 'I' for Inactive)
REMARK    1  A    between atoms: C_1  and  N_2
REMARK    2  A    between atoms: C_3  and  C_5
REMARK                            x       y       z     vdW  Elec       q    Type
REMARK                         _______ _______ _______ _____ _____    ______ ____
ROOT
ATOM      1  C   UNL     1       3.892   4.246  18.511  0.00  0.00    +0.000 C 
ATOM      2  C   UNL     1       4.086   3.247  17.352  0.00  0.00    +0.000 C 
ATOM      3  C   UNL     1       2.757   2.664  16.892  0.00  0.00    +0.000 C 
ATOM      4  C   UNL     1       2.140   1.839  18.013  0.00  0.00    +0.000 C 
ATOM      5  C   UNL     1       2.120   2.571  19.331  0.00  0.00    +0.000 A 
ATOM      6  C   UNL     1       1.330   2.055  20.370  0.00  0.00    +0.000 A 
ATOM      7  C   UNL     1       1.324   2.658  21.628  0.00  0.00    +0.000 A 
ATOM      8  C   UNL     1       2.108   3.783  21.861  0.00  0.00    +0.000 A 
ATOM      9  C   UNL     1       2.904   4.301  20.840  0.00  0.00    +0.000 A 
ATOM     10  C   UNL     1       2.929   3.700  19.568  0.00  0.00    +0.000 A 
ENDROOT
BRANCH   1  13
ATOM     11  C   UNL     1       4.133   7.787  16.929  0.00  0.00    +0.000 C 
ATOM     12  N   UNL     1       4.527   6.595  17.682  0.00  0.00    +0.000 N 
ATOM     13  C   UNL     1       3.516   5.651  17.964  0.00  0.00    +0.000 C 
ATOM     14  O   UNL     1       2.333   5.912  17.701  0.00  0.00    +0.000 OA
ATOM     15  C   UNL     1       5.815   6.445  18.202  0.00  0.00    +0.000 A 
ATOM     16  N   UNL     1       6.183   5.643  19.173  0.00  0.00    +0.000 NA
ATOM     17  C   UNL     1       7.542   5.709  19.381  0.00  0.00    +0.000 A 
ATOM     18  C   UNL     1       8.220   6.567  18.552  0.00  0.00    +0.000 A 
ATOM     19  S   UNL     1       7.104   7.361  17.521  0.00  0.00    +0.000 S 
ENDBRANCH   1  13
TORSDOF 1
ENDMDL
MODEL 7
REMARK VINA RESULT:      -5.6      2.349      4.188
REMARK  Name = 
REMARK  2 active torsions:
REMARK  status: ('A' for Active; 'I' for Inactive)
REMARK    1  A    between atoms: C_1  and  N_2
REMARK    2  A    between atoms: C_3  and  C_5
REMARK                            x       y       z     vdW  Elec       q    Type
REMARK                         _______ _______ _______ _____ _____    ______ ____
ROOT
ATOM      1  C   UNL     1       3.093   6.216  18.957  0.00  0.00    +0.000 C 
ATOM      2  C   UNL     1       3.049   5.614  20.377  0.00  0.00    +0.000 C 
ATOM      3  C   UNL     1       1.651   5.699  20.974  0.00  0.00    +0.000 C 
ATOM      4  C   UNL     1       1.258   7.157  21.161  0.00  0.00    +0.000 C 
ATOM      5  C   UNL     1       1.500   7.989  19.927  0.00  0.00    +0.000 A 
ATOM      6  C   UNL     1       0.923   9.267  19.858  0.00  0.00    +0.000 A 
ATOM      7  C   UNL     1       1.167  10.101  18.767  0.00  0.00    +0.000 A 
ATOM      8  C   UNL     1       1.991   9.667  17.734  0.00  0.00    +0.000 A 
ATOM      9  C   UNL     1       2.577   8.404  17.794  0.00  0.00    +0.000 A 
ATOM     10  C   UNL     1       2.349   7.553  18.891  0.00  0.00    +0.000 A 
ENDROOT
BRANCH   1  13
ATOM     11  C   UNL     1       3.110   3.365  16.318  0.00  0.00    +0.000 C 
ATOM     12  N   UNL     1       3.578   4.517  17.091  0.00  0.00    +0.000 N 
ATOM     13  C   UNL     1       2.628   5.170  17.906  0.00  0.00    +0.000 C 
ATOM     14  O   UNL     1       1.432   4.854  17.839  0.00  0.00    +0.000 OA
ATOM     15  C   UNL     1       4.872   5.023  16.948  0.00  0.00    +0.000 A 
ATOM     16  N   UNL     1       5.290   6.222  17.280  0.00  0.00    +0.000 NA
ATOM     17  C   UNL     1       6.641   6.354  17.058  0.00  0.00    +0.000 A 
ATOM     18  C   UNL     1       7.264   5.239  16.558  0.00  0.00    +0.000 A 
ATOM     19  S   UNL     1       6.102   4.006  16.301  0.00  0.00    +0.000 S 
ENDBRANCH   1  13
TORSDOF 1
ENDMDL
MODEL 8
REMARK VINA RESULT:      -5.6      2.977      5.694
REMARK  Name = 
REMARK  2 active torsions:
REMARK  status: ('A' for Active; 'I' for Inactive)
REMARK    1  A    between atoms: C_1  and  N_2
REMARK    2  A    between atoms: C_3  and  C_5
REMARK                            x       y       z     vdW  Elec       q    Type
REMARK                         _______ _______ _______ _____ _____    ______ ____
ROOT
ATOM      1  C   UNL     1       4.430   5.297  18.239  0.00  0.00    +0.000 C 
ATOM      2  C   UNL     1       3.576   6.267  17.396  0.00  0.00    +0.000 C 
ATOM      3  C   UNL     1       4.326   6.733  16.155  0.00  0.00    +0.000 C 
ATOM      4  C   UNL     1       5.544   7.548  16.565  0.00  0.00    +0.000 C 
ATOM      5  C   UNL     1       6.375   6.864  17.620  0.00  0.00    +0.000 A 
ATOM      6  C   UNL     1       7.664   7.356  17.880  0.00  0.00    +0.000 A 
ATOM      7  C   UNL     1       8.450   6.799  18.888  0.00  0.00    +0.000 A 
ATOM      8  C   UNL     1       7.956   5.745  19.649  0.00  0.00    +0.000 A 
ATOM      9  C   UNL     1       6.675   5.251  19.407  0.00  0.00    +0.000 A 
ATOM     10  C   UNL     1       5.865   5.807  18.400  0.00  0.00    +0.000 A 
ENDROOT
BRANCH   1  13
ATOM     11  C   UNL     1       3.147   1.706  17.497  0.00  0.00    +0.000 C 
ATOM     12  N   UNL     1       3.381   2.951  18.230  0.00  0.00    +0.000 N 
ATOM     13  C   UNL     1       4.322   3.850  17.683  0.00  0.00    +0.000 C 
ATOM     14  O   UNL     1       5.009   3.512  16.708  0.00  0.00    +0.000 OA
ATOM     15  C   UNL     1       2.791   3.196  19.473  0.00  0.00    +0.000 A 
ATOM     16  N   UNL     1       3.188   4.061  20.376  0.00  0.00    +0.000 NA
ATOM     17  C   UNL     1       2.332   4.080  21.453  0.00  0.00    +0.000 A 
ATOM     18  C   UNL     1       1.263   3.223  21.367  0.00  0.00    +0.000 A 
ATOM     19  S   UNL     1       1.374   2.322  19.913  0.00  0.00    +0.000 S 
ENDBRANCH   1  13
TORSDOF 1
ENDMDL
MODEL 9
REMARK VINA RESULT:      -5.5      9.081     11.372
REMARK  Name = 
REMARK  2 active torsions:
REMARK  status: ('A' for Active; 'I' for Inactive)
REMARK    1  A    between atoms: C_1  and  N_2
REMARK    2  A    between atoms: C_3  and  C_5
REMARK                            x       y       z     vdW  Elec       q    Type
REMARK                         _______ _______ _______ _____ _____    ______ ____
ROOT
ATOM      1  C   UNL     1      -1.470  11.872  19.912  0.00  0.00    +0.000 C 
ATOM      2  C   UNL     1      -0.222  11.076  20.347  0.00  0.00    +0.000 C 
ATOM      3  C   UNL     1       0.694  10.790  19.165  0.00  0.00    +0.000 C 
ATOM      4  C   UNL     1      -0.015   9.882  18.171  0.00  0.00    +0.000 C 
ATOM      5  C   UNL     1      -1.403  10.363  17.829  0.00  0.00    +0.000 A 
ATOM      6  C   UNL     1      -2.054   9.795  16.722  0.00  0.00    +0.000 A 
ATOM      7  C   UNL     1      -3.360  10.160  16.400  0.00  0.00    +0.000 A 
ATOM      8  C   UNL     1      -4.032  11.095  17.181  0.00  0.00    +0.000 A 
ATOM      9  C   UNL     1      -3.400  11.660  18.288  0.00  0.00    +0.000 A 
ATOM     10  C   UNL     1      -2.085  11.298  18.632  0.00  0.00    +0.000 A 
ENDROOT
BRANCH   1  13
ATOM     11  C   UNL     1      -0.862  15.571  20.930  0.00  0.00    +0.000 C 
ATOM     12  N   UNL     1      -1.420  14.219  20.958  0.00  0.00    +0.000 N 
ATOM     13  C   UNL     1      -1.154  13.391  19.846  0.00  0.00    +0.000 C 
ATOM     14  O   UNL     1      -0.594  13.861  18.844  0.00  0.00    +0.000 OA
ATOM     15  C   UNL     1      -2.275  13.796  21.979  0.00  0.00    +0.000 A 
ATOM     16  N   UNL     1      -3.112  12.787  21.938  0.00  0.00    +0.000 NA
ATOM     17  C   UNL     1      -3.749  12.622  23.147  0.00  0.00    +0.000 A 
ATOM     18  C   UNL     1      -3.385  13.512  24.126  0.00  0.00    +0.000 A 
ATOM     19  S   UNL     1      -2.255  14.630  23.486  0.00  0.00    +0.000 S 
ENDBRANCH   1  13
TORSDOF 1
ENDMDL
