MODEL 1
REMARK VINA RESULT:      -8.1      0.000      0.000
REMARK  Name = 
REMARK  5 active torsions:
REMARK  status: ('A' for Active; 'I' for Inactive)
REMARK    1  A    between atoms: C_2  and  C_3
REMARK    2  A    between atoms: C_3  and  S_4
REMARK    3  A    between atoms: S_4  and  C_5
REMARK    4  A    between atoms: C_7  and  O_8
REMARK    5  A    between atoms: C_10  and  O_11
REMARK                            x       y       z     vdW  Elec       q    Type
REMARK                         _______ _______ _______ _____ _____    ______ ____
ROOT
ATOM      1  O   UNL     1       3.078   2.500  16.904  0.00  0.00    +0.000 OA
ATOM      2  C   UNL     1       3.289   3.688  17.215  0.00  0.00    +0.000 C 
ATOM      3  N   UNL     1       2.829   4.161  18.459  0.00  0.00    +0.000 N 
ATOM      4  C   UNL     1       2.379   3.045  19.328  0.00  0.00    +0.000 C 
ATOM      5  C   UNL     1       1.305   3.399  20.329  0.00  0.00    +0.000 C 
ATOM      6  C   UNL     1       1.884   4.475  21.199  0.00  0.00    +0.000 C 
ATOM      7  C   UNL     1       2.055   5.655  20.287  0.00  0.00    +0.000 A 
ATOM      8  C   UNL     1       1.524   6.877  20.741  0.00  0.00    +0.000 A 
ATOM      9  C   UNL     1       1.644   8.013  19.969  0.00  0.00    +0.000 A 
ATOM     10  C   UNL     1       2.365   7.935  18.782  0.00  0.00    +0.000 A 
ATOM     11  C   UNL     1       2.857   6.703  18.303  0.00  0.00    +0.000 A 
ATOM     12  C   UNL     1       2.647   5.508  18.996  0.00  0.00    +0.000 A 
ENDROOT
BRANCH   2  13
ATOM     13  C   UNL     1       4.195   4.459  16.271  0.00  0.00    +0.000 C 
BRANCH  13  14
ATOM     14  S   UNL     1       5.912   3.822  16.275  0.00  0.00    +0.000 S 
BRANCH  14  15
ATOM     15  C   UNL     1       6.756   4.986  17.303  0.00  0.00    +0.000 A 
ATOM     16  N   UNL     1       7.111   4.632  18.548  0.00  0.00    +0.000 NA
ATOM     17  C   UNL     1       7.720   5.601  19.242  0.00  0.00    +0.000 A 
ATOM     18  C   UNL     1       8.014   6.853  18.807  0.00  0.00    +0.000 A 
ATOM     19  C   UNL     1       7.614   7.086  17.520  0.00  0.00    +0.000 A 
ATOM     20  N   UNL     1       6.986   6.188  16.755  0.00  0.00    +0.000 NA
BRANCH  17  21
ATOM     21  O   UNL     1       8.060   5.245  20.517  0.00  0.00    +0.000 OA
ATOM     22  H   UNL     1       8.281   6.111  20.908  0.00  0.00    +0.000 HD
ENDBRANCH  17  21
BRANCH  19  23
ATOM     23  O   UNL     1       7.830   8.293  16.919  0.00  0.00    +0.000 OA
ATOM     24  H   UNL     1       8.785   8.427  16.811  0.00  0.00    +0.000 HD
ENDBRANCH  19  23
ENDBRANCH  14  15
ENDBRANCH  13  14
ENDBRANCH   2  13
TORSDOF 5
ENDMDL
MODEL 2
REMARK VINA RESULT:      -7.8      0.468      1.798
REMARK  Name = 
REMARK  5 active torsions:
REMARK  status: ('A' for Active; 'I' for Inactive)
REMARK    1  A    between atoms: C_2  and  C_3
REMARK    2  A    between atoms: C_3  and  S_4
REMARK    3  A    between atoms: S_4  and  C_5
REMARK    4  A    between atoms: C_7  and  O_8
REMARK    5  A    between atoms: C_10  and  O_11
REMARK                            x       y       z     vdW  Elec       q    Type
REMARK                         _______ _______ _______ _____ _____    ______ ____
ROOT
ATOM      1  O   UNL     1       2.881   2.384  17.376  0.00  0.00    +0.000 OA
ATOM      2  C   UNL     1       3.182   3.591  17.441  0.00  0.00    +0.000 C 
ATOM      3  N   UNL     1       2.786   4.335  18.570  0.00  0.00    +0.000 N 
ATOM      4  C   UNL     1       2.278   3.450  19.648  0.00  0.00    +0.000 C 
ATOM      5  C   UNL     1       1.254   4.075  20.567  0.00  0.00    +0.000 C 
ATOM      6  C   UNL     1       1.928   5.257  21.199  0.00  0.00    +0.000 C 
ATOM      7  C   UNL     1       2.161   6.215  20.067  0.00  0.00    +0.000 A 
ATOM      8  C   UNL     1       1.728   7.539  20.272  0.00  0.00    +0.000 A 
ATOM      9  C   UNL     1       1.910   8.487  19.288  0.00  0.00    +0.000 A 
ATOM     10  C   UNL     1       2.596   8.122  18.135  0.00  0.00    +0.000 A 
ATOM     11  C   UNL     1       2.990   6.786  17.908  0.00  0.00    +0.000 A 
ATOM     12  C   UNL     1       2.711   5.771  18.827  0.00  0.00    +0.000 A 
ENDROOT
BRANCH   2  13
ATOM     13  C   UNL     1       4.119   4.090  16.355  0.00  0.00    +0.000 C 
BRANCH  13  14
ATOM     14  S   UNL     1       5.831   3.480  16.574  0.00  0.00    +0.000 S 
BRANCH  14  15
ATOM     15  C   UNL     1       6.619   4.824  17.411  0.00  0.00    +0.000 A 
ATOM     16  N   UNL     1       6.734   6.010  16.793  0.00  0.00    +0.000 NA
ATOM     17  C   UNL     1       7.370   6.943  17.511  0.00  0.00    +0.000 A 
ATOM     18  C   UNL     1       7.870   6.805  18.766  0.00  0.00    +0.000 A 
ATOM     19  C   UNL     1       7.678   5.557  19.290  0.00  0.00    +0.000 A 
ATOM     20  N   UNL     1       7.070   4.557  18.645  0.00  0.00    +0.000 NA
BRANCH  17  21
ATOM     21  O   UNL     1       7.506   8.143  16.872  0.00  0.00    +0.000 OA
ATOM     22  H   UNL     1       8.344   8.471  17.248  0.00  0.00    +0.000 HD
ENDBRANCH  17  21
BRANCH  19  23
ATOM     23  O   UNL     1       8.116   5.240  20.544  0.00  0.00    +0.000 OA
ATOM     24  H   UNL     1       9.066   5.044  20.508  0.00  0.00    +0.000 HD
ENDBRANCH  19  23
ENDBRANCH  14  15
ENDBRANCH  13  14
ENDBRANCH   2  13
TORSDOF 5
ENDMDL
MODEL 3
REMARK VINA RESULT:      -7.8      2.903      4.561
REMARK  Name = 
REMARK  5 active torsions:
REMARK  status: ('A' for Active; 'I' for Inactive)
REMARK    1  A    between atoms: C_2  and  C_3
REMARK    2  A    between atoms: C_3  and  S_4
REMARK    3  A    between atoms: S_4  and  C_5
REMARK    4  A    between atoms: C_7  and  O_8
REMARK    5  A    between atoms: C_10  and  O_11
REMARK                            x       y       z     vdW  Elec       q    Type
REMARK                         _______ _______ _______ _____ _____    ______ ____
ROOT
ATOM      1  O   UNL     1       4.553   6.837  16.979  0.00  0.00    +0.000 OA
ATOM      2  C   UNL     1       4.248   5.700  17.388  0.00  0.00    +0.000 C 
ATOM      3  N   UNL     1       3.324   5.579  18.445  0.00  0.00    +0.000 N 
ATOM      4  C   UNL     1       2.654   6.872  18.727  0.00  0.00    +0.000 C 
ATOM      5  C   UNL     1       2.196   7.063  20.154  0.00  0.00    +0.000 C 
ATOM      6  C   UNL     1       1.225   5.955  20.432  0.00  0.00    +0.000 C 
ATOM      7  C   UNL     1       2.052   4.703  20.390  0.00  0.00    +0.000 A 
ATOM      8  C   UNL     1       1.919   3.829  21.486  0.00  0.00    +0.000 A 
ATOM      9  C   UNL     1       2.636   2.653  21.524  0.00  0.00    +0.000 A 
ATOM     10  C   UNL     1       3.421   2.319  20.427  0.00  0.00    +0.000 A 
ATOM     11  C   UNL     1       3.592   3.213  19.349  0.00  0.00    +0.000 A 
ATOM     12  C   UNL     1       2.981   4.469  19.332  0.00  0.00    +0.000 A 
ENDROOT
BRANCH   2  13
ATOM     13  C   UNL     1       4.782   4.543  16.561  0.00  0.00    +0.000 C 
BRANCH  13  14
ATOM     14  S   UNL     1       6.610   4.546  16.454  0.00  0.00    +0.000 S 
BRANCH  14  15
ATOM     15  C   UNL     1       6.896   4.544  14.709  0.00  0.00    +0.000 A 
ATOM     16  N   UNL     1       7.709   5.468  14.172  0.00  0.00    +0.000 NA
ATOM     17  C   UNL     1       7.830   5.386  12.842  0.00  0.00    +0.000 A 
ATOM     18  C   UNL     1       7.242   4.475  12.025  0.00  0.00    +0.000 A 
ATOM     19  C   UNL     1       6.450   3.582  12.692  0.00  0.00    +0.000 A 
ATOM     20  N   UNL     1       6.255   3.594  14.014  0.00  0.00    +0.000 NA
BRANCH  17  21
ATOM     21  O   UNL     1       8.640   6.341  12.295  0.00  0.00    +0.000 OA
ATOM     22  H   UNL     1       8.027   6.789  11.683  0.00  0.00    +0.000 HD
ENDBRANCH  17  21
BRANCH  19  23
ATOM     23  O   UNL     1       5.781   2.594  12.028  0.00  0.00    +0.000 OA
ATOM     24  H   UNL     1       5.024   2.982  11.561  0.00  0.00    +0.000 HD
ENDBRANCH  19  23
ENDBRANCH  14  15
ENDBRANCH  13  14
ENDBRANCH   2  13
TORSDOF 5
ENDMDL
MODEL 4
REMARK VINA RESULT:      -7.7      1.261      2.638
REMARK  Name = 
REMARK  5 active torsions:
REMARK  status: ('A' for Active; 'I' for Inactive)
REMARK    1  A    between atoms: C_2  and  C_3
REMARK    2  A    between atoms: C_3  and  S_4
REMARK    3  A    between atoms: S_4  and  C_5
REMARK    4  A    between atoms: C_7  and  O_8
REMARK    5  A    between atoms: C_10  and  O_11
REMARK                            x       y       z     vdW  Elec       q    Type
REMARK                         _______ _______ _______ _____ _____    ______ ____
ROOT
ATOM      1  O   UNL     1       4.417   6.437  16.641  0.00  0.00    +0.000 OA
ATOM      2  C   UNL     1       4.148   5.336  17.160  0.00  0.00    +0.000 C 
ATOM      3  N   UNL     1       3.287   5.299  18.275  0.00  0.00    +0.000 N 
ATOM      4  C   UNL     1       2.620   6.608  18.487  0.00  0.00    +0.000 C 
ATOM      5  C   UNL     1       2.243   6.915  19.917  0.00  0.00    +0.000 C 
ATOM      6  C   UNL     1       1.301   5.827  20.342  0.00  0.00    +0.000 C 
ATOM      7  C   UNL     1       2.138   4.581  20.357  0.00  0.00    +0.000 A 
ATOM      8  C   UNL     1       2.077   3.802  21.528  0.00  0.00    +0.000 A 
ATOM      9  C   UNL     1       2.808   2.637  21.622  0.00  0.00    +0.000 A 
ATOM     10  C   UNL     1       3.533   2.217  20.512  0.00  0.00    +0.000 A 
ATOM     11  C   UNL     1       3.632   3.018  19.356  0.00  0.00    +0.000 A 
ATOM     12  C   UNL     1       3.008   4.265  19.270  0.00  0.00    +0.000 A 
ENDROOT
BRANCH   2  13
ATOM     13  C   UNL     1       4.646   4.118  16.403  0.00  0.00    +0.000 C 
BRANCH  13  14
ATOM     14  S   UNL     1       6.379   4.305  15.841  0.00  0.00    +0.000 S 
BRANCH  14  15
ATOM     15  C   UNL     1       7.083   5.339  17.089  0.00  0.00    +0.000 A 
ATOM     16  N   UNL     1       7.314   4.835  18.312  0.00  0.00    +0.000 NA
ATOM     17  C   UNL     1       7.824   5.716  19.181  0.00  0.00    +0.000 A 
ATOM     18  C   UNL     1       8.133   7.015  18.938  0.00  0.00    +0.000 A 
ATOM     19  C   UNL     1       7.864   7.404  17.655  0.00  0.00    +0.000 A 
ATOM     20  N   UNL     1       7.341   6.603  16.722  0.00  0.00    +0.000 NA
BRANCH  17  21
ATOM     21  O   UNL     1       8.038   5.207  20.431  0.00  0.00    +0.000 OA
ATOM     22  H   UNL     1       8.979   5.419  20.570  0.00  0.00    +0.000 HD
ENDBRANCH  17  21
BRANCH  19  23
ATOM     23  O   UNL     1       8.114   8.679  17.233  0.00  0.00    +0.000 OA
ATOM     24  H   UNL     1       9.036   8.904  17.433  0.00  0.00    +0.000 HD
ENDBRANCH  19  23
ENDBRANCH  14  15
ENDBRANCH  13  14
ENDBRANCH   2  13
TORSDOF 5
ENDMDL
MODEL 5
REMARK VINA RESULT:      -7.5      2.882      4.407
REMARK  Name = 
REMARK  5 active torsions:
REMARK  status: ('A' for Active; 'I' for Inactive)
REMARK    1  A    between atoms: C_2  and  C_3
REMARK    2  A    between atoms: C_3  and  S_4
REMARK    3  A    between atoms: S_4  and  C_5
REMARK    4  A    between atoms: C_7  and  O_8
REMARK    5  A    between atoms: C_10  and  O_11
REMARK                            x       y       z     vdW  Elec       q    Type
REMARK                         _______ _______ _______ _____ _____    ______ ____
ROOT
ATOM      1  O   UNL     1       4.881   6.780  17.252  0.00  0.00    +0.000 OA
ATOM      2  C   UNL     1       4.514   5.649  17.625  0.00  0.00    +0.000 C 
ATOM      3  N   UNL     1       3.491   5.545  18.588  0.00  0.00    +0.000 N 
ATOM      4  C   UNL     1       2.823   6.853  18.808  0.00  0.00    +0.000 C 
ATOM      5  C   UNL     1       2.233   7.051  20.185  0.00  0.00    +0.000 C 
ATOM      6  C   UNL     1       1.217   5.963  20.364  0.00  0.00    +0.000 C 
ATOM      7  C   UNL     1       2.019   4.693  20.398  0.00  0.00    +0.000 A 
ATOM      8  C   UNL     1       1.762   3.822  21.473  0.00  0.00    +0.000 A 
ATOM      9  C   UNL     1       2.448   2.631  21.577  0.00  0.00    +0.000 A 
ATOM     10  C   UNL     1       3.329   2.282  20.559  0.00  0.00    +0.000 A 
ATOM     11  C   UNL     1       3.621   3.173  19.505  0.00  0.00    +0.000 A 
ATOM     12  C   UNL     1       3.041   4.442  19.434  0.00  0.00    +0.000 A 
ENDROOT
BRANCH   2  13
ATOM     13  C   UNL     1       5.102   4.483  16.851  0.00  0.00    +0.000 C 
BRANCH  13  14
ATOM     14  S   UNL     1       6.893   4.688  16.529  0.00  0.00    +0.000 S 
BRANCH  14  15
ATOM     15  C   UNL     1       6.985   4.586  14.766  0.00  0.00    +0.000 A 
ATOM     16  N   UNL     1       6.283   3.641  14.122  0.00  0.00    +0.000 NA
ATOM     17  C   UNL     1       6.451   3.642  12.794  0.00  0.00    +0.000 A 
ATOM     18  C   UNL     1       7.223   4.493  12.071  0.00  0.00    +0.000 A 
ATOM     19  C   UNL     1       7.876   5.417  12.840  0.00  0.00    +0.000 A 
ATOM     20  N   UNL     1       7.784   5.484  14.172  0.00  0.00    +0.000 NA
BRANCH  17  21
ATOM     21  O   UNL     1       5.753   2.665  12.142  0.00  0.00    +0.000 OA
ATOM     22  H   UNL     1       6.444   2.277  11.574  0.00  0.00    +0.000 HD
ENDBRANCH  17  21
BRANCH  19  23
ATOM     23  O   UNL     1       8.696   6.353  12.279  0.00  0.00    +0.000 OA
ATOM     24  H   UNL     1       9.409   6.564  12.902  0.00  0.00    +0.000 HD
ENDBRANCH  19  23
ENDBRANCH  14  15
ENDBRANCH  13  14
ENDBRANCH   2  13
TORSDOF 5
ENDMDL
MODEL 6
REMARK VINA RESULT:      -7.5      1.274      3.155
REMARK  Name = 
REMARK  5 active torsions:
REMARK  status: ('A' for Active; 'I' for Inactive)
REMARK    1  A    between atoms: C_2  and  C_3
REMARK    2  A    between atoms: C_3  and  S_4
REMARK    3  A    between atoms: S_4  and  C_5
REMARK    4  A    between atoms: C_7  and  O_8
REMARK    5  A    between atoms: C_10  and  O_11
REMARK                            x       y       z     vdW  Elec       q    Type
REMARK                         _______ _______ _______ _____ _____    ______ ____
ROOT
ATOM      1  O   UNL     1       4.463   6.338  16.604  0.00  0.00    +0.000 OA
ATOM      2  C   UNL     1       4.198   5.245  17.140  0.00  0.00    +0.000 C 
ATOM      3  N   UNL     1       3.323   5.219  18.244  0.00  0.00    +0.000 N 
ATOM      4  C   UNL     1       2.640   6.525  18.421  0.00  0.00    +0.000 C 
ATOM      5  C   UNL     1       2.239   6.855  19.840  0.00  0.00    +0.000 C 
ATOM      6  C   UNL     1       1.303   5.766  20.273  0.00  0.00    +0.000 C 
ATOM      7  C   UNL     1       2.152   4.529  20.323  0.00  0.00    +0.000 A 
ATOM      8  C   UNL     1       2.084   3.772  21.508  0.00  0.00    +0.000 A 
ATOM      9  C   UNL     1       2.825   2.617  21.635  0.00  0.00    +0.000 A 
ATOM     10  C   UNL     1       3.570   2.184  20.544  0.00  0.00    +0.000 A 
ATOM     11  C   UNL     1       3.677   2.964  19.373  0.00  0.00    +0.000 A 
ATOM     12  C   UNL     1       3.041   4.202  19.254  0.00  0.00    +0.000 A 
ENDROOT
BRANCH   2  13
ATOM     13  C   UNL     1       4.721   4.018  16.414  0.00  0.00    +0.000 C 
BRANCH  13  14
ATOM     14  S   UNL     1       6.460   4.210  15.875  0.00  0.00    +0.000 S 
BRANCH  14  15
ATOM     15  C   UNL     1       7.104   5.365  17.049  0.00  0.00    +0.000 A 
ATOM     16  N   UNL     1       7.319   6.636  16.675  0.00  0.00    +0.000 NA
ATOM     17  C   UNL     1       7.833   7.411  17.637  0.00  0.00    +0.000 A 
ATOM     18  C   UNL     1       8.126   7.044  18.911  0.00  0.00    +0.000 A 
ATOM     19  C   UNL     1       7.851   5.730  19.171  0.00  0.00    +0.000 A 
ATOM     20  N   UNL     1       7.353   4.875  18.272  0.00  0.00    +0.000 NA
BRANCH  17  21
ATOM     21  O   UNL     1       8.072   8.700  17.248  0.00  0.00    +0.000 OA
ATOM     22  H   UNL     1       8.043   9.170  18.102  0.00  0.00    +0.000 HD
ENDBRANCH  17  21
BRANCH  19  23
ATOM     23  O   UNL     1       8.082   5.188  20.403  0.00  0.00    +0.000 OA
ATOM     24  H   UNL     1       7.332   4.624  20.647  0.00  0.00    +0.000 HD
ENDBRANCH  19  23
ENDBRANCH  14  15
ENDBRANCH  13  14
ENDBRANCH   2  13
TORSDOF 5
ENDMDL
MODEL 7
REMARK VINA RESULT:      -7.5      2.638      3.515
REMARK  Name = 
REMARK  5 active torsions:
REMARK  status: ('A' for Active; 'I' for Inactive)
REMARK    1  A    between atoms: C_2  and  C_3
REMARK    2  A    between atoms: C_3  and  S_4
REMARK    3  A    between atoms: S_4  and  C_5
REMARK    4  A    between atoms: C_7  and  O_8
REMARK    5  A    between atoms: C_10  and  O_11
REMARK                            x       y       z     vdW  Elec       q    Type
REMARK                         _______ _______ _______ _____ _____    ______ ____
ROOT
ATOM      1  O   UNL     1       3.780   2.894  16.939  0.00  0.00    +0.000 OA
ATOM      2  C   UNL     1       3.803   4.055  17.392  0.00  0.00    +0.000 C 
ATOM      3  N   UNL     1       3.189   4.317  18.632  0.00  0.00    +0.000 N 
ATOM      4  C   UNL     1       2.830   3.059  19.334  0.00  0.00    +0.000 C 
ATOM      5  C   UNL     1       1.644   3.156  20.264  0.00  0.00    +0.000 C 
ATOM      6  C   UNL     1       2.003   4.187  21.292  0.00  0.00    +0.000 C 
ATOM      7  C   UNL     1       2.081   5.478  20.528  0.00  0.00    +0.000 A 
ATOM      8  C   UNL     1       1.356   6.561  21.058  0.00  0.00    +0.000 A 
ATOM      9  C   UNL     1       1.379   7.785  20.424  0.00  0.00    +0.000 A 
ATOM     10  C   UNL     1       2.192   7.938  19.307  0.00  0.00    +0.000 A 
ATOM     11  C   UNL     1       2.883   6.843  18.748  0.00  0.00    +0.000 A 
ATOM     12  C   UNL     1       2.784   5.558  19.289  0.00  0.00    +0.000 A 
ENDROOT
BRANCH   2  13
ATOM     13  C   UNL     1       4.666   5.038  16.622  0.00  0.00    +0.000 C 
BRANCH  13  14
ATOM     14  S   UNL     1       6.418   4.513  16.534  0.00  0.00    +0.000 S 
BRANCH  14  15
ATOM     15  C   UNL     1       6.717   4.447  14.793  0.00  0.00    +0.000 A 
ATOM     16  N   UNL     1       6.094   3.518  14.050  0.00  0.00    +0.000 NA
ATOM     17  C   UNL     1       6.417   3.546  12.753  0.00  0.00    +0.000 A 
ATOM     18  C   UNL     1       7.271   4.408  12.144  0.00  0.00    +0.000 A 
ATOM     19  C   UNL     1       7.830   5.313  13.003  0.00  0.00    +0.000 A 
ATOM     20  N   UNL     1       7.582   5.353  14.316  0.00  0.00    +0.000 NA
BRANCH  17  21
ATOM     21  O   UNL     1       5.799   2.585  12.002  0.00  0.00    +0.000 OA
ATOM     22  H   UNL     1       6.422   2.488  11.258  0.00  0.00    +0.000 HD
ENDBRANCH  17  21
BRANCH  19  23
ATOM     23  O   UNL     1       8.713   6.258  12.562  0.00  0.00    +0.000 OA
ATOM     24  H   UNL     1       8.635   7.048  13.119  0.00  0.00    +0.000 HD
ENDBRANCH  19  23
ENDBRANCH  14  15
ENDBRANCH  13  14
ENDBRANCH   2  13
TORSDOF 5
ENDMDL
MODEL 8
REMARK VINA RESULT:      -7.4      2.591      3.644
REMARK  Name = 
REMARK  5 active torsions:
REMARK  status: ('A' for Active; 'I' for Inactive)
REMARK    1  A    between atoms: C_2  and  C_3
REMARK    2  A    between atoms: C_3  and  S_4
REMARK    3  A    between atoms: S_4  and  C_5
REMARK    4  A    between atoms: C_7  and  O_8
REMARK    5  A    between atoms: C_10  and  O_11
REMARK                            x       y       z     vdW  Elec       q    Type
REMARK                         _______ _______ _______ _____ _____    ______ ____
ROOT
ATOM      1  O   UNL     1       3.644   3.133  16.711  0.00  0.00    +0.000 OA
ATOM      2  C   UNL     1       3.705   4.250  17.261  0.00  0.00    +0.000 C 
ATOM      3  N   UNL     1       3.063   4.436  18.501  0.00  0.00    +0.000 N 
ATOM      4  C   UNL     1       2.625   3.142  19.082  0.00  0.00    +0.000 C 
ATOM      5  C   UNL     1       1.414   3.217  19.983  0.00  0.00    +0.000 C 
ATOM      6  C   UNL     1       1.786   4.139  21.105  0.00  0.00    +0.000 C 
ATOM      7  C   UNL     1       1.948   5.484  20.458  0.00  0.00    +0.000 A 
ATOM      8  C   UNL     1       1.255   6.553  21.058  0.00  0.00    +0.000 A 
ATOM      9  C   UNL     1       1.354   7.823  20.532  0.00  0.00    +0.000 A 
ATOM     10  C   UNL     1       2.210   8.031  19.456  0.00  0.00    +0.000 A 
ATOM     11  C   UNL     1       2.868   6.955  18.825  0.00  0.00    +0.000 A 
ATOM     12  C   UNL     1       2.694   5.635  19.250  0.00  0.00    +0.000 A 
ENDROOT
BRANCH   2  13
ATOM     13  C   UNL     1       4.636   5.252  16.603  0.00  0.00    +0.000 C 
BRANCH  13  14
ATOM     14  S   UNL     1       6.379   4.692  16.602  0.00  0.00    +0.000 S 
BRANCH  14  15
ATOM     15  C   UNL     1       6.762   4.616  14.877  0.00  0.00    +0.000 A 
ATOM     16  N   UNL     1       7.632   5.494  14.354  0.00  0.00    +0.000 NA
ATOM     17  C   UNL     1       7.824   5.357  13.037  0.00  0.00    +0.000 A 
ATOM     18  C   UNL     1       7.252   4.435  12.222  0.00  0.00    +0.000 A 
ATOM     19  C   UNL     1       6.396   3.592  12.875  0.00  0.00    +0.000 A 
ATOM     20  N   UNL     1       6.129   3.660  14.182  0.00  0.00    +0.000 NA
BRANCH  17  21
ATOM     21  O   UNL     1       8.693   6.266  12.503  0.00  0.00    +0.000 OA
ATOM     22  H   UNL     1       8.654   6.985  13.160  0.00  0.00    +0.000 HD
ENDBRANCH  17  21
BRANCH  19  23
ATOM     23  O   UNL     1       5.733   2.600  12.210  0.00  0.00    +0.000 OA
ATOM     24  H   UNL     1       4.930   2.969  11.809  0.00  0.00    +0.000 HD
ENDBRANCH  19  23
ENDBRANCH  14  15
ENDBRANCH  13  14
ENDBRANCH   2  13
TORSDOF 5
ENDMDL
MODEL 9
REMARK VINA RESULT:      -7.4      2.699      4.235
REMARK  Name = 
REMARK  5 active torsions:
REMARK  status: ('A' for Active; 'I' for Inactive)
REMARK    1  A    between atoms: C_2  and  C_3
REMARK    2  A    between atoms: C_3  and  S_4
REMARK    3  A    between atoms: S_4  and  C_5
REMARK    4  A    between atoms: C_7  and  O_8
REMARK    5  A    between atoms: C_10  and  O_11
REMARK                            x       y       z     vdW  Elec       q    Type
REMARK                         _______ _______ _______ _____ _____    ______ ____
ROOT
ATOM      1  O   UNL     1       3.133   7.897  17.693  0.00  0.00    +0.000 OA
ATOM      2  C   UNL     1       2.497   7.769  18.757  0.00  0.00    +0.000 C 
ATOM      3  N   UNL     1       1.514   8.723  19.084  0.00  0.00    +0.000 N 
ATOM      4  C   UNL     1       1.218   9.611  17.932  0.00  0.00    +0.000 C 
ATOM      5  C   UNL     1       0.746  11.000  18.293  0.00  0.00    +0.000 C 
ATOM      6  C   UNL     1      -0.513  10.819  19.089  0.00  0.00    +0.000 C 
ATOM      7  C   UNL     1      -0.069  10.152  20.358  0.00  0.00    +0.000 A 
ATOM      8  C   UNL     1      -0.509  10.740  21.559  0.00  0.00    +0.000 A 
ATOM      9  C   UNL     1      -0.154  10.187  22.771  0.00  0.00    +0.000 A 
ATOM     10  C   UNL     1       0.571   9.001  22.772  0.00  0.00    +0.000 A 
ATOM     11  C   UNL     1       1.051   8.435  21.572  0.00  0.00    +0.000 A 
ATOM     12  C   UNL     1       0.820   9.035  20.332  0.00  0.00    +0.000 A 
ENDROOT
BRANCH   2  13
ATOM     13  C   UNL     1       2.734   6.470  19.507  0.00  0.00    +0.000 C 
BRANCH  13  14
ATOM     14  S   UNL     1       3.342   5.132  18.416  0.00  0.00    +0.000 S 
BRANCH  14  15
ATOM     15  C   UNL     1       5.088   5.406  18.399  0.00  0.00    +0.000 A 
ATOM     16  N   UNL     1       5.785   5.296  19.542  0.00  0.00    +0.000 NA
ATOM     17  C   UNL     1       7.092   5.551  19.414  0.00  0.00    +0.000 A 
ATOM     18  C   UNL     1       7.751   5.880  18.273  0.00  0.00    +0.000 A 
ATOM     19  C   UNL     1       6.934   5.947  17.178  0.00  0.00    +0.000 A 
ATOM     20  N   UNL     1       5.617   5.725  17.209  0.00  0.00    +0.000 NA
BRANCH  17  21
ATOM     21  O   UNL     1       7.796   5.461  20.582  0.00  0.00    +0.000 OA
ATOM     22  H   UNL     1       7.673   6.354  20.954  0.00  0.00    +0.000 HD
ENDBRANCH  17  21
BRANCH  19  23
ATOM     23  O   UNL     1       7.428   6.263  15.944  0.00  0.00    +0.000 OA
ATOM     24  H   UNL     1       8.165   6.885  16.047  0.00  0.00    +0.000 HD
ENDBRANCH  19  23
ENDBRANCH  14  15
ENDBRANCH  13  14
ENDBRANCH   2  13
TORSDOF 5
ENDMDL
