MODEL 1
REMARK VINA RESULT:      -8.9      0.000      0.000
REMARK  Name = 
REMARK  4 active torsions:
REMARK  status: ('A' for Active; 'I' for Inactive)
REMARK    1  A    between atoms: C_2  and  C_3
REMARK    2  A    between atoms: C_10  and  N_11
REMARK    3  A    between atoms: C_13  and  C_14
REMARK    4  A    between atoms: N_18  and  C_19
REMARK                            x       y       z     vdW  Elec       q    Type
REMARK                         _______ _______ _______ _____ _____    ______ ____
ROOT
ATOM      1  N   UNL     1       5.287   4.488  18.682  0.00  0.00    +0.000 N 
ATOM      2  C   UNL     1       6.123   5.455  19.143  0.00  0.00    +0.000 A 
ATOM      3  C   UNL     1       6.659   6.071  18.017  0.00  0.00    +0.000 A 
ATOM      4  C   UNL     1       6.080   5.380  16.910  0.00  0.00    +0.000 A 
ATOM      5  N   UNL     1       6.408   5.613  15.609  0.00  0.00    +0.000 N 
ATOM      6  N   UNL     1       5.241   4.438  17.351  0.00  0.00    +0.000 NA
ATOM      7  H   UNL     1       6.963   6.445  15.407  0.00  0.00    +0.000 HD
ENDROOT
BRANCH   1  15
ATOM      8  C   UNL     1       3.366   4.230  20.242  0.00  0.00    +0.000 C 
ATOM      9  C   UNL     1       2.288   4.860  19.335  0.00  0.00    +0.000 C 
ATOM     10  S   UNL     1       1.565   3.687  18.181  0.00  0.00    +0.000 S 
ATOM     11  O   UNL     1       0.766   2.752  18.938  0.00  0.00    +0.000 OA
ATOM     12  O   UNL     1       0.958   4.440  17.099  0.00  0.00    +0.000 OA
ATOM     13  C   UNL     1       2.937   2.766  17.512  0.00  0.00    +0.000 C 
ATOM     14  C   UNL     1       3.972   2.375  18.561  0.00  0.00    +0.000 C 
ATOM     15  C   UNL     1       4.487   3.527  19.453  0.00  0.00    +0.000 C 
BRANCH   8  17
ATOM     16  N   UNL     1       1.959   2.475  21.876  0.00  0.00    +0.000 NA
ATOM     17  C   UNL     1       2.597   3.271  21.135  0.00  0.00    +0.000 C 
ENDBRANCH   8  17
ENDBRANCH   1  15
BRANCH   5  18
ATOM     18  C   UNL     1       6.289   4.750  14.490  0.00  0.00    +0.000 A 
ATOM     19  C   UNL     1       7.294   4.613  13.520  0.00  0.00    +0.000 A 
ATOM     20  C   UNL     1       7.098   3.886  12.341  0.00  0.00    +0.000 A 
ATOM     21  C   UNL     1       5.881   3.266  12.128  0.00  0.00    +0.000 A 
ATOM     22  F   UNL     1       5.676   2.581  10.992  0.00  0.00    +0.000 F 
ATOM     23  C   UNL     1       4.868   3.352  13.073  0.00  0.00    +0.000 A 
ATOM     24  C   UNL     1       5.073   4.090  14.248  0.00  0.00    +0.000 A 
ENDBRANCH   5  18
BRANCH   3  25
ATOM     25  C   UNL     1       7.611   7.162  17.999  0.00  0.00    +0.000 C 
ATOM     26  N   UNL     1       8.486   7.193  19.053  0.00  0.00    +0.000 N 
ATOM     27  O   UNL     1       7.673   7.989  17.097  0.00  0.00    +0.000 OA
ATOM     28  H   UNL     1       8.631   6.385  19.636  0.00  0.00    +0.000 HD
ATOM     29  H   UNL     1       9.216   7.893  19.022  0.00  0.00    +0.000 HD
ENDBRANCH   3  25
TORSDOF 4
ENDMDL
MODEL 2
REMARK VINA RESULT:      -8.1      1.740      2.523
REMARK  Name = 
REMARK  4 active torsions:
REMARK  status: ('A' for Active; 'I' for Inactive)
REMARK    1  A    between atoms: C_2  and  C_3
REMARK    2  A    between atoms: C_10  and  N_11
REMARK    3  A    between atoms: C_13  and  C_14
REMARK    4  A    between atoms: N_18  and  C_19
REMARK                            x       y       z     vdW  Elec       q    Type
REMARK                         _______ _______ _______ _____ _____    ______ ____
ROOT
ATOM      1  N   UNL     1       4.225   5.120  18.167  0.00  0.00    +0.000 N 
ATOM      2  C   UNL     1       5.170   5.464  19.082  0.00  0.00    +0.000 A 
ATOM      3  C   UNL     1       6.317   5.768  18.354  0.00  0.00    +0.000 A 
ATOM      4  C   UNL     1       5.952   5.560  16.990  0.00  0.00    +0.000 A 
ATOM      5  N   UNL     1       6.819   5.662  15.944  0.00  0.00    +0.000 N 
ATOM      6  N   UNL     1       4.672   5.185  16.914  0.00  0.00    +0.000 NA
ATOM      7  H   UNL     1       7.730   6.081  16.129  0.00  0.00    +0.000 HD
ENDROOT
BRANCH   1  15
ATOM      8  C   UNL     1       2.660   3.186  18.110  0.00  0.00    +0.000 C 
ATOM      9  C   UNL     1       3.430   2.280  19.094  0.00  0.00    +0.000 C 
ATOM     10  S   UNL     1       3.031   2.609  20.815  0.00  0.00    +0.000 S 
ATOM     11  O   UNL     1       1.676   2.170  21.050  0.00  0.00    +0.000 OA
ATOM     12  O   UNL     1       4.109   2.084  21.633  0.00  0.00    +0.000 OA
ATOM     13  C   UNL     1       3.031   4.385  20.975  0.00  0.00    +0.000 C 
ATOM     14  C   UNL     1       2.353   5.097  19.811  0.00  0.00    +0.000 C 
ATOM     15  C   UNL     1       2.841   4.688  18.403  0.00  0.00    +0.000 C 
BRANCH   8  17
ATOM     16  N   UNL     1       0.012   2.373  18.344  0.00  0.00    +0.000 NA
ATOM     17  C   UNL     1       1.213   2.741  18.238  0.00  0.00    +0.000 C 
ENDBRANCH   8  17
ENDBRANCH   1  15
BRANCH   5  18
ATOM     18  C   UNL     1       6.742   5.065  14.660  0.00  0.00    +0.000 A 
ATOM     19  C   UNL     1       5.859   4.018  14.354  0.00  0.00    +0.000 A 
ATOM     20  C   UNL     1       5.910   3.333  13.136  0.00  0.00    +0.000 A 
ATOM     21  C   UNL     1       6.847   3.707  12.191  0.00  0.00    +0.000 A 
ATOM     22  F   UNL     1       6.915   3.045  11.026  0.00  0.00    +0.000 F 
ATOM     23  C   UNL     1       7.722   4.755  12.440  0.00  0.00    +0.000 A 
ATOM     24  C   UNL     1       7.668   5.431  13.668  0.00  0.00    +0.000 A 
ENDBRANCH   5  18
BRANCH   3  25
ATOM     25  C   UNL     1       7.596   6.183  18.890  0.00  0.00    +0.000 C 
ATOM     26  N   UNL     1       8.112   5.374  19.869  0.00  0.00    +0.000 N 
ATOM     27  O   UNL     1       8.211   7.163  18.487  0.00  0.00    +0.000 OA
ATOM     28  H   UNL     1       7.767   4.438  20.009  0.00  0.00    +0.000 HD
ATOM     29  H   UNL     1       9.042   5.592  20.201  0.00  0.00    +0.000 HD
ENDBRANCH   3  25
TORSDOF 4
ENDMDL
MODEL 3
REMARK VINA RESULT:      -7.9      1.624      2.252
REMARK  Name = 
REMARK  4 active torsions:
REMARK  status: ('A' for Active; 'I' for Inactive)
REMARK    1  A    between atoms: C_2  and  C_3
REMARK    2  A    between atoms: C_10  and  N_11
REMARK    3  A    between atoms: C_13  and  C_14
REMARK    4  A    between atoms: N_18  and  C_19
REMARK                            x       y       z     vdW  Elec       q    Type
REMARK                         _______ _______ _______ _____ _____    ______ ____
ROOT
ATOM      1  N   UNL     1       4.249   5.506  17.698  0.00  0.00    +0.000 N 
ATOM      2  C   UNL     1       5.175   6.208  18.405  0.00  0.00    +0.000 A 
ATOM      3  C   UNL     1       6.230   6.445  17.529  0.00  0.00    +0.000 A 
ATOM      4  C   UNL     1       5.837   5.825  16.305  0.00  0.00    +0.000 A 
ATOM      5  N   UNL     1       6.631   5.746  15.201  0.00  0.00    +0.000 N 
ATOM      6  N   UNL     1       4.624   5.281  16.440  0.00  0.00    +0.000 NA
ATOM      7  H   UNL     1       7.478   6.314  15.190  0.00  0.00    +0.000 HD
ENDROOT
BRANCH   1  15
ATOM      8  C   UNL     1       2.748   3.522  17.704  0.00  0.00    +0.000 C 
ATOM      9  C   UNL     1       3.728   2.535  18.372  0.00  0.00    +0.000 C 
ATOM     10  S   UNL     1       3.698   2.618  20.167  0.00  0.00    +0.000 S 
ATOM     11  O   UNL     1       2.434   2.087  20.617  0.00  0.00    +0.000 OA
ATOM     12  O   UNL     1       4.936   2.045  20.662  0.00  0.00    +0.000 OA
ATOM     13  C   UNL     1       3.697   4.356  20.565  0.00  0.00    +0.000 C 
ATOM     14  C   UNL     1       2.771   5.179  19.676  0.00  0.00    +0.000 C 
ATOM     15  C   UNL     1       2.957   4.980  18.155  0.00  0.00    +0.000 C 
BRANCH   8  17
ATOM     16  N   UNL     1       0.227   2.558  18.371  0.00  0.00    +0.000 NA
ATOM     17  C   UNL     1       1.370   2.995  18.069  0.00  0.00    +0.000 C 
ENDBRANCH   8  17
ENDBRANCH   1  15
BRANCH   5  18
ATOM     18  C   UNL     1       6.585   4.814  14.132  0.00  0.00    +0.000 A 
ATOM     19  C   UNL     1       7.460   4.864  13.037  0.00  0.00    +0.000 A 
ATOM     20  C   UNL     1       7.298   4.042  11.917  0.00  0.00    +0.000 A 
ATOM     21  C   UNL     1       6.254   3.136  11.891  0.00  0.00    +0.000 A 
ATOM     22  F   UNL     1       6.079   2.355  10.814  0.00  0.00    +0.000 F 
ATOM     23  C   UNL     1       5.381   3.034  12.966  0.00  0.00    +0.000 A 
ATOM     24  C   UNL     1       5.547   3.867  14.080  0.00  0.00    +0.000 A 
ENDBRANCH   5  18
BRANCH   3  25
ATOM     25  C   UNL     1       7.457   7.154  17.826  0.00  0.00    +0.000 C 
ATOM     26  N   UNL     1       8.145   6.701  18.921  0.00  0.00    +0.000 N 
ATOM     27  O   UNL     1       7.889   8.072  17.140  0.00  0.00    +0.000 OA
ATOM     28  H   UNL     1       7.958   5.793  19.317  0.00  0.00    +0.000 HD
ATOM     29  H   UNL     1       9.047   7.121  19.101  0.00  0.00    +0.000 HD
ENDBRANCH   3  25
TORSDOF 4
ENDMDL
MODEL 4
REMARK VINA RESULT:      -7.5      6.904      8.866
REMARK  Name = 
REMARK  4 active torsions:
REMARK  status: ('A' for Active; 'I' for Inactive)
REMARK    1  A    between atoms: C_2  and  C_3
REMARK    2  A    between atoms: C_10  and  N_11
REMARK    3  A    between atoms: C_13  and  C_14
REMARK    4  A    between atoms: N_18  and  C_19
REMARK                            x       y       z     vdW  Elec       q    Type
REMARK                         _______ _______ _______ _____ _____    ______ ____
ROOT
ATOM      1  N   UNL     1      -0.363  10.321  19.137  0.00  0.00    +0.000 N 
ATOM      2  C   UNL     1      -0.697  10.675  20.406  0.00  0.00    +0.000 A 
ATOM      3  C   UNL     1       0.066   9.869  21.245  0.00  0.00    +0.000 A 
ATOM      4  C   UNL     1       0.829   9.043  20.365  0.00  0.00    +0.000 A 
ATOM      5  N   UNL     1       1.651   8.040  20.782  0.00  0.00    +0.000 N 
ATOM      6  N   UNL     1       0.555   9.357  19.096  0.00  0.00    +0.000 NA
ATOM      7  H   UNL     1       1.868   7.994  21.778  0.00  0.00    +0.000 HD
ENDROOT
BRANCH   1  15
ATOM      8  C   UNL     1      -1.974   9.916  17.284  0.00  0.00    +0.000 C 
ATOM      9  C   UNL     1      -3.253   9.851  18.145  0.00  0.00    +0.000 C 
ATOM     10  S   UNL     1      -3.966  11.469  18.470  0.00  0.00    +0.000 S 
ATOM     11  O   UNL     1      -4.502  11.977  17.230  0.00  0.00    +0.000 OA
ATOM     12  O   UNL     1      -4.828  11.352  19.632  0.00  0.00    +0.000 OA
ATOM     13  C   UNL     1      -2.592  12.518  18.904  0.00  0.00    +0.000 C 
ATOM     14  C   UNL     1      -1.368  12.308  18.021  0.00  0.00    +0.000 C 
ATOM     15  C   UNL     1      -0.895  10.845  17.872  0.00  0.00    +0.000 C 
BRANCH   8  17
ATOM     16  N   UNL     1      -2.859  10.764  14.789  0.00  0.00    +0.000 NA
ATOM     17  C   UNL     1      -2.457  10.380  15.920  0.00  0.00    +0.000 C 
ENDBRANCH   8  17
ENDBRANCH   1  15
BRANCH   5  18
ATOM     18  C   UNL     1       2.086   6.890  20.074  0.00  0.00    +0.000 A 
ATOM     19  C   UNL     1       2.737   6.958  18.833  0.00  0.00    +0.000 A 
ATOM     20  C   UNL     1       3.013   5.816  18.074  0.00  0.00    +0.000 A 
ATOM     21  C   UNL     1       2.651   4.576  18.566  0.00  0.00    +0.000 A 
ATOM     22  F   UNL     1       2.896   3.476  17.838  0.00  0.00    +0.000 F 
ATOM     23  C   UNL     1       2.031   4.461  19.802  0.00  0.00    +0.000 A 
ATOM     24  C   UNL     1       1.752   5.612  20.552  0.00  0.00    +0.000 A 
ENDBRANCH   5  18
BRANCH   3  25
ATOM     25  C   UNL     1       0.056   9.874  22.693  0.00  0.00    +0.000 C 
ATOM     26  N   UNL     1      -1.161  10.129  23.269  0.00  0.00    +0.000 N 
ATOM     27  O   UNL     1       1.044   9.632  23.375  0.00  0.00    +0.000 OA
ATOM     28  H   UNL     1      -2.016  10.050  22.742  0.00  0.00    +0.000 HD
ATOM     29  H   UNL     1      -1.216  10.053  24.276  0.00  0.00    +0.000 HD
ENDBRANCH   3  25
TORSDOF 4
ENDMDL
MODEL 5
REMARK VINA RESULT:      -7.4      3.720      7.181
REMARK  Name = 
REMARK  4 active torsions:
REMARK  status: ('A' for Active; 'I' for Inactive)
REMARK    1  A    between atoms: C_2  and  C_3
REMARK    2  A    between atoms: C_10  and  N_11
REMARK    3  A    between atoms: C_13  and  C_14
REMARK    4  A    between atoms: N_18  and  C_19
REMARK                            x       y       z     vdW  Elec       q    Type
REMARK                         _______ _______ _______ _____ _____    ______ ____
ROOT
ATOM      1  N   UNL     1       4.312   4.182  18.188  0.00  0.00    +0.000 N 
ATOM      2  C   UNL     1       3.981   3.297  19.166  0.00  0.00    +0.000 A 
ATOM      3  C   UNL     1       2.927   3.875  19.867  0.00  0.00    +0.000 A 
ATOM      4  C   UNL     1       2.706   5.132  19.228  0.00  0.00    +0.000 A 
ATOM      5  N   UNL     1       1.811   6.062  19.663  0.00  0.00    +0.000 N 
ATOM      6  N   UNL     1       3.552   5.277  18.204  0.00  0.00    +0.000 NA
ATOM      7  H   UNL     1       1.140   5.771  20.374  0.00  0.00    +0.000 HD
ENDROOT
BRANCH   1  15
ATOM      8  C   UNL     1       5.137   5.036  16.002  0.00  0.00    +0.000 C 
ATOM      9  C   UNL     1       5.246   6.524  16.399  0.00  0.00    +0.000 C 
ATOM     10  S   UNL     1       6.806   6.928  17.195  0.00  0.00    +0.000 S 
ATOM     11  O   UNL     1       7.850   6.838  16.202  0.00  0.00    +0.000 OA
ATOM     12  O   UNL     1       6.623   8.162  17.937  0.00  0.00    +0.000 OA
ATOM     13  C   UNL     1       7.098   5.617  18.368  0.00  0.00    +0.000 C 
ATOM     14  C   UNL     1       6.776   4.232  17.819  0.00  0.00    +0.000 C 
ATOM     15  C   UNL     1       5.377   4.076  17.182  0.00  0.00    +0.000 C 
BRANCH   8  17
ATOM     16  N   UNL     1       7.017   4.718  13.978  0.00  0.00    +0.000 NA
ATOM     17  C   UNL     1       6.165   4.862  14.895  0.00  0.00    +0.000 C 
ENDBRANCH   8  17
ENDBRANCH   1  15
BRANCH   5  18
ATOM     18  C   UNL     1       1.800   7.463  19.443  0.00  0.00    +0.000 A 
ATOM     19  C   UNL     1       1.330   8.382  20.393  0.00  0.00    +0.000 A 
ATOM     20  C   UNL     1       1.174   9.741  20.101  0.00  0.00    +0.000 A 
ATOM     21  C   UNL     1       1.510  10.202  18.842  0.00  0.00    +0.000 A 
ATOM     22  F   UNL     1       1.348  11.501  18.545  0.00  0.00    +0.000 F 
ATOM     23  C   UNL     1       2.006   9.333  17.880  0.00  0.00    +0.000 A 
ATOM     24  C   UNL     1       2.151   7.971  18.180  0.00  0.00    +0.000 A 
ENDBRANCH   5  18
BRANCH   3  25
ATOM     25  C   UNL     1       2.235   3.310  21.007  0.00  0.00    +0.000 C 
ATOM     26  N   UNL     1       0.874   3.211  20.875  0.00  0.00    +0.000 N 
ATOM     27  O   UNL     1       2.807   2.909  22.013  0.00  0.00    +0.000 OA
ATOM     28  H   UNL     1       0.431   3.270  19.972  0.00  0.00    +0.000 HD
ATOM     29  H   UNL     1       0.375   2.743  21.619  0.00  0.00    +0.000 HD
ENDBRANCH   3  25
TORSDOF 4
ENDMDL
MODEL 6
REMARK VINA RESULT:      -7.4      3.209      5.227
REMARK  Name = 
REMARK  4 active torsions:
REMARK  status: ('A' for Active; 'I' for Inactive)
REMARK    1  A    between atoms: C_2  and  C_3
REMARK    2  A    between atoms: C_10  and  N_11
REMARK    3  A    between atoms: C_13  and  C_14
REMARK    4  A    between atoms: N_18  and  C_19
REMARK                            x       y       z     vdW  Elec       q    Type
REMARK                         _______ _______ _______ _____ _____    ______ ____
ROOT
ATOM      1  N   UNL     1       4.301   4.593  16.818  0.00  0.00    +0.000 N 
ATOM      2  C   UNL     1       4.573   4.173  15.554  0.00  0.00    +0.000 A 
ATOM      3  C   UNL     1       5.846   4.649  15.255  0.00  0.00    +0.000 A 
ATOM      4  C   UNL     1       6.254   5.364  16.422  0.00  0.00    +0.000 A 
ATOM      5  N   UNL     1       7.415   6.069  16.518  0.00  0.00    +0.000 N 
ATOM      6  N   UNL     1       5.299   5.294  17.354  0.00  0.00    +0.000 NA
ATOM      7  H   UNL     1       8.110   5.931  15.783  0.00  0.00    +0.000 HD
ENDROOT
BRANCH   1  15
ATOM      8  C   UNL     1       2.644   2.908  17.593  0.00  0.00    +0.000 C 
ATOM      9  C   UNL     1       3.635   1.975  18.321  0.00  0.00    +0.000 C 
ATOM     10  S   UNL     1       3.971   2.487  20.011  0.00  0.00    +0.000 S 
ATOM     11  O   UNL     1       2.775   2.267  20.789  0.00  0.00    +0.000 OA
ATOM     12  O   UNL     1       5.220   1.874  20.424  0.00  0.00    +0.000 OA
ATOM     13  C   UNL     1       4.219   4.251  19.937  0.00  0.00    +0.000 C 
ATOM     14  C   UNL     1       3.222   4.964  19.032  0.00  0.00    +0.000 C 
ATOM     15  C   UNL     1       3.080   4.385  17.607  0.00  0.00    +0.000 C 
BRANCH   8  17
ATOM     16  N   UNL     1       0.223   2.506  18.901  0.00  0.00    +0.000 NA
ATOM     17  C   UNL     1       1.320   2.688  18.308  0.00  0.00    +0.000 C 
ENDBRANCH   8  17
ENDBRANCH   1  15
BRANCH   5  18
ATOM     18  C   UNL     1       7.734   7.154  17.374  0.00  0.00    +0.000 A 
ATOM     19  C   UNL     1       7.680   8.494  16.961  0.00  0.00    +0.000 A 
ATOM     20  C   UNL     1       8.152   9.539  17.763  0.00  0.00    +0.000 A 
ATOM     21  C   UNL     1       8.672   9.249  19.010  0.00  0.00    +0.000 A 
ATOM     22  F   UNL     1       9.144  10.243  19.779  0.00  0.00    +0.000 F 
ATOM     23  C   UNL     1       8.719   7.941  19.469  0.00  0.00    +0.000 A 
ATOM     24  C   UNL     1       8.251   6.899  18.656  0.00  0.00    +0.000 A 
ENDBRANCH   5  18
BRANCH   3  25
ATOM     25  C   UNL     1       6.571   4.462  14.016  0.00  0.00    +0.000 C 
ATOM     26  N   UNL     1       6.199   3.367  13.280  0.00  0.00    +0.000 N 
ATOM     27  O   UNL     1       7.432   5.234  13.614  0.00  0.00    +0.000 OA
ATOM     28  H   UNL     1       5.325   2.895  13.449  0.00  0.00    +0.000 HD
ATOM     29  H   UNL     1       6.627   3.259  12.371  0.00  0.00    +0.000 HD
ENDBRANCH   3  25
TORSDOF 4
ENDMDL
MODEL 7
REMARK VINA RESULT:      -7.3      6.953      9.003
REMARK  Name = 
REMARK  4 active torsions:
REMARK  status: ('A' for Active; 'I' for Inactive)
REMARK    1  A    between atoms: C_2  and  C_3
REMARK    2  A    between atoms: C_10  and  N_11
REMARK    3  A    between atoms: C_13  and  C_14
REMARK    4  A    between atoms: N_18  and  C_19
REMARK                            x       y       z     vdW  Elec       q    Type
REMARK                         _______ _______ _______ _____ _____    ______ ____
ROOT
ATOM      1  N   UNL     1      -0.437  10.301  19.127  0.00  0.00    +0.000 N 
ATOM      2  C   UNL     1      -0.784  10.730  20.370  0.00  0.00    +0.000 A 
ATOM      3  C   UNL     1      -0.050   9.958  21.264  0.00  0.00    +0.000 A 
ATOM      4  C   UNL     1       0.712   9.071  20.443  0.00  0.00    +0.000 A 
ATOM      5  N   UNL     1       1.507   8.077  20.927  0.00  0.00    +0.000 N 
ATOM      6  N   UNL     1       0.464   9.320  19.154  0.00  0.00    +0.000 NA
ATOM      7  H   UNL     1       1.707   8.082  21.928  0.00  0.00    +0.000 HD
ENDROOT
BRANCH   1  15
ATOM      8  C   UNL     1      -1.998   9.804  17.255  0.00  0.00    +0.000 C 
ATOM      9  C   UNL     1      -3.299   9.771  18.084  0.00  0.00    +0.000 C 
ATOM     10  S   UNL     1      -4.027  11.397  18.318  0.00  0.00    +0.000 S 
ATOM     11  O   UNL     1      -4.534  11.846  17.043  0.00  0.00    +0.000 OA
ATOM     12  O   UNL     1      -4.918  11.329  19.462  0.00  0.00    +0.000 OA
ATOM     13  C   UNL     1      -2.669  12.473  18.739  0.00  0.00    +0.000 C 
ATOM     14  C   UNL     1      -1.422  12.231  17.898  0.00  0.00    +0.000 C 
ATOM     15  C   UNL     1      -0.939  10.765  17.827  0.00  0.00    +0.000 C 
BRANCH   8  17
ATOM     16  N   UNL     1      -2.822  10.534  14.701  0.00  0.00    +0.000 NA
ATOM     17  C   UNL     1      -2.448  10.204  15.859  0.00  0.00    +0.000 C 
ENDBRANCH   8  17
ENDBRANCH   1  15
BRANCH   5  18
ATOM     18  C   UNL     1       1.932   6.884  20.290  0.00  0.00    +0.000 A 
ATOM     19  C   UNL     1       1.631   5.605  20.784  0.00  0.00    +0.000 A 
ATOM     20  C   UNL     1       2.193   4.445  20.239  0.00  0.00    +0.000 A 
ATOM     21  C   UNL     1       3.059   4.556  19.168  0.00  0.00    +0.000 A 
ATOM     22  F   UNL     1       3.617   3.451  18.649  0.00  0.00    +0.000 F 
ATOM     23  C   UNL     1       3.363   5.799  18.630  0.00  0.00    +0.000 A 
ATOM     24  C   UNL     1       2.801   6.956  19.188  0.00  0.00    +0.000 A 
ENDBRANCH   5  18
BRANCH   3  25
ATOM     25  C   UNL     1      -0.083  10.041  22.709  0.00  0.00    +0.000 C 
ATOM     26  N   UNL     1      -1.215  10.604  23.237  0.00  0.00    +0.000 N 
ATOM     27  O   UNL     1       0.808   9.611  23.430  0.00  0.00    +0.000 OA
ATOM     28  H   UNL     1      -2.056  10.701  22.690  0.00  0.00    +0.000 HD
ATOM     29  H   UNL     1      -1.303  10.598  24.244  0.00  0.00    +0.000 HD
ENDBRANCH   3  25
TORSDOF 4
ENDMDL
MODEL 8
REMARK VINA RESULT:      -6.9      1.258      1.696
REMARK  Name = 
REMARK  4 active torsions:
REMARK  status: ('A' for Active; 'I' for Inactive)
REMARK    1  A    between atoms: C_2  and  C_3
REMARK    2  A    between atoms: C_10  and  N_11
REMARK    3  A    between atoms: C_13  and  C_14
REMARK    4  A    between atoms: N_18  and  C_19
REMARK                            x       y       z     vdW  Elec       q    Type
REMARK                         _______ _______ _______ _____ _____    ______ ____
ROOT
ATOM      1  N   UNL     1       4.866   4.539  18.046  0.00  0.00    +0.000 N 
ATOM      2  C   UNL     1       5.734   5.373  18.678  0.00  0.00    +0.000 A 
ATOM      3  C   UNL     1       6.485   5.979  17.676  0.00  0.00    +0.000 A 
ATOM      4  C   UNL     1       5.989   5.423  16.458  0.00  0.00    +0.000 A 
ATOM      5  N   UNL     1       6.516   5.684  15.230  0.00  0.00    +0.000 N 
ATOM      6  N   UNL     1       4.997   4.566  16.720  0.00  0.00    +0.000 NA
ATOM      7  H   UNL     1       7.183   6.453  15.159  0.00  0.00    +0.000 HD
ENDROOT
BRANCH   1  15
ATOM      8  C   UNL     1       3.825   3.775  20.172  0.00  0.00    +0.000 C 
ATOM      9  C   UNL     1       3.313   5.152  20.648  0.00  0.00    +0.000 C 
ATOM     10  S   UNL     1       1.707   5.581  19.963  0.00  0.00    +0.000 S 
ATOM     11  O   UNL     1       0.722   4.709  20.558  0.00  0.00    +0.000 OA
ATOM     12  O   UNL     1       1.548   7.020  20.064  0.00  0.00    +0.000 OA
ATOM     13  C   UNL     1       1.795   5.155  18.234  0.00  0.00    +0.000 C 
ATOM     14  C   UNL     1       2.482   3.820  17.975  0.00  0.00    +0.000 C 
ATOM     15  C   UNL     1       3.866   3.641  18.638  0.00  0.00    +0.000 C 
BRANCH   8  17
ATOM     16  N   UNL     1       2.092   1.947  21.350  0.00  0.00    +0.000 NA
ATOM     17  C   UNL     1       2.877   2.776  20.816  0.00  0.00    +0.000 C 
ENDBRANCH   8  17
ENDBRANCH   1  15
BRANCH   5  18
ATOM     18  C   UNL     1       6.456   4.903  14.047  0.00  0.00    +0.000 A 
ATOM     19  C   UNL     1       5.422   3.991  13.785  0.00  0.00    +0.000 A 
ATOM     20  C   UNL     1       5.461   3.113  12.697  0.00  0.00    +0.000 A 
ATOM     21  C   UNL     1       6.544   3.153  11.839  0.00  0.00    +0.000 A 
ATOM     22  F   UNL     1       6.600   2.303  10.802  0.00  0.00    +0.000 F 
ATOM     23  C   UNL     1       7.575   4.058  12.044  0.00  0.00    +0.000 A 
ATOM     24  C   UNL     1       7.530   4.929  13.142  0.00  0.00    +0.000 A 
ENDBRANCH   5  18
BRANCH   3  25
ATOM     25  C   UNL     1       7.546   6.948  17.856  0.00  0.00    +0.000 C 
ATOM     26  N   UNL     1       8.298   6.788  18.991  0.00  0.00    +0.000 N 
ATOM     27  O   UNL     1       7.797   7.832  17.048  0.00  0.00    +0.000 OA
ATOM     28  H   UNL     1       8.288   5.922  19.508  0.00  0.00    +0.000 HD
ATOM     29  H   UNL     1       9.098   7.396  19.100  0.00  0.00    +0.000 HD
ENDBRANCH   3  25
TORSDOF 4
ENDMDL
MODEL 9
REMARK VINA RESULT:      -6.9      1.638      1.865
REMARK  Name = 
REMARK  4 active torsions:
REMARK  status: ('A' for Active; 'I' for Inactive)
REMARK    1  A    between atoms: C_2  and  C_3
REMARK    2  A    between atoms: C_10  and  N_11
REMARK    3  A    between atoms: C_13  and  C_14
REMARK    4  A    between atoms: N_18  and  C_19
REMARK                            x       y       z     vdW  Elec       q    Type
REMARK                         _______ _______ _______ _____ _____    ______ ____
ROOT
ATOM      1  N   UNL     1       4.778   4.383  18.148  0.00  0.00    +0.000 N 
ATOM      2  C   UNL     1       5.625   4.876  19.091  0.00  0.00    +0.000 A 
ATOM      3  C   UNL     1       6.673   5.468  18.395  0.00  0.00    +0.000 A 
ATOM      4  C   UNL     1       6.362   5.263  17.017  0.00  0.00    +0.000 A 
ATOM      5  N   UNL     1       7.182   5.614  15.988  0.00  0.00    +0.000 N 
ATOM      6  N   UNL     1       5.198   4.616  16.906  0.00  0.00    +0.000 NA
ATOM      7  H   UNL     1       7.978   6.214  16.206  0.00  0.00    +0.000 HD
ENDROOT
BRANCH   1  15
ATOM      8  C   UNL     1       3.310   3.277  19.825  0.00  0.00    +0.000 C 
ATOM      9  C   UNL     1       3.073   4.509  20.724  0.00  0.00    +0.000 C 
ATOM     10  S   UNL     1       1.718   5.545  20.156  0.00  0.00    +0.000 S 
ATOM     11  O   UNL     1       0.486   4.822  20.363  0.00  0.00    +0.000 OA
ATOM     12  O   UNL     1       1.886   6.862  20.743  0.00  0.00    +0.000 OA
ATOM     13  C   UNL     1       1.937   5.694  18.393  0.00  0.00    +0.000 C 
ATOM     14  C   UNL     1       2.324   4.383  17.718  0.00  0.00    +0.000 C 
ATOM     15  C   UNL     1       3.526   3.641  18.344  0.00  0.00    +0.000 C 
BRANCH   8  17
ATOM     16  N   UNL     1       1.057   1.694  20.210  0.00  0.00    +0.000 NA
ATOM     17  C   UNL     1       2.078   2.411  20.036  0.00  0.00    +0.000 C 
ENDBRANCH   8  17
ENDBRANCH   1  15
BRANCH   5  18
ATOM     18  C   UNL     1       7.239   5.089  14.671  0.00  0.00    +0.000 A 
ATOM     19  C   UNL     1       7.996   5.677  13.646  0.00  0.00    +0.000 A 
ATOM     20  C   UNL     1       7.913   5.245  12.318  0.00  0.00    +0.000 A 
ATOM     21  C   UNL     1       7.073   4.194  12.004  0.00  0.00    +0.000 A 
ATOM     22  F   UNL     1       6.974   3.783  10.730  0.00  0.00    +0.000 F 
ATOM     23  C   UNL     1       6.328   3.564  12.991  0.00  0.00    +0.000 A 
ATOM     24  C   UNL     1       6.412   4.010  14.317  0.00  0.00    +0.000 A 
ENDBRANCH   5  18
BRANCH   3  25
ATOM     25  C   UNL     1       7.829   6.127  18.967  0.00  0.00    +0.000 C 
ATOM     26  N   UNL     1       8.405   5.481  20.029  0.00  0.00    +0.000 N 
ATOM     27  O   UNL     1       8.298   7.169  18.527  0.00  0.00    +0.000 OA
ATOM     28  H   UNL     1       8.212   4.510  20.218  0.00  0.00    +0.000 HD
ATOM     29  H   UNL     1       9.263   5.873  20.394  0.00  0.00    +0.000 HD
ENDBRANCH   3  25
TORSDOF 4
ENDMDL
