MODEL 1
REMARK VINA RESULT:      -9.5      0.000      0.000
REMARK  Name = 
REMARK  3 active torsions:
REMARK  status: ('A' for Active; 'I' for Inactive)
REMARK    1  A    between atoms: C_1  and  C_2
REMARK    2  A    between atoms: C_9  and  O_10
REMARK    3  A    between atoms: C_19  and  C_20
REMARK                            x       y       z     vdW  Elec       q    Type
REMARK                         _______ _______ _______ _____ _____    ______ ____
ROOT
ATOM      1  C   UNL     1       1.458   3.989  18.377  0.00  0.00    +0.000 C 
ATOM      2  C   UNL     1       2.733   4.537  19.047  0.00  0.00    +0.000 C 
ATOM      3  C   UNL     1       2.514   4.756  20.540  0.00  0.00    +0.000 C 
ATOM      4  C   UNL     1       1.593   5.964  20.800  0.00  0.00    +0.000 C 
ATOM      5  C   UNL     1       2.054   7.257  20.077  0.00  0.00    +0.000 C 
ATOM      6  C   UNL     1       1.170   8.477  20.307  0.00  0.00    +0.000 A 
ATOM      7  C   UNL     1       0.540   8.689  21.549  0.00  0.00    +0.000 A 
ATOM      8  C   UNL     1      -0.207   9.841  21.799  0.00  0.00    +0.000 A 
ATOM      9  C   UNL     1      -0.322  10.805  20.810  0.00  0.00    +0.000 A 
ATOM     10  C   UNL     1       0.294  10.631  19.578  0.00  0.00    +0.000 A 
ATOM     11  C   UNL     1       1.057   9.481  19.320  0.00  0.00    +0.000 A 
ATOM     12  C   UNL     1       1.693   9.345  17.958  0.00  0.00    +0.000 C 
ATOM     13  C   UNL     1       2.782   8.278  17.890  0.00  0.00    +0.000 C 
ATOM     14  C   UNL     1       2.295   6.991  18.558  0.00  0.00    +0.000 C 
ATOM     15  C   UNL     1       3.299   5.843  18.440  0.00  0.00    +0.000 C 
ATOM     16  C   UNL     1       3.845   5.446  17.067  0.00  0.00    +0.000 C 
ATOM     17  C   UNL     1       4.483   4.113  17.382  0.00  0.00    +0.000 C 
ATOM     18  C   UNL     1       5.438   3.428  16.745  0.00  0.00    +0.000 C 
ATOM     19  C   UNL     1       3.868   3.615  18.659  0.00  0.00    +0.000 C 
ATOM     20  O   UNL     1       4.221   2.611  19.256  0.00  0.00    +0.000 OA
ENDROOT
BRANCH  18  21
ATOM     21  C   UNL     1       6.016   3.932  15.553  0.00  0.00    +0.000 A 
ATOM     22  C   UNL     1       5.692   3.631  14.244  0.00  0.00    +0.000 A 
ATOM     23  C   UNL     1       6.517   4.312  13.302  0.00  0.00    +0.000 A 
ATOM     24  C   UNL     1       7.433   5.131  13.921  0.00  0.00    +0.000 A 
ATOM     25  S   UNL     1       7.292   5.080  15.624  0.00  0.00    +0.000 S 
ENDBRANCH  18  21
BRANCH   9  26
ATOM     26  O   UNL     1      -1.031  11.952  21.014  0.00  0.00    +0.000 OA
ATOM     27  H   UNL     1      -1.925  11.827  20.653  0.00  0.00    +0.000 HD
ENDBRANCH   9  26
TORSDOF 2
ENDMDL
MODEL 2
REMARK VINA RESULT:      -7.2      3.965      5.530
REMARK  Name = 
REMARK  3 active torsions:
REMARK  status: ('A' for Active; 'I' for Inactive)
REMARK    1  A    between atoms: C_1  and  C_2
REMARK    2  A    between atoms: C_9  and  O_10
REMARK    3  A    between atoms: C_19  and  C_20
REMARK                            x       y       z     vdW  Elec       q    Type
REMARK                         _______ _______ _______ _____ _____    ______ ____
ROOT
ATOM      1  C   UNL     1       7.517   4.349  17.431  0.00  0.00    +0.000 C 
ATOM      2  C   UNL     1       6.339   5.057  16.735  0.00  0.00    +0.000 C 
ATOM      3  C   UNL     1       5.775   6.169  17.613  0.00  0.00    +0.000 C 
ATOM      4  C   UNL     1       5.006   5.596  18.819  0.00  0.00    +0.000 C 
ATOM      5  C   UNL     1       3.925   4.556  18.422  0.00  0.00    +0.000 C 
ATOM      6  C   UNL     1       3.141   3.962  19.586  0.00  0.00    +0.000 A 
ATOM      7  C   UNL     1       2.821   4.743  20.714  0.00  0.00    +0.000 A 
ATOM      8  C   UNL     1       2.035   4.236  21.750  0.00  0.00    +0.000 A 
ATOM      9  C   UNL     1       1.547   2.942  21.664  0.00  0.00    +0.000 A 
ATOM     10  C   UNL     1       1.836   2.150  20.562  0.00  0.00    +0.000 A 
ATOM     11  C   UNL     1       2.617   2.653  19.508  0.00  0.00    +0.000 A 
ATOM     12  C   UNL     1       2.905   1.739  18.342  0.00  0.00    +0.000 C 
ATOM     13  C   UNL     1       3.428   2.464  17.105  0.00  0.00    +0.000 C 
ATOM     14  C   UNL     1       4.529   3.448  17.503  0.00  0.00    +0.000 C 
ATOM     15  C   UNL     1       5.171   4.141  16.299  0.00  0.00    +0.000 C 
ATOM     16  C   UNL     1       5.725   3.304  15.144  0.00  0.00    +0.000 C 
ATOM     17  C   UNL     1       6.537   4.339  14.399  0.00  0.00    +0.000 C 
ATOM     18  C   UNL     1       6.955   4.374  13.129  0.00  0.00    +0.000 C 
ATOM     19  C   UNL     1       6.816   5.461  15.357  0.00  0.00    +0.000 C 
ATOM     20  O   UNL     1       7.366   6.508  15.060  0.00  0.00    +0.000 OA
ENDROOT
BRANCH  18  21
ATOM     21  C   UNL     1       6.658   3.310  12.241  0.00  0.00    +0.000 A 
ATOM     22  C   UNL     1       7.528   2.420  11.641  0.00  0.00    +0.000 A 
ATOM     23  C   UNL     1       6.867   1.500  10.777  0.00  0.00    +0.000 A 
ATOM     24  C   UNL     1       5.505   1.702  10.761  0.00  0.00    +0.000 A 
ATOM     25  S   UNL     1       5.033   2.987  11.785  0.00  0.00    +0.000 S 
ENDBRANCH  18  21
BRANCH   9  26
ATOM     26  O   UNL     1       0.765   2.410  22.646  0.00  0.00    +0.000 OA
ATOM     27  H   UNL     1       0.102   1.834  22.231  0.00  0.00    +0.000 HD
ENDBRANCH   9  26
TORSDOF 2
ENDMDL
MODEL 3
REMARK VINA RESULT:      -6.8      5.026     10.604
REMARK  Name = 
REMARK  3 active torsions:
REMARK  status: ('A' for Active; 'I' for Inactive)
REMARK    1  A    between atoms: C_1  and  C_2
REMARK    2  A    between atoms: C_9  and  O_10
REMARK    3  A    between atoms: C_19  and  C_20
REMARK                            x       y       z     vdW  Elec       q    Type
REMARK                         _______ _______ _______ _____ _____    ______ ____
ROOT
ATOM      1  C   UNL     1      -0.563  13.200  22.652  0.00  0.00    +0.000 C 
ATOM      2  C   UNL     1      -1.661  12.130  22.501  0.00  0.00    +0.000 C 
ATOM      3  C   UNL     1      -1.248  10.825  23.174  0.00  0.00    +0.000 C 
ATOM      4  C   UNL     1      -0.137  10.112  22.379  0.00  0.00    +0.000 C 
ATOM      5  C   UNL     1      -0.481   9.917  20.879  0.00  0.00    +0.000 C 
ATOM      6  C   UNL     1       0.593   9.216  20.055  0.00  0.00    +0.000 A 
ATOM      7  C   UNL     1       1.381   8.192  20.617  0.00  0.00    +0.000 A 
ATOM      8  C   UNL     1       2.312   7.487  19.852  0.00  0.00    +0.000 A 
ATOM      9  C   UNL     1       2.457   7.791  18.508  0.00  0.00    +0.000 A 
ATOM     10  C   UNL     1       1.689   8.787  17.921  0.00  0.00    +0.000 A 
ATOM     11  C   UNL     1       0.741   9.495  18.679  0.00  0.00    +0.000 A 
ATOM     12  C   UNL     1      -0.054  10.574  17.987  0.00  0.00    +0.000 C 
ATOM     13  C   UNL     1      -1.289  11.024  18.763  0.00  0.00    +0.000 C 
ATOM     14  C   UNL     1      -0.925  11.265  20.229  0.00  0.00    +0.000 C 
ATOM     15  C   UNL     1      -2.093  11.814  21.049  0.00  0.00    +0.000 C 
ATOM     16  C   UNL     1      -2.840  13.061  20.571  0.00  0.00    +0.000 C 
ATOM     17  C   UNL     1      -3.628  13.421  21.810  0.00  0.00    +0.000 C 
ATOM     18  C   UNL     1      -4.738  14.151  21.959  0.00  0.00    +0.000 C 
ATOM     19  C   UNL     1      -2.955  12.754  22.976  0.00  0.00    +0.000 C 
ATOM     20  O   UNL     1      -3.383  12.752  24.118  0.00  0.00    +0.000 OA
ENDROOT
BRANCH  18  21
ATOM     21  C   UNL     1      -5.364  14.751  20.838  0.00  0.00    +0.000 A 
ATOM     22  C   UNL     1      -5.256  16.052  20.384  0.00  0.00    +0.000 A 
ATOM     23  C   UNL     1      -6.064  16.304  19.238  0.00  0.00    +0.000 A 
ATOM     24  C   UNL     1      -6.750  15.180  18.837  0.00  0.00    +0.000 A 
ATOM     25  S   UNL     1      -6.413  13.833  19.834  0.00  0.00    +0.000 S 
ENDBRANCH  18  21
BRANCH   9  26
ATOM     26  O   UNL     1       3.344   7.120  17.720  0.00  0.00    +0.000 OA
ATOM     27  H   UNL     1       3.449   6.221  18.075  0.00  0.00    +0.000 HD
ENDBRANCH   9  26
TORSDOF 2
ENDMDL
MODEL 4
REMARK VINA RESULT:      -6.8      3.740      9.448
REMARK  Name = 
REMARK  3 active torsions:
REMARK  status: ('A' for Active; 'I' for Inactive)
REMARK    1  A    between atoms: C_1  and  C_2
REMARK    2  A    between atoms: C_9  and  O_10
REMARK    3  A    between atoms: C_19  and  C_20
REMARK                            x       y       z     vdW  Elec       q    Type
REMARK                         _______ _______ _______ _____ _____    ______ ____
ROOT
ATOM      1  C   UNL     1      -1.162  10.337  17.819  0.00  0.00    +0.000 C 
ATOM      2  C   UNL     1       0.012  10.977  18.584  0.00  0.00    +0.000 C 
ATOM      3  C   UNL     1       1.303  10.885  17.779  0.00  0.00    +0.000 C 
ATOM      4  C   UNL     1       1.834   9.439  17.734  0.00  0.00    +0.000 C 
ATOM      5  C   UNL     1       1.967   8.788  19.137  0.00  0.00    +0.000 C 
ATOM      6  C   UNL     1       2.488   7.356  19.138  0.00  0.00    +0.000 A 
ATOM      7  C   UNL     1       3.452   6.937  18.200  0.00  0.00    +0.000 A 
ATOM      8  C   UNL     1       3.996   5.652  18.241  0.00  0.00    +0.000 A 
ATOM      9  C   UNL     1       3.590   4.772  19.232  0.00  0.00    +0.000 A 
ATOM     10  C   UNL     1       2.650   5.157  20.177  0.00  0.00    +0.000 A 
ATOM     11  C   UNL     1       2.104   6.451  20.152  0.00  0.00    +0.000 A 
ATOM     12  C   UNL     1       1.077   6.806  21.200  0.00  0.00    +0.000 C 
ATOM     13  C   UNL     1       0.820   8.304  21.329  0.00  0.00    +0.000 C 
ATOM     14  C   UNL     1       0.637   8.925  19.943  0.00  0.00    +0.000 C 
ATOM     15  C   UNL     1       0.277  10.410  19.999  0.00  0.00    +0.000 C 
ATOM     16  C   UNL     1      -0.907  10.876  20.849  0.00  0.00    +0.000 C 
ATOM     17  C   UNL     1      -1.094  12.286  20.338  0.00  0.00    +0.000 C 
ATOM     18  C   UNL     1      -1.684  13.347  20.898  0.00  0.00    +0.000 C 
ATOM     19  C   UNL     1      -0.431  12.365  18.993  0.00  0.00    +0.000 C 
ATOM     20  O   UNL     1      -0.306  13.387  18.338  0.00  0.00    +0.000 OA
ENDROOT
BRANCH  18  21
ATOM     21  C   UNL     1      -2.283  13.250  22.179  0.00  0.00    +0.000 A 
ATOM     22  C   UNL     1      -3.452  12.605  22.537  0.00  0.00    +0.000 A 
ATOM     23  C   UNL     1      -3.759  12.750  23.921  0.00  0.00    +0.000 A 
ATOM     24  C   UNL     1      -2.802  13.484  24.584  0.00  0.00    +0.000 A 
ATOM     25  S   UNL     1      -1.542  13.986  23.543  0.00  0.00    +0.000 S 
ENDBRANCH  18  21
BRANCH   9  26
ATOM     26  O   UNL     1       4.105   3.512  19.317  0.00  0.00    +0.000 OA
ATOM     27  H   UNL     1       5.071   3.581  19.397  0.00  0.00    +0.000 HD
ENDBRANCH   9  26
TORSDOF 2
ENDMDL
MODEL 5
REMARK VINA RESULT:      -6.8      3.629      9.025
REMARK  Name = 
REMARK  3 active torsions:
REMARK  status: ('A' for Active; 'I' for Inactive)
REMARK    1  A    between atoms: C_1  and  C_2
REMARK    2  A    between atoms: C_9  and  O_10
REMARK    3  A    between atoms: C_19  and  C_20
REMARK                            x       y       z     vdW  Elec       q    Type
REMARK                         _______ _______ _______ _____ _____    ______ ____
ROOT
ATOM      1  C   UNL     1      -0.312   9.584  17.417  0.00  0.00    +0.000 C 
ATOM      2  C   UNL     1       0.767  10.157  18.356  0.00  0.00    +0.000 C 
ATOM      3  C   UNL     1       2.153  10.041  17.731  0.00  0.00    +0.000 C 
ATOM      4  C   UNL     1       2.637   8.579  17.707  0.00  0.00    +0.000 C 
ATOM      5  C   UNL     1       2.557   7.881  19.091  0.00  0.00    +0.000 C 
ATOM      6  C   UNL     1       3.026   6.431  19.112  0.00  0.00    +0.000 A 
ATOM      7  C   UNL     1       4.094   6.006  18.299  0.00  0.00    +0.000 A 
ATOM      8  C   UNL     1       4.586   4.701  18.368  0.00  0.00    +0.000 A 
ATOM      9  C   UNL     1       4.021   3.807  19.263  0.00  0.00    +0.000 A 
ATOM     10  C   UNL     1       2.973   4.197  20.085  0.00  0.00    +0.000 A 
ATOM     11  C   UNL     1       2.478   5.511  20.033  0.00  0.00    +0.000 A 
ATOM     12  C   UNL     1       1.330   5.870  20.944  0.00  0.00    +0.000 C 
ATOM     13  C   UNL     1       1.106   7.373  21.089  0.00  0.00    +0.000 C 
ATOM     14  C   UNL     1       1.135   8.042  19.714  0.00  0.00    +0.000 C 
ATOM     15  C   UNL     1       0.818   9.537  19.774  0.00  0.00    +0.000 C 
ATOM     16  C   UNL     1      -0.455  10.020  20.471  0.00  0.00    +0.000 C 
ATOM     17  C   UNL     1      -0.525  11.451  19.990  0.00  0.00    +0.000 C 
ATOM     18  C   UNL     1      -1.151  12.516  20.502  0.00  0.00    +0.000 C 
ATOM     19  C   UNL     1       0.318  11.547  18.750  0.00  0.00    +0.000 C 
ATOM     20  O   UNL     1       0.563  12.582  18.155  0.00  0.00    +0.000 OA
ENDROOT
BRANCH  18  21
ATOM     21  C   UNL     1      -1.922  12.401  21.686  0.00  0.00    +0.000 A 
ATOM     22  C   UNL     1      -1.541  11.907  22.918  0.00  0.00    +0.000 A 
ATOM     23  C   UNL     1      -2.603  11.918  23.868  0.00  0.00    +0.000 A 
ATOM     24  C   UNL     1      -3.760  12.442  23.338  0.00  0.00    +0.000 A 
ATOM     25  S   UNL     1      -3.560  12.921  21.709  0.00  0.00    +0.000 S 
ENDBRANCH  18  21
BRANCH   9  26
ATOM     26  O   UNL     1       4.478   2.527  19.373  0.00  0.00    +0.000 OA
ATOM     27  H   UNL     1       4.729   2.370  20.299  0.00  0.00    +0.000 HD
ENDBRANCH   9  26
TORSDOF 2
ENDMDL
