MODEL 1
REMARK VINA RESULT:      -7.7      0.000      0.000
REMARK  Name = 
REMARK  9 active torsions:
REMARK  status: ('A' for Active; 'I' for Inactive)
REMARK    1  A    between atoms: C_1  and  C_2
REMARK    2  A    between atoms: C_2  and  C_3
REMARK    3  A    between atoms: C_3  and  C_4
REMARK    4  A    between atoms: C_4  and  O_5
REMARK    5  A    between atoms: O_5  and  C_6
REMARK    6  A    between atoms: C_9  and  C_10
REMARK    7  A    between atoms: N_11  and  N_12
REMARK    8  A    between atoms: C_15  and  N_16
REMARK    9  A    between atoms: C_23  and  C_24
REMARK                            x       y       z     vdW  Elec       q    Type
REMARK                         _______ _______ _______ _____ _____    ______ ____
ROOT
ATOM      1  N   UNL     1       3.338   7.693  17.404  0.00  0.00    +0.000 N 
ATOM      2  C   UNL     1       3.886   6.396  17.301  0.00  0.00    +0.000 A 
ATOM      3  C   UNL     1       3.301   5.353  17.989  0.00  0.00    +0.000 A 
ATOM      4  C   UNL     1       3.874   4.105  17.909  0.00  0.00    +0.000 A 
ATOM      5  N   UNL     1       4.973   3.907  17.167  0.00  0.00    +0.000 NA
ATOM      6  C   UNL     1       5.463   4.965  16.487  0.00  0.00    +0.000 A 
ATOM      7  C   UNL     1       6.648   4.736  15.602  0.00  0.00    +0.000 C 
ATOM      8  N   UNL     1       4.957   6.213  16.520  0.00  0.00    +0.000 NA
ATOM      9  H   UNL     1       3.976   8.360  16.973  0.00  0.00    +0.000 HD
ENDROOT
BRANCH   4  10
ATOM     10  N   UNL     1       3.324   3.065  18.630  0.00  0.00    +0.000 N 
ATOM     11  C   UNL     1       2.090   2.414  18.194  0.00  0.00    +0.000 C 
ATOM     12  C   UNL     1       0.975   2.572  19.234  0.00  0.00    +0.000 C 
ATOM     13  O   UNL     1       1.411   2.203  20.554  0.00  0.00    +0.000 OA
ATOM     14  C   UNL     1       2.510   3.036  20.954  0.00  0.00    +0.000 C 
ATOM     15  C   UNL     1       3.717   2.851  20.026  0.00  0.00    +0.000 C 
ENDBRANCH   4  10
BRANCH   1  17
ATOM     16  C   UNL     1       1.784   8.904  18.473  0.00  0.00    +0.000 C 
ATOM     17  N   UNL     1       2.692   7.991  18.566  0.00  0.00    +0.000 NA
BRANCH  16  21
ATOM     18  C   UNL     1      -0.353  10.146  21.956  0.00  0.00    +0.000 A 
ATOM     19  C   UNL     1       0.407   8.969  21.941  0.00  0.00    +0.000 A 
ATOM     20  C   UNL     1       1.123   8.595  20.805  0.00  0.00    +0.000 A 
ATOM     21  C   UNL     1       1.065   9.389  19.664  0.00  0.00    +0.000 A 
ATOM     22  C   UNL     1       0.309  10.564  19.657  0.00  0.00    +0.000 A 
ATOM     23  C   UNL     1      -0.392  10.945  20.810  0.00  0.00    +0.000 A 
BRANCH  18  24
ATOM     24  O   UNL     1      -1.087  10.591  23.030  0.00  0.00    +0.000 OA
BRANCH  24  25
ATOM     25  C   UNL     1      -1.416  11.982  22.989  0.00  0.00    +0.000 C 
BRANCH  25  26
ATOM     26  C   UNL     1      -2.921  12.195  22.882  0.00  0.00    +0.000 C 
BRANCH  26  28
ATOM     27  C   UNL     1      -4.577  12.381  24.789  0.00  0.00    +0.000 C 
ATOM     28  C   UNL     1      -3.403  13.024  24.075  0.00  0.00    +0.000 C 
ENDBRANCH  26  28
ENDBRANCH  25  26
ENDBRANCH  24  25
ENDBRANCH  18  24
ENDBRANCH  16  21
ENDBRANCH   1  17
TORSDOF 7
ENDMDL
MODEL 2
REMARK VINA RESULT:      -7.6      2.756      4.717
REMARK  Name = 
REMARK  9 active torsions:
REMARK  status: ('A' for Active; 'I' for Inactive)
REMARK    1  A    between atoms: C_1  and  C_2
REMARK    2  A    between atoms: C_2  and  C_3
REMARK    3  A    between atoms: C_3  and  C_4
REMARK    4  A    between atoms: C_4  and  O_5
REMARK    5  A    between atoms: O_5  and  C_6
REMARK    6  A    between atoms: C_9  and  C_10
REMARK    7  A    between atoms: N_11  and  N_12
REMARK    8  A    between atoms: C_15  and  N_16
REMARK    9  A    between atoms: C_23  and  C_24
REMARK                            x       y       z     vdW  Elec       q    Type
REMARK                         _______ _______ _______ _____ _____    ______ ____
ROOT
ATOM      1  N   UNL     1       2.121   6.144  20.670  0.00  0.00    +0.000 N 
ATOM      2  C   UNL     1       2.752   5.324  19.709  0.00  0.00    +0.000 A 
ATOM      3  C   UNL     1       3.592   5.894  18.774  0.00  0.00    +0.000 A 
ATOM      4  C   UNL     1       4.165   5.084  17.820  0.00  0.00    +0.000 A 
ATOM      5  N   UNL     1       3.919   3.767  17.809  0.00  0.00    +0.000 NA
ATOM      6  C   UNL     1       3.121   3.275  18.782  0.00  0.00    +0.000 A 
ATOM      7  C   UNL     1       2.897   1.795  18.817  0.00  0.00    +0.000 C 
ATOM      8  N   UNL     1       2.526   4.006  19.743  0.00  0.00    +0.000 NA
ATOM      9  H   UNL     1       1.422   5.596  21.169  0.00  0.00    +0.000 HD
ENDROOT
BRANCH   4  10
ATOM     10  N   UNL     1       4.970   5.650  16.854  0.00  0.00    +0.000 N 
ATOM     11  C   UNL     1       5.382   4.892  15.674  0.00  0.00    +0.000 C 
ATOM     12  C   UNL     1       6.905   4.735  15.612  0.00  0.00    +0.000 C 
ATOM     13  O   UNL     1       7.585   5.992  15.780  0.00  0.00    +0.000 OA
ATOM     14  C   UNL     1       7.250   6.558  17.056  0.00  0.00    +0.000 C 
ATOM     15  C   UNL     1       5.749   6.854  17.160  0.00  0.00    +0.000 C 
ENDBRANCH   4  10
BRANCH   1  17
ATOM     16  C   UNL     1       1.077   8.084  21.084  0.00  0.00    +0.000 C 
ATOM     17  N   UNL     1       1.871   7.432  20.302  0.00  0.00    +0.000 NA
BRANCH  16  21
ATOM     18  C   UNL     1      -0.290  12.048  20.272  0.00  0.00    +0.000 A 
ATOM     19  C   UNL     1      -0.213  11.551  21.579  0.00  0.00    +0.000 A 
ATOM     20  C   UNL     1       0.265  10.266  21.828  0.00  0.00    +0.000 A 
ATOM     21  C   UNL     1       0.650   9.457  20.763  0.00  0.00    +0.000 A 
ATOM     22  C   UNL     1       0.575   9.932  19.451  0.00  0.00    +0.000 A 
ATOM     23  C   UNL     1       0.113  11.233  19.210  0.00  0.00    +0.000 A 
BRANCH  18  24
ATOM     24  O   UNL     1      -0.747  13.301  19.935  0.00  0.00    +0.000 OA
BRANCH  24  25
ATOM     25  C   UNL     1      -0.251  13.798  18.690  0.00  0.00    +0.000 C 
BRANCH  25  26
ATOM     26  C   UNL     1       0.505  15.108  18.875  0.00  0.00    +0.000 C 
BRANCH  26  28
ATOM     27  C   UNL     1       2.562  13.793  18.202  0.00  0.00    +0.000 C 
ATOM     28  C   UNL     1       1.978  14.809  19.166  0.00  0.00    +0.000 C 
ENDBRANCH  26  28
ENDBRANCH  25  26
ENDBRANCH  24  25
ENDBRANCH  18  24
ENDBRANCH  16  21
ENDBRANCH   1  17
TORSDOF 7
ENDMDL
MODEL 3
REMARK VINA RESULT:      -7.6      2.614      4.268
REMARK  Name = 
REMARK  9 active torsions:
REMARK  status: ('A' for Active; 'I' for Inactive)
REMARK    1  A    between atoms: C_1  and  C_2
REMARK    2  A    between atoms: C_2  and  C_3
REMARK    3  A    between atoms: C_3  and  C_4
REMARK    4  A    between atoms: C_4  and  O_5
REMARK    5  A    between atoms: O_5  and  C_6
REMARK    6  A    between atoms: C_9  and  C_10
REMARK    7  A    between atoms: N_11  and  N_12
REMARK    8  A    between atoms: C_15  and  N_16
REMARK    9  A    between atoms: C_23  and  C_24
REMARK                            x       y       z     vdW  Elec       q    Type
REMARK                         _______ _______ _______ _____ _____    ______ ____
ROOT
ATOM      1  N   UNL     1       2.263   5.680  20.758  0.00  0.00    +0.000 N 
ATOM      2  C   UNL     1       2.882   4.973  19.706  0.00  0.00    +0.000 A 
ATOM      3  C   UNL     1       3.690   5.647  18.814  0.00  0.00    +0.000 A 
ATOM      4  C   UNL     1       4.253   4.948  17.771  0.00  0.00    +0.000 A 
ATOM      5  N   UNL     1       4.026   3.634  17.633  0.00  0.00    +0.000 NA
ATOM      6  C   UNL     1       3.261   3.033  18.570  0.00  0.00    +0.000 A 
ATOM      7  C   UNL     1       3.061   1.553  18.462  0.00  0.00    +0.000 C 
ATOM      8  N   UNL     1       2.678   3.653  19.613  0.00  0.00    +0.000 NA
ATOM      9  H   UNL     1       1.585   5.073  21.216  0.00  0.00    +0.000 HD
ENDROOT
BRANCH   4  10
ATOM     10  N   UNL     1       5.025   5.622  16.848  0.00  0.00    +0.000 N 
ATOM     11  C   UNL     1       5.448   4.981  15.605  0.00  0.00    +0.000 C 
ATOM     12  C   UNL     1       6.975   4.885  15.514  0.00  0.00    +0.000 C 
ATOM     13  O   UNL     1       7.612   6.147  15.782  0.00  0.00    +0.000 OA
ATOM     14  C   UNL     1       7.274   6.591  17.105  0.00  0.00    +0.000 C 
ATOM     15  C   UNL     1       5.765   6.823  17.247  0.00  0.00    +0.000 C 
ENDBRANCH   4  10
BRANCH   1  17
ATOM     16  C   UNL     1       1.097   7.515  21.308  0.00  0.00    +0.000 C 
ATOM     17  N   UNL     1       1.984   6.995  20.527  0.00  0.00    +0.000 NA
BRANCH  16  21
ATOM     18  C   UNL     1      -0.396  11.488  20.836  0.00  0.00    +0.000 A 
ATOM     19  C   UNL     1      -0.575  10.773  22.027  0.00  0.00    +0.000 A 
ATOM     20  C   UNL     1      -0.055   9.489  22.175  0.00  0.00    +0.000 A 
ATOM     21  C   UNL     1       0.634   8.900  21.118  0.00  0.00    +0.000 A 
ATOM     22  C   UNL     1       0.818   9.595  19.920  0.00  0.00    +0.000 A 
ATOM     23  C   UNL     1       0.309  10.894  19.785  0.00  0.00    +0.000 A 
BRANCH  18  24
ATOM     24  O   UNL     1      -0.874  12.757  20.604  0.00  0.00    +0.000 OA
BRANCH  24  25
ATOM     25  C   UNL     1      -1.718  12.873  19.457  0.00  0.00    +0.000 C 
BRANCH  25  26
ATOM     26  C   UNL     1      -3.137  12.410  19.759  0.00  0.00    +0.000 C 
BRANCH  26  28
ATOM     27  C   UNL     1      -2.741  10.623  18.009  0.00  0.00    +0.000 C 
ATOM     28  C   UNL     1      -3.700  11.669  18.544  0.00  0.00    +0.000 C 
ENDBRANCH  26  28
ENDBRANCH  25  26
ENDBRANCH  24  25
ENDBRANCH  18  24
ENDBRANCH  16  21
ENDBRANCH   1  17
TORSDOF 7
ENDMDL
MODEL 4
REMARK VINA RESULT:      -7.5      0.435      1.073
REMARK  Name = 
REMARK  9 active torsions:
REMARK  status: ('A' for Active; 'I' for Inactive)
REMARK    1  A    between atoms: C_1  and  C_2
REMARK    2  A    between atoms: C_2  and  C_3
REMARK    3  A    between atoms: C_3  and  C_4
REMARK    4  A    between atoms: C_4  and  O_5
REMARK    5  A    between atoms: O_5  and  C_6
REMARK    6  A    between atoms: C_9  and  C_10
REMARK    7  A    between atoms: N_11  and  N_12
REMARK    8  A    between atoms: C_15  and  N_16
REMARK    9  A    between atoms: C_23  and  C_24
REMARK                            x       y       z     vdW  Elec       q    Type
REMARK                         _______ _______ _______ _____ _____    ______ ____
ROOT
ATOM      1  N   UNL     1       3.255   7.743  17.647  0.00  0.00    +0.000 N 
ATOM      2  C   UNL     1       3.771   6.434  17.530  0.00  0.00    +0.000 A 
ATOM      3  C   UNL     1       3.141   5.393  18.181  0.00  0.00    +0.000 A 
ATOM      4  C   UNL     1       3.683   4.132  18.088  0.00  0.00    +0.000 A 
ATOM      5  N   UNL     1       4.794   3.920  17.369  0.00  0.00    +0.000 NA
ATOM      6  C   UNL     1       5.329   4.979  16.724  0.00  0.00    +0.000 A 
ATOM      7  C   UNL     1       6.530   4.737  15.864  0.00  0.00    +0.000 C 
ATOM      8  N   UNL     1       4.856   6.239  16.772  0.00  0.00    +0.000 NA
ATOM      9  H   UNL     1       3.920   8.402  17.246  0.00  0.00    +0.000 HD
ENDROOT
BRANCH   4  10
ATOM     10  N   UNL     1       3.087   3.092  18.772  0.00  0.00    +0.000 N 
ATOM     11  C   UNL     1       1.664   2.800  18.612  0.00  0.00    +0.000 C 
ATOM     12  C   UNL     1       0.909   2.953  19.937  0.00  0.00    +0.000 C 
ATOM     13  O   UNL     1       1.549   2.237  21.009  0.00  0.00    +0.000 OA
ATOM     14  C   UNL     1       2.881   2.737  21.200  0.00  0.00    +0.000 C 
ATOM     15  C   UNL     1       3.743   2.518  19.951  0.00  0.00    +0.000 C 
ENDBRANCH   4  10
BRANCH   1  17
ATOM     16  C   UNL     1       1.611   8.870  18.674  0.00  0.00    +0.000 C 
ATOM     17  N   UNL     1       2.587   8.033  18.799  0.00  0.00    +0.000 NA
BRANCH  16  21
ATOM     18  C   UNL     1      -0.520  10.401  22.044  0.00  0.00    +0.000 A 
ATOM     19  C   UNL     1      -0.508  11.073  20.815  0.00  0.00    +0.000 A 
ATOM     20  C   UNL     1       0.167  10.544  19.716  0.00  0.00    +0.000 A 
ATOM     21  C   UNL     1       0.857   9.342  19.848  0.00  0.00    +0.000 A 
ATOM     22  C   UNL     1       0.862   8.659  21.067  0.00  0.00    +0.000 A 
ATOM     23  C   UNL     1       0.163   9.187  22.161  0.00  0.00    +0.000 A 
BRANCH  18  24
ATOM     24  O   UNL     1      -1.159  10.849  23.176  0.00  0.00    +0.000 OA
BRANCH  24  25
ATOM     25  C   UNL     1      -1.552  12.222  23.132  0.00  0.00    +0.000 C 
BRANCH  25  26
ATOM     26  C   UNL     1      -3.043  12.367  22.857  0.00  0.00    +0.000 C 
BRANCH  26  28
ATOM     27  C   UNL     1      -3.506  14.146  24.600  0.00  0.00    +0.000 C 
ATOM     28  C   UNL     1      -3.768  12.718  24.159  0.00  0.00    +0.000 C 
ENDBRANCH  26  28
ENDBRANCH  25  26
ENDBRANCH  24  25
ENDBRANCH  18  24
ENDBRANCH  16  21
ENDBRANCH   1  17
TORSDOF 7
ENDMDL
MODEL 5
REMARK VINA RESULT:      -7.4      2.825      4.811
REMARK  Name = 
REMARK  9 active torsions:
REMARK  status: ('A' for Active; 'I' for Inactive)
REMARK    1  A    between atoms: C_1  and  C_2
REMARK    2  A    between atoms: C_2  and  C_3
REMARK    3  A    between atoms: C_3  and  C_4
REMARK    4  A    between atoms: C_4  and  O_5
REMARK    5  A    between atoms: O_5  and  C_6
REMARK    6  A    between atoms: C_9  and  C_10
REMARK    7  A    between atoms: N_11  and  N_12
REMARK    8  A    between atoms: C_15  and  N_16
REMARK    9  A    between atoms: C_23  and  C_24
REMARK                            x       y       z     vdW  Elec       q    Type
REMARK                         _______ _______ _______ _____ _____    ______ ____
ROOT
ATOM      1  N   UNL     1       2.051   6.362  20.722  0.00  0.00    +0.000 N 
ATOM      2  C   UNL     1       2.668   5.494  19.796  0.00  0.00    +0.000 A 
ATOM      3  C   UNL     1       3.522   6.010  18.843  0.00  0.00    +0.000 A 
ATOM      4  C   UNL     1       4.081   5.152  17.923  0.00  0.00    +0.000 A 
ATOM      5  N   UNL     1       3.809   3.841  17.963  0.00  0.00    +0.000 NA
ATOM      6  C   UNL     1       3.000   3.403  18.952  0.00  0.00    +0.000 A 
ATOM      7  C   UNL     1       2.746   1.931  19.044  0.00  0.00    +0.000 C 
ATOM      8  N   UNL     1       2.416   4.182  19.881  0.00  0.00    +0.000 NA
ATOM      9  H   UNL     1       1.340   5.848  21.240  0.00  0.00    +0.000 HD
ENDROOT
BRANCH   4  10
ATOM     10  N   UNL     1       4.900   5.665  16.938  0.00  0.00    +0.000 N 
ATOM     11  C   UNL     1       5.302   4.852  15.792  0.00  0.00    +0.000 C 
ATOM     12  C   UNL     1       6.822   4.665  15.742  0.00  0.00    +0.000 C 
ATOM     13  O   UNL     1       7.524   5.916  15.863  0.00  0.00    +0.000 OA
ATOM     14  C   UNL     1       7.195   6.539  17.114  0.00  0.00    +0.000 C 
ATOM     15  C   UNL     1       5.699   6.866  17.199  0.00  0.00    +0.000 C 
ENDBRANCH   4  10
BRANCH   1  17
ATOM     16  C   UNL     1       0.939   8.292  20.975  0.00  0.00    +0.000 C 
ATOM     17  N   UNL     1       1.828   7.640  20.303  0.00  0.00    +0.000 NA
BRANCH  16  21
ATOM     18  C   UNL     1      -0.132  12.224  19.697  0.00  0.00    +0.000 A 
ATOM     19  C   UNL     1       0.009  11.169  18.787  0.00  0.00    +0.000 A 
ATOM     20  C   UNL     1       0.329   9.885  19.225  0.00  0.00    +0.000 A 
ATOM     21  C   UNL     1       0.532   9.652  20.581  0.00  0.00    +0.000 A 
ATOM     22  C   UNL     1       0.401  10.693  21.505  0.00  0.00    +0.000 A 
ATOM     23  C   UNL     1       0.059  11.977  21.059  0.00  0.00    +0.000 A 
BRANCH  18  24
ATOM     24  O   UNL     1      -0.446  13.518  19.354  0.00  0.00    +0.000 OA
BRANCH  24  25
ATOM     25  C   UNL     1       0.317  14.515  20.038  0.00  0.00    +0.000 C 
BRANCH  25  26
ATOM     26  C   UNL     1       1.328  15.177  19.111  0.00  0.00    +0.000 C 
BRANCH  26  28
ATOM     27  C   UNL     1       2.987  13.453  18.281  0.00  0.00    +0.000 C 
ATOM     28  C   UNL     1       2.701  14.530  19.310  0.00  0.00    +0.000 C 
ENDBRANCH  26  28
ENDBRANCH  25  26
ENDBRANCH  24  25
ENDBRANCH  18  24
ENDBRANCH  16  21
ENDBRANCH   1  17
TORSDOF 7
ENDMDL
MODEL 6
REMARK VINA RESULT:      -7.4      3.168      4.800
REMARK  Name = 
REMARK  9 active torsions:
REMARK  status: ('A' for Active; 'I' for Inactive)
REMARK    1  A    between atoms: C_1  and  C_2
REMARK    2  A    between atoms: C_2  and  C_3
REMARK    3  A    between atoms: C_3  and  C_4
REMARK    4  A    between atoms: C_4  and  O_5
REMARK    5  A    between atoms: O_5  and  C_6
REMARK    6  A    between atoms: C_9  and  C_10
REMARK    7  A    between atoms: N_11  and  N_12
REMARK    8  A    between atoms: C_15  and  N_16
REMARK    9  A    between atoms: C_23  and  C_24
REMARK                            x       y       z     vdW  Elec       q    Type
REMARK                         _______ _______ _______ _____ _____    ______ ____
ROOT
ATOM      1  N   UNL     1       2.016   6.392  20.670  0.00  0.00    +0.000 N 
ATOM      2  C   UNL     1       2.549   5.511  19.705  0.00  0.00    +0.000 A 
ATOM      3  C   UNL     1       3.456   5.982  18.779  0.00  0.00    +0.000 A 
ATOM      4  C   UNL     1       3.934   5.117  17.821  0.00  0.00    +0.000 A 
ATOM      5  N   UNL     1       3.531   3.839  17.798  0.00  0.00    +0.000 NA
ATOM      6  C   UNL     1       2.676   3.438  18.764  0.00  0.00    +0.000 A 
ATOM      7  C   UNL     1       2.277   1.996  18.786  0.00  0.00    +0.000 C 
ATOM      8  N   UNL     1       2.167   4.228  19.729  0.00  0.00    +0.000 NA
ATOM      9  H   UNL     1       1.254   5.928  21.162  0.00  0.00    +0.000 HD
ENDROOT
BRANCH   4  10
ATOM     10  N   UNL     1       4.805   5.590  16.862  0.00  0.00    +0.000 N 
ATOM     11  C   UNL     1       5.325   4.713  15.815  0.00  0.00    +0.000 C 
ATOM     12  C   UNL     1       6.851   4.590  15.893  0.00  0.00    +0.000 C 
ATOM     13  O   UNL     1       7.493   5.876  15.968  0.00  0.00    +0.000 OA
ATOM     14  C   UNL     1       7.045   6.575  17.139  0.00  0.00    +0.000 C 
ATOM     15  C   UNL     1       5.535   6.841  17.087  0.00  0.00    +0.000 C 
ENDBRANCH   4  10
BRANCH   1  17
ATOM     16  C   UNL     1       1.001   8.376  20.915  0.00  0.00    +0.000 C 
ATOM     17  N   UNL     1       1.924   7.704  20.311  0.00  0.00    +0.000 NA
BRANCH  16  21
ATOM     18  C   UNL     1       0.363  12.452  19.809  0.00  0.00    +0.000 A 
ATOM     19  C   UNL     1       0.839  11.507  18.890  0.00  0.00    +0.000 A 
ATOM     20  C   UNL     1       1.012  10.175  19.260  0.00  0.00    +0.000 A 
ATOM     21  C   UNL     1       0.730   9.781  20.564  0.00  0.00    +0.000 A 
ATOM     22  C   UNL     1       0.259  10.709  21.497  0.00  0.00    +0.000 A 
ATOM     23  C   UNL     1       0.067  12.043  21.112  0.00  0.00    +0.000 A 
BRANCH  18  24
ATOM     24  O   UNL     1       0.162  13.783  19.531  0.00  0.00    +0.000 OA
BRANCH  24  25
ATOM     25  C   UNL     1       1.226  14.406  18.807  0.00  0.00    +0.000 C 
BRANCH  25  26
ATOM     26  C   UNL     1       1.099  15.924  18.825  0.00  0.00    +0.000 C 
BRANCH  26  28
ATOM     27  C   UNL     1      -0.539  17.474  17.673  0.00  0.00    +0.000 C 
ATOM     28  C   UNL     1      -0.370  16.314  18.634  0.00  0.00    +0.000 C 
ENDBRANCH  26  28
ENDBRANCH  25  26
ENDBRANCH  24  25
ENDBRANCH  18  24
ENDBRANCH  16  21
ENDBRANCH   1  17
TORSDOF 7
ENDMDL
MODEL 7
REMARK VINA RESULT:      -7.4      2.301      3.894
REMARK  Name = 
REMARK  9 active torsions:
REMARK  status: ('A' for Active; 'I' for Inactive)
REMARK    1  A    between atoms: C_1  and  C_2
REMARK    2  A    between atoms: C_2  and  C_3
REMARK    3  A    between atoms: C_3  and  C_4
REMARK    4  A    between atoms: C_4  and  O_5
REMARK    5  A    between atoms: O_5  and  C_6
REMARK    6  A    between atoms: C_9  and  C_10
REMARK    7  A    between atoms: N_11  and  N_12
REMARK    8  A    between atoms: C_15  and  N_16
REMARK    9  A    between atoms: C_23  and  C_24
REMARK                            x       y       z     vdW  Elec       q    Type
REMARK                         _______ _______ _______ _____ _____    ______ ____
ROOT
ATOM      1  N   UNL     1       2.149   5.623  20.720  0.00  0.00    +0.000 N 
ATOM      2  C   UNL     1       2.835   4.921  19.706  0.00  0.00    +0.000 A 
ATOM      3  C   UNL     1       3.631   5.613  18.817  0.00  0.00    +0.000 A 
ATOM      4  C   UNL     1       4.258   4.915  17.810  0.00  0.00    +0.000 A 
ATOM      5  N   UNL     1       4.105   3.588  17.704  0.00  0.00    +0.000 NA
ATOM      6  C   UNL     1       3.346   2.973  18.637  0.00  0.00    +0.000 A 
ATOM      7  C   UNL     1       3.226   1.483  18.567  0.00  0.00    +0.000 C 
ATOM      8  N   UNL     1       2.702   3.590  19.646  0.00  0.00    +0.000 NA
ATOM      9  H   UNL     1       1.492   4.994  21.177  0.00  0.00    +0.000 HD
ENDROOT
BRANCH   4  10
ATOM     10  N   UNL     1       5.020   5.603  16.888  0.00  0.00    +0.000 N 
ATOM     11  C   UNL     1       5.422   4.984  15.627  0.00  0.00    +0.000 C 
ATOM     12  C   UNL     1       6.948   4.884  15.514  0.00  0.00    +0.000 C 
ATOM     13  O   UNL     1       7.593   6.139  15.795  0.00  0.00    +0.000 OA
ATOM     14  C   UNL     1       7.276   6.560  17.131  0.00  0.00    +0.000 C 
ATOM     15  C   UNL     1       5.769   6.795  17.299  0.00  0.00    +0.000 C 
ENDBRANCH   4  10
BRANCH   1  17
ATOM     16  C   UNL     1       1.154   7.522  21.376  0.00  0.00    +0.000 C 
ATOM     17  N   UNL     1       1.809   6.914  20.444  0.00  0.00    +0.000 NA
BRANCH  16  21
ATOM     18  C   UNL     1      -0.173  11.529  20.723  0.00  0.00    +0.000 A 
ATOM     19  C   UNL     1       0.452  10.788  19.711  0.00  0.00    +0.000 A 
ATOM     20  C   UNL     1       0.852   9.471  19.933  0.00  0.00    +0.000 A 
ATOM     21  C   UNL     1       0.646   8.891  21.180  0.00  0.00    +0.000 A 
ATOM     22  C   UNL     1       0.028   9.615  22.204  0.00  0.00    +0.000 A 
ATOM     23  C   UNL     1      -0.389  10.932  21.968  0.00  0.00    +0.000 A 
BRANCH  18  24
ATOM     24  O   UNL     1      -0.599  12.830  20.592  0.00  0.00    +0.000 OA
BRANCH  24  25
ATOM     25  C   UNL     1      -1.647  13.204  21.490  0.00  0.00    +0.000 C 
BRANCH  25  26
ATOM     26  C   UNL     1      -3.011  13.134  20.815  0.00  0.00    +0.000 C 
BRANCH  26  28
ATOM     27  C   UNL     1      -3.504  12.510  23.220  0.00  0.00    +0.000 C 
ATOM     28  C   UNL     1      -4.090  12.895  21.875  0.00  0.00    +0.000 C 
ENDBRANCH  26  28
ENDBRANCH  25  26
ENDBRANCH  24  25
ENDBRANCH  18  24
ENDBRANCH  16  21
ENDBRANCH   1  17
TORSDOF 7
ENDMDL
MODEL 8
REMARK VINA RESULT:      -7.3      2.354      3.892
REMARK  Name = 
REMARK  9 active torsions:
REMARK  status: ('A' for Active; 'I' for Inactive)
REMARK    1  A    between atoms: C_1  and  C_2
REMARK    2  A    between atoms: C_2  and  C_3
REMARK    3  A    between atoms: C_3  and  C_4
REMARK    4  A    between atoms: C_4  and  O_5
REMARK    5  A    between atoms: O_5  and  C_6
REMARK    6  A    between atoms: C_9  and  C_10
REMARK    7  A    between atoms: N_11  and  N_12
REMARK    8  A    between atoms: C_15  and  N_16
REMARK    9  A    between atoms: C_23  and  C_24
REMARK                            x       y       z     vdW  Elec       q    Type
REMARK                         _______ _______ _______ _____ _____    ______ ____
ROOT
ATOM      1  N   UNL     1       2.137   5.859  20.704  0.00  0.00    +0.000 N 
ATOM      2  C   UNL     1       2.788   5.119  19.693  0.00  0.00    +0.000 A 
ATOM      3  C   UNL     1       3.608   5.768  18.794  0.00  0.00    +0.000 A 
ATOM      4  C   UNL     1       4.201   5.036  17.792  0.00  0.00    +0.000 A 
ATOM      5  N   UNL     1       3.993   3.715  17.700  0.00  0.00    +0.000 NA
ATOM      6  C   UNL     1       3.213   3.141  18.642  0.00  0.00    +0.000 A 
ATOM      7  C   UNL     1       3.032   1.657  18.587  0.00  0.00    +0.000 C 
ATOM      8  N   UNL     1       2.600   3.795  19.648  0.00  0.00    +0.000 NA
ATOM      9  H   UNL     1       1.456   5.262  21.170  0.00  0.00    +0.000 HD
ENDROOT
BRANCH   4  10
ATOM     10  N   UNL     1       4.986   5.683  16.860  0.00  0.00    +0.000 N 
ATOM     11  C   UNL     1       5.379   5.025  15.615  0.00  0.00    +0.000 C 
ATOM     12  C   UNL     1       6.901   4.882  15.512  0.00  0.00    +0.000 C 
ATOM     13  O   UNL     1       7.580   6.124  15.771  0.00  0.00    +0.000 OA
ATOM     14  C   UNL     1       7.267   6.582  17.095  0.00  0.00    +0.000 C 
ATOM     15  C   UNL     1       5.766   6.862  17.249  0.00  0.00    +0.000 C 
ENDBRANCH   4  10
BRANCH   1  17
ATOM     16  C   UNL     1       1.108   7.765  21.283  0.00  0.00    +0.000 C 
ATOM     17  N   UNL     1       1.850   7.160  20.416  0.00  0.00    +0.000 NA
BRANCH  16  21
ATOM     18  C   UNL     1      -0.371  11.734  20.735  0.00  0.00    +0.000 A 
ATOM     19  C   UNL     1      -0.400  11.105  21.986  0.00  0.00    +0.000 A 
ATOM     20  C   UNL     1       0.115   9.821  22.154  0.00  0.00    +0.000 A 
ATOM     21  C   UNL     1       0.646   9.146  21.059  0.00  0.00    +0.000 A 
ATOM     22  C   UNL     1       0.679   9.753  19.801  0.00  0.00    +0.000 A 
ATOM     23  C   UNL     1       0.178  11.053  19.644  0.00  0.00    +0.000 A 
BRANCH  18  24
ATOM     24  O   UNL     1      -0.855  12.996  20.480  0.00  0.00    +0.000 OA
BRANCH  24  25
ATOM     25  C   UNL     1      -2.247  13.044  20.159  0.00  0.00    +0.000 C 
BRANCH  25  26
ATOM     26  C   UNL     1      -3.055  13.682  21.282  0.00  0.00    +0.000 C 
BRANCH  26  28
ATOM     27  C   UNL     1      -4.990  13.269  22.864  0.00  0.00    +0.000 C 
ATOM     28  C   UNL     1      -4.071  12.669  21.817  0.00  0.00    +0.000 C 
ENDBRANCH  26  28
ENDBRANCH  25  26
ENDBRANCH  24  25
ENDBRANCH  18  24
ENDBRANCH  16  21
ENDBRANCH   1  17
TORSDOF 7
ENDMDL
MODEL 9
REMARK VINA RESULT:      -7.3      3.224     10.193
REMARK  Name = 
REMARK  9 active torsions:
REMARK  status: ('A' for Active; 'I' for Inactive)
REMARK    1  A    between atoms: C_1  and  C_2
REMARK    2  A    between atoms: C_2  and  C_3
REMARK    3  A    between atoms: C_3  and  C_4
REMARK    4  A    between atoms: C_4  and  O_5
REMARK    5  A    between atoms: O_5  and  C_6
REMARK    6  A    between atoms: C_9  and  C_10
REMARK    7  A    between atoms: N_11  and  N_12
REMARK    8  A    between atoms: C_15  and  N_16
REMARK    9  A    between atoms: C_23  and  C_24
REMARK                            x       y       z     vdW  Elec       q    Type
REMARK                         _______ _______ _______ _____ _____    ______ ____
ROOT
ATOM      1  N   UNL     1       1.314   7.577  20.599  0.00  0.00    +0.000 N 
ATOM      2  C   UNL     1       0.807   8.886  20.752  0.00  0.00    +0.000 A 
ATOM      3  C   UNL     1       1.042   9.827  19.771  0.00  0.00    +0.000 A 
ATOM      4  C   UNL     1       0.574  11.108  19.957  0.00  0.00    +0.000 A 
ATOM      5  N   UNL     1      -0.106  11.428  21.067  0.00  0.00    +0.000 NA
ATOM      6  C   UNL     1      -0.336  10.443  21.962  0.00  0.00    +0.000 A 
ATOM      7  C   UNL     1      -1.154  10.777  23.170  0.00  0.00    +0.000 C 
ATOM      8  N   UNL     1       0.092   9.172  21.847  0.00  0.00    +0.000 NA
ATOM      9  H   UNL     1       1.191   7.067  21.471  0.00  0.00    +0.000 HD
ENDROOT
BRANCH   4  10
ATOM     10  N   UNL     1       0.844  12.067  19.004  0.00  0.00    +0.000 N 
ATOM     11  C   UNL     1       2.177  12.197  18.419  0.00  0.00    +0.000 C 
ATOM     12  C   UNL     1       2.790  13.570  18.718  0.00  0.00    +0.000 C 
ATOM     13  O   UNL     1       1.889  14.645  18.395  0.00  0.00    +0.000 OA
ATOM     14  C   UNL     1       0.686  14.519  19.168  0.00  0.00    +0.000 C 
ATOM     15  C   UNL     1      -0.054  13.215  18.843  0.00  0.00    +0.000 C 
ENDBRANCH   4  10
BRANCH   1  17
ATOM     16  C   UNL     1       2.667   6.272  19.377  0.00  0.00    +0.000 C 
ATOM     17  N   UNL     1       2.456   7.449  19.865  0.00  0.00    +0.000 NA
BRANCH  16  21
ATOM     18  C   UNL     1       6.160   5.388  17.085  0.00  0.00    +0.000 A 
ATOM     19  C   UNL     1       5.240   6.361  16.675  0.00  0.00    +0.000 A 
ATOM     20  C   UNL     1       4.121   6.658  17.451  0.00  0.00    +0.000 A 
ATOM     21  C   UNL     1       3.904   5.965  18.638  0.00  0.00    +0.000 A 
ATOM     22  C   UNL     1       4.807   4.987  19.061  0.00  0.00    +0.000 A 
ATOM     23  C   UNL     1       5.941   4.707  18.286  0.00  0.00    +0.000 A 
BRANCH  18  24
ATOM     24  O   UNL     1       7.289   5.032  16.384  0.00  0.00    +0.000 OA
BRANCH  24  25
ATOM     25  C   UNL     1       7.109   4.957  14.968  0.00  0.00    +0.000 C 
BRANCH  25  26
ATOM     26  C   UNL     1       6.208   3.791  14.582  0.00  0.00    +0.000 C 
BRANCH  26  28
ATOM     27  C   UNL     1       6.098   3.004  12.177  0.00  0.00    +0.000 C 
ATOM     28  C   UNL     1       5.630   4.036  13.185  0.00  0.00    +0.000 C 
ENDBRANCH  26  28
ENDBRANCH  25  26
ENDBRANCH  24  25
ENDBRANCH  18  24
ENDBRANCH  16  21
ENDBRANCH   1  17
TORSDOF 7
ENDMDL
