MODEL 1
REMARK VINA RESULT:      -7.4      0.000      0.000
REMARK  Name = 
REMARK  2 active torsions:
REMARK  status: ('A' for Active; 'I' for Inactive)
REMARK    1  A    between atoms: C_1  and  C_2
REMARK    2  A    between atoms: C_11  and  C_12
REMARK                            x       y       z     vdW  Elec       q    Type
REMARK                         _______ _______ _______ _____ _____    ______ ____
ROOT
ATOM      1  C   UNL     1       7.327   6.339  17.737  0.00  0.00    +0.000 C 
ATOM      2  C   UNL     1       6.601   5.771  16.523  0.00  0.00    +0.000 C 
ATOM      3  O   UNL     1       7.553   5.758  15.436  0.00  0.00    +0.000 OA
ATOM      4  C   UNL     1       7.097   5.032  14.366  0.00  0.00    +0.000 A 
ATOM      5  C   UNL     1       7.806   5.159  13.172  0.00  0.00    +0.000 A 
ATOM      6  C   UNL     1       7.382   4.469  12.035  0.00  0.00    +0.000 A 
ATOM      7  C   UNL     1       6.251   3.653  12.094  0.00  0.00    +0.000 A 
ATOM      8  C   UNL     1       5.551   3.511  13.293  0.00  0.00    +0.000 A 
ATOM      9  C   UNL     1       5.986   4.186  14.433  0.00  0.00    +0.000 A 
ATOM     10  O   UNL     1       5.274   3.975  15.588  0.00  0.00    +0.000 OA
ATOM     11  C   UNL     1       6.049   4.358  16.735  0.00  0.00    +0.000 C 
ENDROOT
BRANCH  11  12
ATOM     12  C   UNL     1       5.160   4.274  17.970  0.00  0.00    +0.000 C 
ATOM     13  N   UNL     1       4.059   4.988  18.054  0.00  0.00    +0.000 NA
ATOM     14  C   UNL     1       3.481   4.611  19.377  0.00  0.00    +0.000 C 
ATOM     15  C   UNL     1       4.191   3.320  19.797  0.00  0.00    +0.000 C 
ATOM     16  N   UNL     1       5.399   3.427  19.023  0.00  0.00    +0.000 N 
ATOM     17  H   UNL     1       6.015   2.632  18.907  0.00  0.00    +0.000 HD
ENDBRANCH  11  12
TORSDOF 1
ENDMDL
MODEL 2
REMARK VINA RESULT:      -7.0      2.821      5.961
REMARK  Name = 
REMARK  2 active torsions:
REMARK  status: ('A' for Active; 'I' for Inactive)
REMARK    1  A    between atoms: C_1  and  C_2
REMARK    2  A    between atoms: C_11  and  C_12
REMARK                            x       y       z     vdW  Elec       q    Type
REMARK                         _______ _______ _______ _____ _____    ______ ____
ROOT
ATOM      1  C   UNL     1       5.349   4.003  16.026  0.00  0.00    +0.000 C 
ATOM      2  C   UNL     1       4.365   4.399  17.122  0.00  0.00    +0.000 C 
ATOM      3  O   UNL     1       3.399   3.330  17.222  0.00  0.00    +0.000 OA
ATOM      4  C   UNL     1       2.619   3.449  18.343  0.00  0.00    +0.000 A 
ATOM      5  C   UNL     1       1.492   2.631  18.415  0.00  0.00    +0.000 A 
ATOM      6  C   UNL     1       0.638   2.719  19.515  0.00  0.00    +0.000 A 
ATOM      7  C   UNL     1       0.913   3.624  20.543  0.00  0.00    +0.000 A 
ATOM      8  C   UNL     1       2.050   4.431  20.480  0.00  0.00    +0.000 A 
ATOM      9  C   UNL     1       2.913   4.329  19.389  0.00  0.00    +0.000 A 
ATOM     10  O   UNL     1       4.031   5.124  19.406  0.00  0.00    +0.000 OA
ATOM     11  C   UNL     1       5.018   4.628  18.488  0.00  0.00    +0.000 C 
ENDROOT
BRANCH  11  12
ATOM     12  C   UNL     1       6.159   5.634  18.412  0.00  0.00    +0.000 C 
ATOM     13  N   UNL     1       7.285   5.420  19.057  0.00  0.00    +0.000 NA
ATOM     14  C   UNL     1       8.130   6.602  18.715  0.00  0.00    +0.000 C 
ATOM     15  C   UNL     1       7.470   7.256  17.497  0.00  0.00    +0.000 C 
ATOM     16  N   UNL     1       6.125   6.768  17.641  0.00  0.00    +0.000 N 
ATOM     17  H   UNL     1       5.459   6.847  16.882  0.00  0.00    +0.000 HD
ENDBRANCH  11  12
TORSDOF 1
ENDMDL
MODEL 3
REMARK VINA RESULT:      -6.9      2.747      5.816
REMARK  Name = 
REMARK  2 active torsions:
REMARK  status: ('A' for Active; 'I' for Inactive)
REMARK    1  A    between atoms: C_1  and  C_2
REMARK    2  A    between atoms: C_11  and  C_12
REMARK                            x       y       z     vdW  Elec       q    Type
REMARK                         _______ _______ _______ _____ _____    ______ ____
ROOT
ATOM      1  C   UNL     1       5.492   3.960  15.879  0.00  0.00    +0.000 C 
ATOM      2  C   UNL     1       4.501   4.452  16.929  0.00  0.00    +0.000 C 
ATOM      3  O   UNL     1       3.560   3.378  17.150  0.00  0.00    +0.000 OA
ATOM      4  C   UNL     1       2.779   3.603  18.255  0.00  0.00    +0.000 A 
ATOM      5  C   UNL     1       1.672   2.772  18.421  0.00  0.00    +0.000 A 
ATOM      6  C   UNL     1       0.818   2.962  19.509  0.00  0.00    +0.000 A 
ATOM      7  C   UNL     1       1.074   3.980  20.429  0.00  0.00    +0.000 A 
ATOM      8  C   UNL     1       2.192   4.801  20.273  0.00  0.00    +0.000 A 
ATOM      9  C   UNL     1       3.054   4.599  19.197  0.00  0.00    +0.000 A 
ATOM     10  O   UNL     1       4.155   5.416  19.121  0.00  0.00    +0.000 OA
ATOM     11  C   UNL     1       5.150   4.844  18.259  0.00  0.00    +0.000 C 
ENDROOT
BRANCH  11  12
ATOM     12  C   UNL     1       6.268   5.862  18.068  0.00  0.00    +0.000 C 
ATOM     13  N   UNL     1       6.064   6.960  17.373  0.00  0.00    +0.000 NA
ATOM     14  C   UNL     1       7.369   7.681  17.441  0.00  0.00    +0.000 C 
ATOM     15  C   UNL     1       8.153   7.031  18.585  0.00  0.00    +0.000 C 
ATOM     16  N   UNL     1       7.510   5.746  18.641  0.00  0.00    +0.000 N 
ATOM     17  H   UNL     1       7.649   5.128  19.430  0.00  0.00    +0.000 HD
ENDBRANCH  11  12
TORSDOF 1
ENDMDL
MODEL 4
REMARK VINA RESULT:      -6.8      0.250      1.001
REMARK  Name = 
REMARK  2 active torsions:
REMARK  status: ('A' for Active; 'I' for Inactive)
REMARK    1  A    between atoms: C_1  and  C_2
REMARK    2  A    between atoms: C_11  and  C_12
REMARK                            x       y       z     vdW  Elec       q    Type
REMARK                         _______ _______ _______ _____ _____    ______ ____
ROOT
ATOM      1  C   UNL     1       7.147   6.379  17.824  0.00  0.00    +0.000 C 
ATOM      2  C   UNL     1       6.474   5.808  16.580  0.00  0.00    +0.000 C 
ATOM      3  O   UNL     1       7.479   5.763  15.544  0.00  0.00    +0.000 OA
ATOM      4  C   UNL     1       7.065   5.031  14.461  0.00  0.00    +0.000 A 
ATOM      5  C   UNL     1       7.836   5.129  13.304  0.00  0.00    +0.000 A 
ATOM      6  C   UNL     1       7.458   4.433  12.155  0.00  0.00    +0.000 A 
ATOM      7  C   UNL     1       6.310   3.638  12.166  0.00  0.00    +0.000 A 
ATOM      8  C   UNL     1       5.547   3.525  13.329  0.00  0.00    +0.000 A 
ATOM      9  C   UNL     1       5.936   4.207  14.482  0.00  0.00    +0.000 A 
ATOM     10  O   UNL     1       5.163   4.025  15.601  0.00  0.00    +0.000 OA
ATOM     11  C   UNL     1       5.885   4.408  16.781  0.00  0.00    +0.000 C 
ENDROOT
BRANCH  11  12
ATOM     12  C   UNL     1       4.933   4.357  17.970  0.00  0.00    +0.000 C 
ATOM     13  N   UNL     1       5.208   3.609  19.017  0.00  0.00    +0.000 NA
ATOM     14  C   UNL     1       4.064   3.849  19.945  0.00  0.00    +0.000 C 
ATOM     15  C   UNL     1       3.365   5.114  19.438  0.00  0.00    +0.000 C 
ATOM     16  N   UNL     1       3.790   5.110  18.064  0.00  0.00    +0.000 N 
ATOM     17  H   UNL     1       3.671   5.928  17.479  0.00  0.00    +0.000 HD
ENDBRANCH  11  12
TORSDOF 1
ENDMDL
MODEL 5
REMARK VINA RESULT:      -6.6      2.296      6.143
REMARK  Name = 
REMARK  2 active torsions:
REMARK  status: ('A' for Active; 'I' for Inactive)
REMARK    1  A    between atoms: C_1  and  C_2
REMARK    2  A    between atoms: C_11  and  C_12
REMARK                            x       y       z     vdW  Elec       q    Type
REMARK                         _______ _______ _______ _____ _____    ______ ____
ROOT
ATOM      1  C   UNL     1       4.025   7.177  17.307  0.00  0.00    +0.000 C 
ATOM      2  C   UNL     1       4.209   5.966  18.216  0.00  0.00    +0.000 C 
ATOM      3  O   UNL     1       3.088   5.955  19.127  0.00  0.00    +0.000 OA
ATOM      4  C   UNL     1       3.005   4.774  19.820  0.00  0.00    +0.000 A 
ATOM      5  C   UNL     1       2.129   4.742  20.904  0.00  0.00    +0.000 A 
ATOM      6  C   UNL     1       2.014   3.581  21.671  0.00  0.00    +0.000 A 
ATOM      7  C   UNL     1       2.773   2.454  21.351  0.00  0.00    +0.000 A 
ATOM      8  C   UNL     1       3.638   2.480  20.255  0.00  0.00    +0.000 A 
ATOM      9  C   UNL     1       3.738   3.634  19.479  0.00  0.00    +0.000 A 
ATOM     10  O   UNL     1       4.579   3.581  18.395  0.00  0.00    +0.000 OA
ATOM     11  C   UNL     1       4.271   4.632  17.466  0.00  0.00    +0.000 C 
ENDROOT
BRANCH  11  12
ATOM     12  C   UNL     1       5.335   4.642  16.375  0.00  0.00    +0.000 C 
ATOM     13  N   UNL     1       6.603   4.813  16.677  0.00  0.00    +0.000 NA
ATOM     14  C   UNL     1       7.303   4.738  15.361  0.00  0.00    +0.000 C 
ATOM     15  C   UNL     1       6.305   4.106  14.386  0.00  0.00    +0.000 C 
ATOM     16  N   UNL     1       5.067   4.415  15.048  0.00  0.00    +0.000 N 
ATOM     17  H   UNL     1       4.203   3.963  14.774  0.00  0.00    +0.000 HD
ENDBRANCH  11  12
TORSDOF 1
ENDMDL
MODEL 6
REMARK VINA RESULT:      -6.6      2.382      5.934
REMARK  Name = 
REMARK  2 active torsions:
REMARK  status: ('A' for Active; 'I' for Inactive)
REMARK    1  A    between atoms: C_1  and  C_2
REMARK    2  A    between atoms: C_11  and  C_12
REMARK                            x       y       z     vdW  Elec       q    Type
REMARK                         _______ _______ _______ _____ _____    ______ ____
ROOT
ATOM      1  C   UNL     1       6.318   5.480  18.897  0.00  0.00    +0.000 C 
ATOM      2  C   UNL     1       5.146   4.513  18.770  0.00  0.00    +0.000 C 
ATOM      3  O   UNL     1       4.307   4.720  19.928  0.00  0.00    +0.000 OA
ATOM      4  C   UNL     1       3.093   4.095  19.798  0.00  0.00    +0.000 A 
ATOM      5  C   UNL     1       2.306   4.007  20.945  0.00  0.00    +0.000 A 
ATOM      6  C   UNL     1       1.070   3.360  20.892  0.00  0.00    +0.000 A 
ATOM      7  C   UNL     1       0.623   2.804  19.691  0.00  0.00    +0.000 A 
ATOM      8  C   UNL     1       1.403   2.907  18.538  0.00  0.00    +0.000 A 
ATOM      9  C   UNL     1       2.629   3.570  18.588  0.00  0.00    +0.000 A 
ATOM     10  O   UNL     1       3.330   3.667  17.412  0.00  0.00    +0.000 OA
ATOM     11  C   UNL     1       4.317   4.707  17.497  0.00  0.00    +0.000 C 
ENDROOT
BRANCH  11  12
ATOM     12  C   UNL     1       5.181   4.660  16.243  0.00  0.00    +0.000 C 
ATOM     13  N   UNL     1       5.299   5.718  15.470  0.00  0.00    +0.000 NA
ATOM     14  C   UNL     1       6.224   5.274  14.386  0.00  0.00    +0.000 C 
ATOM     15  C   UNL     1       6.895   3.995  14.899  0.00  0.00    +0.000 C 
ATOM     16  N   UNL     1       5.926   3.569  15.872  0.00  0.00    +0.000 N 
ATOM     17  H   UNL     1       6.150   2.852  16.551  0.00  0.00    +0.000 HD
ENDBRANCH  11  12
TORSDOF 1
ENDMDL
MODEL 7
REMARK VINA RESULT:      -6.5      3.578      4.592
REMARK  Name = 
REMARK  2 active torsions:
REMARK  status: ('A' for Active; 'I' for Inactive)
REMARK    1  A    between atoms: C_1  and  C_2
REMARK    2  A    between atoms: C_11  and  C_12
REMARK                            x       y       z     vdW  Elec       q    Type
REMARK                         _______ _______ _______ _____ _____    ______ ____
ROOT
ATOM      1  C   UNL     1       1.916   5.077  17.648  0.00  0.00    +0.000 C 
ATOM      2  C   UNL     1       3.399   4.946  17.978  0.00  0.00    +0.000 C 
ATOM      3  O   UNL     1       4.065   6.068  17.360  0.00  0.00    +0.000 OA
ATOM      4  C   UNL     1       5.357   6.202  17.800  0.00  0.00    +0.000 A 
ATOM      5  C   UNL     1       6.174   7.082  17.092  0.00  0.00    +0.000 A 
ATOM      6  C   UNL     1       7.509   7.246  17.468  0.00  0.00    +0.000 A 
ATOM      7  C   UNL     1       8.022   6.532  18.552  0.00  0.00    +0.000 A 
ATOM      8  C   UNL     1       7.200   5.664  19.272  0.00  0.00    +0.000 A 
ATOM      9  C   UNL     1       5.863   5.514  18.907  0.00  0.00    +0.000 A 
ATOM     10  O   UNL     1       5.099   4.673  19.678  0.00  0.00    +0.000 OA
ATOM     11  C   UNL     1       3.701   4.935  19.479  0.00  0.00    +0.000 C 
ENDROOT
BRANCH  11  12
ATOM     12  C   UNL     1       2.899   3.869  20.215  0.00  0.00    +0.000 C 
ATOM     13  N   UNL     1       2.216   4.171  21.297  0.00  0.00    +0.000 NA
ATOM     14  C   UNL     1       1.570   2.885  21.691  0.00  0.00    +0.000 C 
ATOM     15  C   UNL     1       1.666   1.970  20.465  0.00  0.00    +0.000 C 
ATOM     16  N   UNL     1       2.779   2.572  19.781  0.00  0.00    +0.000 N 
ATOM     17  H   UNL     1       2.989   2.337  18.819  0.00  0.00    +0.000 HD
ENDBRANCH  11  12
TORSDOF 1
ENDMDL
MODEL 8
REMARK VINA RESULT:      -6.2      2.169      5.552
REMARK  Name = 
REMARK  2 active torsions:
REMARK  status: ('A' for Active; 'I' for Inactive)
REMARK    1  A    between atoms: C_1  and  C_2
REMARK    2  A    between atoms: C_11  and  C_12
REMARK                            x       y       z     vdW  Elec       q    Type
REMARK                         _______ _______ _______ _____ _____    ______ ____
ROOT
ATOM      1  C   UNL     1       7.474   5.117  18.079  0.00  0.00    +0.000 C 
ATOM      2  C   UNL     1       6.081   4.509  17.956  0.00  0.00    +0.000 C 
ATOM      3  O   UNL     1       5.351   4.894  19.142  0.00  0.00    +0.000 OA
ATOM      4  C   UNL     1       4.011   4.626  19.028  0.00  0.00    +0.000 A 
ATOM      5  C   UNL     1       3.251   4.713  20.193  0.00  0.00    +0.000 A 
ATOM      6  C   UNL     1       1.885   4.428  20.155  0.00  0.00    +0.000 A 
ATOM      7  C   UNL     1       1.282   4.058  18.952  0.00  0.00    +0.000 A 
ATOM      8  C   UNL     1       2.039   3.987  17.781  0.00  0.00    +0.000 A 
ATOM      9  C   UNL     1       3.399   4.291  17.816  0.00  0.00    +0.000 A 
ATOM     10  O   UNL     1       4.078   4.237  16.624  0.00  0.00    +0.000 OA
ATOM     11  C   UNL     1       5.312   4.967  16.713  0.00  0.00    +0.000 C 
ENDROOT
BRANCH  11  12
ATOM     12  C   UNL     1       6.106   4.733  15.434  0.00  0.00    +0.000 C 
ATOM     13  N   UNL     1       5.687   3.871  14.533  0.00  0.00    +0.000 NA
ATOM     14  C   UNL     1       6.711   3.951  13.450  0.00  0.00    +0.000 C 
ATOM     15  C   UNL     1       7.494   5.244  13.702  0.00  0.00    +0.000 C 
ATOM     16  N   UNL     1       7.244   5.426  15.107  0.00  0.00    +0.000 N 
ATOM     17  H   UNL     1       7.452   6.305  15.563  0.00  0.00    +0.000 HD
ENDBRANCH  11  12
TORSDOF 1
ENDMDL
MODEL 9
REMARK VINA RESULT:      -6.1      2.372      3.396
REMARK  Name = 
REMARK  2 active torsions:
REMARK  status: ('A' for Active; 'I' for Inactive)
REMARK    1  A    between atoms: C_1  and  C_2
REMARK    2  A    between atoms: C_11  and  C_12
REMARK                            x       y       z     vdW  Elec       q    Type
REMARK                         _______ _______ _______ _____ _____    ______ ____
ROOT
ATOM      1  C   UNL     1       2.549   6.957  19.224  0.00  0.00    +0.000 C 
ATOM      2  C   UNL     1       3.022   5.936  18.195  0.00  0.00    +0.000 C 
ATOM      3  O   UNL     1       4.070   6.570  17.429  0.00  0.00    +0.000 OA
ATOM      4  C   UNL     1       4.749   5.669  16.649  0.00  0.00    +0.000 A 
ATOM      5  C   UNL     1       5.603   6.195  15.680  0.00  0.00    +0.000 A 
ATOM      6  C   UNL     1       6.305   5.337  14.832  0.00  0.00    +0.000 A 
ATOM      7  C   UNL     1       6.153   3.955  14.956  0.00  0.00    +0.000 A 
ATOM      8  C   UNL     1       5.311   3.427  15.936  0.00  0.00    +0.000 A 
ATOM      9  C   UNL     1       4.625   4.284  16.795  0.00  0.00    +0.000 A 
ATOM     10  O   UNL     1       3.842   3.701  17.760  0.00  0.00    +0.000 OA
ATOM     11  C   UNL     1       3.553   4.637  18.809  0.00  0.00    +0.000 C 
ENDROOT
BRANCH  11  12
ATOM     12  C   UNL     1       2.544   4.003  19.760  0.00  0.00    +0.000 C 
ATOM     13  N   UNL     1       1.445   3.447  19.298  0.00  0.00    +0.000 NA
ATOM     14  C   UNL     1       0.755   2.938  20.519  0.00  0.00    +0.000 C 
ATOM     15  C   UNL     1       1.809   2.933  21.631  0.00  0.00    +0.000 C 
ATOM     16  N   UNL     1       2.731   3.910  21.116  0.00  0.00    +0.000 N 
ATOM     17  H   UNL     1       3.658   4.009  21.510  0.00  0.00    +0.000 HD
ENDBRANCH  11  12
TORSDOF 1
ENDMDL
