MODEL 1
REMARK VINA RESULT:      -8.2      0.000      0.000
REMARK  Name = 
REMARK  7 active torsions:
REMARK  status: ('A' for Active; 'I' for Inactive)
REMARK    1  A    between atoms: C_1  and  O_2
REMARK    2  A    between atoms: O_2  and  C_3
REMARK    3  A    between atoms: C_3  and  C_5
REMARK    4  A    between atoms: N_13  and  C_14
REMARK    5  A    between atoms: C_14  and  C_15
REMARK    6  A    between atoms: C_15  and  C_16
REMARK    7  A    between atoms: C_16  and  N_17
REMARK                            x       y       z     vdW  Elec       q    Type
REMARK                         _______ _______ _______ _____ _____    ______ ____
ROOT
ATOM      1  C   UNL     1       5.737   5.166  15.482  0.00  0.00    +0.000 A 
ATOM      2  C   UNL     1       5.592   6.506  15.850  0.00  0.00    +0.000 A 
ATOM      3  C   UNL     1       4.666   6.895  16.830  0.00  0.00    +0.000 A 
ATOM      4  C   UNL     1       3.884   5.900  17.444  0.00  0.00    +0.000 A 
ATOM      5  C   UNL     1       4.019   4.552  17.091  0.00  0.00    +0.000 A 
ATOM      6  C   UNL     1       4.947   4.186  16.099  0.00  0.00    +0.000 A 
ATOM      7  C   UNL     1       3.103   3.813  17.878  0.00  0.00    +0.000 A 
ATOM      8  C   UNL     1       2.414   4.707  18.673  0.00  0.00    +0.000 A 
ATOM      9  N   UNL     1       2.906   5.968  18.427  0.00  0.00    +0.000 N 
ATOM     10  C   UNL     1       1.342   4.332  19.647  0.00  0.00    +0.000 C 
ATOM     11  C   UNL     1       0.863   2.891  19.380  0.00  0.00    +0.000 C 
ATOM     12  C   UNL     1       2.035   1.929  19.119  0.00  0.00    +0.000 C 
ATOM     13  C   UNL     1       2.836   2.345  17.876  0.00  0.00    +0.000 C 
ENDROOT
BRANCH   1  14
ATOM     14  C   UNL     1       6.695   4.707  14.441  0.00  0.00    +0.000 C 
ATOM     15  O   UNL     1       7.736   5.291  14.173  0.00  0.00    +0.000 OA
BRANCH  14  17
ATOM     16  C   UNL     1       6.436   3.568  12.422  0.00  0.00    +0.000 C 
ATOM     17  O   UNL     1       6.250   3.575  13.838  0.00  0.00    +0.000 OA
ENDBRANCH  14  17
ENDBRANCH   1  14
BRANCH   9  18
ATOM     18  C   UNL     1       2.436   7.191  19.061  0.00  0.00    +0.000 C 
BRANCH  18  19
ATOM     19  C   UNL     1       1.604   8.092  18.149  0.00  0.00    +0.000 C 
BRANCH  19  20
ATOM     20  C   UNL     1       2.104   9.535  18.090  0.00  0.00    +0.000 C 
BRANCH  20  21
ATOM     21  N   UNL     1       1.194  10.440  18.766  0.00  0.00    +0.000 N 
ATOM     22  C   UNL     1       0.077  10.096  19.475  0.00  0.00    +0.000 A 
ATOM     23  C   UNL     1      -0.425  11.289  19.941  0.00  0.00    +0.000 A 
ATOM     24  N   UNL     1       0.350  12.340  19.525  0.00  0.00    +0.000 NA
ATOM     25  C   UNL     1       1.314  11.800  18.813  0.00  0.00    +0.000 A 
ENDBRANCH  20  21
ENDBRANCH  19  20
ENDBRANCH  18  19
ENDBRANCH   9  18
TORSDOF 6
ENDMDL
MODEL 2
REMARK VINA RESULT:      -8.1      2.006      2.300
REMARK  Name = 
REMARK  7 active torsions:
REMARK  status: ('A' for Active; 'I' for Inactive)
REMARK    1  A    between atoms: C_1  and  O_2
REMARK    2  A    between atoms: O_2  and  C_3
REMARK    3  A    between atoms: C_3  and  C_5
REMARK    4  A    between atoms: N_13  and  C_14
REMARK    5  A    between atoms: C_14  and  C_15
REMARK    6  A    between atoms: C_15  and  C_16
REMARK    7  A    between atoms: C_16  and  N_17
REMARK                            x       y       z     vdW  Elec       q    Type
REMARK                         _______ _______ _______ _____ _____    ______ ____
ROOT
ATOM      1  C   UNL     1       6.047   5.333  17.043  0.00  0.00    +0.000 A 
ATOM      2  C   UNL     1       5.469   6.580  16.792  0.00  0.00    +0.000 A 
ATOM      3  C   UNL     1       4.271   6.965  17.415  0.00  0.00    +0.000 A 
ATOM      4  C   UNL     1       3.663   6.065  18.308  0.00  0.00    +0.000 A 
ATOM      5  C   UNL     1       4.230   4.813  18.574  0.00  0.00    +0.000 A 
ATOM      6  C   UNL     1       5.427   4.444  17.931  0.00  0.00    +0.000 A 
ATOM      7  C   UNL     1       3.388   4.153  19.501  0.00  0.00    +0.000 A 
ATOM      8  C   UNL     1       2.320   4.986  19.767  0.00  0.00    +0.000 A 
ATOM      9  N   UNL     1       2.502   6.155  19.063  0.00  0.00    +0.000 N 
ATOM     10  C   UNL     1       1.192   4.658  20.692  0.00  0.00    +0.000 C 
ATOM     11  C   UNL     1       1.190   3.149  21.012  0.00  0.00    +0.000 C 
ATOM     12  C   UNL     1       2.603   2.616  21.304  0.00  0.00    +0.000 C 
ATOM     13  C   UNL     1       3.531   2.790  20.092  0.00  0.00    +0.000 C 
ENDROOT
BRANCH   1  14
ATOM     14  C   UNL     1       7.308   4.877  16.398  0.00  0.00    +0.000 C 
ATOM     15  O   UNL     1       8.147   4.189  16.963  0.00  0.00    +0.000 OA
BRANCH  14  17
ATOM     16  C   UNL     1       6.735   4.500  14.169  0.00  0.00    +0.000 C 
ATOM     17  O   UNL     1       7.394   5.334  15.123  0.00  0.00    +0.000 OA
ENDBRANCH  14  17
ENDBRANCH   1  14
BRANCH   9  18
ATOM     18  C   UNL     1       1.589   7.288  19.068  0.00  0.00    +0.000 C 
BRANCH  18  19
ATOM     19  C   UNL     1       1.795   8.256  20.233  0.00  0.00    +0.000 C 
BRANCH  19  20
ATOM     20  C   UNL     1       0.949   9.524  20.133  0.00  0.00    +0.000 C 
BRANCH  20  21
ATOM     21  N   UNL     1       0.368   9.878  21.414  0.00  0.00    +0.000 N 
ATOM     22  C   UNL     1      -0.602  10.814  21.640  0.00  0.00    +0.000 A 
ATOM     23  C   UNL     1      -0.834  10.761  22.994  0.00  0.00    +0.000 A 
ATOM     24  N   UNL     1      -0.024   9.831  23.592  0.00  0.00    +0.000 NA
ATOM     25  C   UNL     1       0.695   9.319  22.617  0.00  0.00    +0.000 A 
ENDBRANCH  20  21
ENDBRANCH  19  20
ENDBRANCH  18  19
ENDBRANCH   9  18
TORSDOF 6
ENDMDL
MODEL 3
REMARK VINA RESULT:      -7.9      0.798      1.052
REMARK  Name = 
REMARK  7 active torsions:
REMARK  status: ('A' for Active; 'I' for Inactive)
REMARK    1  A    between atoms: C_1  and  O_2
REMARK    2  A    between atoms: O_2  and  C_3
REMARK    3  A    between atoms: C_3  and  C_5
REMARK    4  A    between atoms: N_13  and  C_14
REMARK    5  A    between atoms: C_14  and  C_15
REMARK    6  A    between atoms: C_15  and  C_16
REMARK    7  A    between atoms: C_16  and  N_17
REMARK                            x       y       z     vdW  Elec       q    Type
REMARK                         _______ _______ _______ _____ _____    ______ ____
ROOT
ATOM      1  C   UNL     1       5.572   5.116  15.530  0.00  0.00    +0.000 A 
ATOM      2  C   UNL     1       5.392   6.484  15.748  0.00  0.00    +0.000 A 
ATOM      3  C   UNL     1       4.496   6.953  16.722  0.00  0.00    +0.000 A 
ATOM      4  C   UNL     1       3.783   6.011  17.484  0.00  0.00    +0.000 A 
ATOM      5  C   UNL     1       3.955   4.636  17.282  0.00  0.00    +0.000 A 
ATOM      6  C   UNL     1       4.851   4.188  16.294  0.00  0.00    +0.000 A 
ATOM      7  C   UNL     1       3.106   3.963  18.193  0.00  0.00    +0.000 A 
ATOM      8  C   UNL     1       2.418   4.920  18.914  0.00  0.00    +0.000 A 
ATOM      9  N   UNL     1       2.849   6.160  18.500  0.00  0.00    +0.000 N 
ATOM     10  C   UNL     1       1.408   4.625  19.976  0.00  0.00    +0.000 C 
ATOM     11  C   UNL     1       0.975   3.147  19.901  0.00  0.00    +0.000 C 
ATOM     12  C   UNL     1       2.170   2.202  19.694  0.00  0.00    +0.000 C 
ATOM     13  C   UNL     1       2.898   2.496  18.373  0.00  0.00    +0.000 C 
ENDROOT
BRANCH   1  14
ATOM     14  C   UNL     1       6.500   4.572  14.502  0.00  0.00    +0.000 C 
ATOM     15  O   UNL     1       6.288   3.543  13.875  0.00  0.00    +0.000 OA
BRANCH  14  17
ATOM     16  C   UNL     1       8.098   5.434  13.038  0.00  0.00    +0.000 C 
ATOM     17  O   UNL     1       7.598   5.360  14.374  0.00  0.00    +0.000 OA
ENDBRANCH  14  17
ENDBRANCH   1  14
BRANCH   9  18
ATOM     18  C   UNL     1       2.360   7.431  19.011  0.00  0.00    +0.000 C 
BRANCH  18  19
ATOM     19  C   UNL     1       1.689   8.315  17.961  0.00  0.00    +0.000 C 
BRANCH  19  20
ATOM     20  C   UNL     1       1.877   9.811  18.207  0.00  0.00    +0.000 C 
BRANCH  20  21
ATOM     21  N   UNL     1       0.773  10.368  18.967  0.00  0.00    +0.000 N 
ATOM     22  C   UNL     1      -0.523  10.493  18.551  0.00  0.00    +0.000 A 
ATOM     23  C   UNL     1      -1.185  11.043  19.623  0.00  0.00    +0.000 A 
ATOM     24  N   UNL     1      -0.325  11.262  20.668  0.00  0.00    +0.000 NA
ATOM     25  C   UNL     1       0.850  10.853  20.241  0.00  0.00    +0.000 A 
ENDBRANCH  20  21
ENDBRANCH  19  20
ENDBRANCH  18  19
ENDBRANCH   9  18
TORSDOF 6
ENDMDL
MODEL 4
REMARK VINA RESULT:      -7.9      0.950      1.008
REMARK  Name = 
REMARK  7 active torsions:
REMARK  status: ('A' for Active; 'I' for Inactive)
REMARK    1  A    between atoms: C_1  and  O_2
REMARK    2  A    between atoms: O_2  and  C_3
REMARK    3  A    between atoms: C_3  and  C_5
REMARK    4  A    between atoms: N_13  and  C_14
REMARK    5  A    between atoms: C_14  and  C_15
REMARK    6  A    between atoms: C_15  and  C_16
REMARK    7  A    between atoms: C_16  and  N_17
REMARK                            x       y       z     vdW  Elec       q    Type
REMARK                         _______ _______ _______ _____ _____    ______ ____
ROOT
ATOM      1  C   UNL     1       5.431   5.298  15.714  0.00  0.00    +0.000 A 
ATOM      2  C   UNL     1       5.340   6.632  16.118  0.00  0.00    +0.000 A 
ATOM      3  C   UNL     1       4.478   7.021  17.155  0.00  0.00    +0.000 A 
ATOM      4  C   UNL     1       3.706   6.031  17.789  0.00  0.00    +0.000 A 
ATOM      5  C   UNL     1       3.788   4.689  17.401  0.00  0.00    +0.000 A 
ATOM      6  C   UNL     1       4.652   4.323  16.352  0.00  0.00    +0.000 A 
ATOM      7  C   UNL     1       2.898   3.954  18.221  0.00  0.00    +0.000 A 
ATOM      8  C   UNL     1       2.275   4.846  19.071  0.00  0.00    +0.000 A 
ATOM      9  N   UNL     1       2.785   6.100  18.825  0.00  0.00    +0.000 N 
ATOM     10  C   UNL     1       1.248   4.475  20.094  0.00  0.00    +0.000 C 
ATOM     11  C   UNL     1       0.720   3.052  19.823  0.00  0.00    +0.000 C 
ATOM     12  C   UNL     1       1.852   2.069  19.478  0.00  0.00    +0.000 C 
ATOM     13  C   UNL     1       2.595   2.493  18.202  0.00  0.00    +0.000 C 
ENDROOT
BRANCH   1  14
ATOM     14  C   UNL     1       6.321   4.840  14.613  0.00  0.00    +0.000 C 
ATOM     15  O   UNL     1       7.491   5.176  14.503  0.00  0.00    +0.000 OA
BRANCH  14  17
ATOM     16  C   UNL     1       6.418   3.638  12.616  0.00  0.00    +0.000 C 
ATOM     17  O   UNL     1       5.654   4.020  13.761  0.00  0.00    +0.000 OA
ENDBRANCH  14  17
ENDBRANCH   1  14
BRANCH   9  18
ATOM     18  C   UNL     1       2.380   7.319  19.509  0.00  0.00    +0.000 C 
BRANCH  18  19
ATOM     19  C   UNL     1       1.562   8.281  18.649  0.00  0.00    +0.000 C 
BRANCH  19  20
ATOM     20  C   UNL     1       1.294   9.628  19.319  0.00  0.00    +0.000 C 
BRANCH  20  21
ATOM     21  N   UNL     1       0.130  10.281  18.751  0.00  0.00    +0.000 N 
ATOM     22  C   UNL     1      -0.711   9.771  17.802  0.00  0.00    +0.000 A 
ATOM     23  C   UNL     1      -1.666  10.744  17.618  0.00  0.00    +0.000 A 
ATOM     24  N   UNL     1      -1.418  11.828  18.419  0.00  0.00    +0.000 NA
ATOM     25  C   UNL     1      -0.326  11.525  19.086  0.00  0.00    +0.000 A 
ENDBRANCH  20  21
ENDBRANCH  19  20
ENDBRANCH  18  19
ENDBRANCH   9  18
TORSDOF 6
ENDMDL
MODEL 5
REMARK VINA RESULT:      -7.8      2.137      5.586
REMARK  Name = 
REMARK  7 active torsions:
REMARK  status: ('A' for Active; 'I' for Inactive)
REMARK    1  A    between atoms: C_1  and  O_2
REMARK    2  A    between atoms: O_2  and  C_3
REMARK    3  A    between atoms: C_3  and  C_5
REMARK    4  A    between atoms: N_13  and  C_14
REMARK    5  A    between atoms: C_14  and  C_15
REMARK    6  A    between atoms: C_15  and  C_16
REMARK    7  A    between atoms: C_16  and  N_17
REMARK                            x       y       z     vdW  Elec       q    Type
REMARK                         _______ _______ _______ _____ _____    ______ ____
ROOT
ATOM      1  C   UNL     1       5.511   5.791  16.904  0.00  0.00    +0.000 A 
ATOM      2  C   UNL     1       5.459   4.761  17.847  0.00  0.00    +0.000 A 
ATOM      3  C   UNL     1       4.533   4.786  18.901  0.00  0.00    +0.000 A 
ATOM      4  C   UNL     1       3.646   5.874  18.986  0.00  0.00    +0.000 A 
ATOM      5  C   UNL     1       3.680   6.912  18.048  0.00  0.00    +0.000 A 
ATOM      6  C   UNL     1       4.624   6.872  17.005  0.00  0.00    +0.000 A 
ATOM      7  C   UNL     1       2.676   7.843  18.407  0.00  0.00    +0.000 A 
ATOM      8  C   UNL     1       2.065   7.381  19.556  0.00  0.00    +0.000 A 
ATOM      9  N   UNL     1       2.637   6.175  19.890  0.00  0.00    +0.000 N 
ATOM     10  C   UNL     1       0.954   8.081  20.271  0.00  0.00    +0.000 C 
ATOM     11  C   UNL     1       0.838   9.537  19.775  0.00  0.00    +0.000 C 
ATOM     12  C   UNL     1       0.951   9.640  18.245  0.00  0.00    +0.000 C 
ATOM     13  C   UNL     1       2.313   9.131  17.747  0.00  0.00    +0.000 C 
ENDROOT
BRANCH   1  14
ATOM     14  C   UNL     1       6.483   5.815  15.778  0.00  0.00    +0.000 C 
ATOM     15  O   UNL     1       7.652   6.153  15.899  0.00  0.00    +0.000 OA
BRANCH  14  17
ATOM     16  C   UNL     1       6.174   4.072  14.258  0.00  0.00    +0.000 C 
ATOM     17  O   UNL     1       5.892   5.425  14.619  0.00  0.00    +0.000 OA
ENDBRANCH  14  17
ENDBRANCH   1  14
BRANCH   9  18
ATOM     18  C   UNL     1       2.276   5.367  21.046  0.00  0.00    +0.000 C 
BRANCH  18  19
ATOM     19  C   UNL     1       1.176   4.341  20.777  0.00  0.00    +0.000 C 
BRANCH  19  20
ATOM     20  C   UNL     1       1.658   2.893  20.843  0.00  0.00    +0.000 C 
BRANCH  20  21
ATOM     21  N   UNL     1       2.185   2.450  19.566  0.00  0.00    +0.000 N 
ATOM     22  C   UNL     1       3.335   1.741  19.359  0.00  0.00    +0.000 A 
ATOM     23  C   UNL     1       3.385   1.539  18.000  0.00  0.00    +0.000 A 
ATOM     24  N   UNL     1       2.306   2.116  17.382  0.00  0.00    +0.000 NA
ATOM     25  C   UNL     1       1.604   2.663  18.349  0.00  0.00    +0.000 A 
ENDBRANCH  20  21
ENDBRANCH  19  20
ENDBRANCH  18  19
ENDBRANCH   9  18
TORSDOF 6
ENDMDL
MODEL 6
REMARK VINA RESULT:      -7.8      0.796      1.165
REMARK  Name = 
REMARK  7 active torsions:
REMARK  status: ('A' for Active; 'I' for Inactive)
REMARK    1  A    between atoms: C_1  and  O_2
REMARK    2  A    between atoms: O_2  and  C_3
REMARK    3  A    between atoms: C_3  and  C_5
REMARK    4  A    between atoms: N_13  and  C_14
REMARK    5  A    between atoms: C_14  and  C_15
REMARK    6  A    between atoms: C_15  and  C_16
REMARK    7  A    between atoms: C_16  and  N_17
REMARK                            x       y       z     vdW  Elec       q    Type
REMARK                         _______ _______ _______ _____ _____    ______ ____
ROOT
ATOM      1  C   UNL     1       5.499   5.323  15.840  0.00  0.00    +0.000 A 
ATOM      2  C   UNL     1       5.342   6.688  16.089  0.00  0.00    +0.000 A 
ATOM      3  C   UNL     1       4.446   7.151  17.065  0.00  0.00    +0.000 A 
ATOM      4  C   UNL     1       3.708   6.205  17.798  0.00  0.00    +0.000 A 
ATOM      5  C   UNL     1       3.856   4.832  17.565  0.00  0.00    +0.000 A 
ATOM      6  C   UNL     1       4.753   4.391  16.575  0.00  0.00    +0.000 A 
ATOM      7  C   UNL     1       2.985   4.155  18.451  0.00  0.00    +0.000 A 
ATOM      8  C   UNL     1       2.309   5.107  19.188  0.00  0.00    +0.000 A 
ATOM      9  N   UNL     1       2.767   6.348  18.808  0.00  0.00    +0.000 N 
ATOM     10  C   UNL     1       1.282   4.807  20.234  0.00  0.00    +0.000 C 
ATOM     11  C   UNL     1       0.822   3.339  20.119  0.00  0.00    +0.000 C 
ATOM     12  C   UNL     1       2.002   2.376  19.901  0.00  0.00    +0.000 C 
ATOM     13  C   UNL     1       2.748   2.688  18.594  0.00  0.00    +0.000 C 
ENDROOT
BRANCH   1  14
ATOM     14  C   UNL     1       6.427   4.785  14.808  0.00  0.00    +0.000 C 
ATOM     15  O   UNL     1       7.539   5.244  14.592  0.00  0.00    +0.000 OA
BRANCH  14  17
ATOM     16  C   UNL     1       6.247   3.654  12.776  0.00  0.00    +0.000 C 
ATOM     17  O   UNL     1       5.865   3.739  14.150  0.00  0.00    +0.000 OA
ENDBRANCH  14  17
ENDBRANCH   1  14
BRANCH   9  18
ATOM     18  C   UNL     1       2.297   7.616  19.345  0.00  0.00    +0.000 C 
BRANCH  18  19
ATOM     19  C   UNL     1       1.821   8.609  18.286  0.00  0.00    +0.000 C 
BRANCH  19  20
ATOM     20  C   UNL     1       0.784   9.606  18.801  0.00  0.00    +0.000 C 
BRANCH  20  21
ATOM     21  N   UNL     1       1.348  10.935  18.942  0.00  0.00    +0.000 N 
ATOM     22  C   UNL     1       2.169  11.571  18.054  0.00  0.00    +0.000 A 
ATOM     23  C   UNL     1       2.406  12.804  18.615  0.00  0.00    +0.000 A 
ATOM     24  N   UNL     1       1.762  12.924  19.819  0.00  0.00    +0.000 NA
ATOM     25  C   UNL     1       1.138  11.781  19.994  0.00  0.00    +0.000 A 
ENDBRANCH  20  21
ENDBRANCH  19  20
ENDBRANCH  18  19
ENDBRANCH   9  18
TORSDOF 6
ENDMDL
MODEL 7
REMARK VINA RESULT:      -7.8      1.492      1.719
REMARK  Name = 
REMARK  7 active torsions:
REMARK  status: ('A' for Active; 'I' for Inactive)
REMARK    1  A    between atoms: C_1  and  O_2
REMARK    2  A    between atoms: O_2  and  C_3
REMARK    3  A    between atoms: C_3  and  C_5
REMARK    4  A    between atoms: N_13  and  C_14
REMARK    5  A    between atoms: C_14  and  C_15
REMARK    6  A    between atoms: C_15  and  C_16
REMARK    7  A    between atoms: C_16  and  N_17
REMARK                            x       y       z     vdW  Elec       q    Type
REMARK                         _______ _______ _______ _____ _____    ______ ____
ROOT
ATOM      1  C   UNL     1       5.499   5.265  15.751  0.00  0.00    +0.000 A 
ATOM      2  C   UNL     1       5.438   6.581  16.216  0.00  0.00    +0.000 A 
ATOM      3  C   UNL     1       4.576   6.943  17.261  0.00  0.00    +0.000 A 
ATOM      4  C   UNL     1       3.771   5.946  17.841  0.00  0.00    +0.000 A 
ATOM      5  C   UNL     1       3.823   4.621  17.391  0.00  0.00    +0.000 A 
ATOM      6  C   UNL     1       4.688   4.282  16.335  0.00  0.00    +0.000 A 
ATOM      7  C   UNL     1       2.905   3.873  18.167  0.00  0.00    +0.000 A 
ATOM      8  C   UNL     1       2.296   4.740  19.052  0.00  0.00    +0.000 A 
ATOM      9  N   UNL     1       2.841   5.990  18.871  0.00  0.00    +0.000 N 
ATOM     10  C   UNL     1       1.249   4.349  20.046  0.00  0.00    +0.000 C 
ATOM     11  C   UNL     1       0.687   2.954  19.704  0.00  0.00    +0.000 C 
ATOM     12  C   UNL     1       1.797   1.959  19.324  0.00  0.00    +0.000 C 
ATOM     13  C   UNL     1       2.565   2.422  18.077  0.00  0.00    +0.000 C 
ENDROOT
BRANCH   1  14
ATOM     14  C   UNL     1       6.389   4.835  14.638  0.00  0.00    +0.000 C 
ATOM     15  O   UNL     1       7.524   5.260  14.475  0.00  0.00    +0.000 OA
BRANCH  14  17
ATOM     16  C   UNL     1       6.466   3.655  12.627  0.00  0.00    +0.000 C 
ATOM     17  O   UNL     1       5.765   3.930  13.841  0.00  0.00    +0.000 OA
ENDBRANCH  14  17
ENDBRANCH   1  14
BRANCH   9  18
ATOM     18  C   UNL     1       2.461   7.187  19.607  0.00  0.00    +0.000 C 
BRANCH  18  19
ATOM     19  C   UNL     1       1.507   8.112  18.854  0.00  0.00    +0.000 C 
BRANCH  19  20
ATOM     20  C   UNL     1       1.303   9.466  19.531  0.00  0.00    +0.000 C 
BRANCH  20  21
ATOM     21  N   UNL     1       0.662   9.322  20.825  0.00  0.00    +0.000 N 
ATOM     22  C   UNL     1       0.854  10.113  21.923  0.00  0.00    +0.000 A 
ATOM     23  C   UNL     1       0.011   9.598  22.880  0.00  0.00    +0.000 A 
ATOM     24  N   UNL     1      -0.673   8.514  22.394  0.00  0.00    +0.000 NA
ATOM     25  C   UNL     1      -0.256   8.367  21.156  0.00  0.00    +0.000 A 
ENDBRANCH  20  21
ENDBRANCH  19  20
ENDBRANCH  18  19
ENDBRANCH   9  18
TORSDOF 6
ENDMDL
MODEL 8
REMARK VINA RESULT:      -7.7      1.362      1.529
REMARK  Name = 
REMARK  7 active torsions:
REMARK  status: ('A' for Active; 'I' for Inactive)
REMARK    1  A    between atoms: C_1  and  O_2
REMARK    2  A    between atoms: O_2  and  C_3
REMARK    3  A    between atoms: C_3  and  C_5
REMARK    4  A    between atoms: N_13  and  C_14
REMARK    5  A    between atoms: C_14  and  C_15
REMARK    6  A    between atoms: C_15  and  C_16
REMARK    7  A    between atoms: C_16  and  N_17
REMARK                            x       y       z     vdW  Elec       q    Type
REMARK                         _______ _______ _______ _____ _____    ______ ____
ROOT
ATOM      1  C   UNL     1       6.170   5.390  16.949  0.00  0.00    +0.000 A 
ATOM      2  C   UNL     1       5.735   6.710  16.804  0.00  0.00    +0.000 A 
ATOM      3  C   UNL     1       4.606   7.183  17.489  0.00  0.00    +0.000 A 
ATOM      4  C   UNL     1       3.917   6.296  18.336  0.00  0.00    +0.000 A 
ATOM      5  C   UNL     1       4.341   4.972  18.497  0.00  0.00    +0.000 A 
ATOM      6  C   UNL     1       5.471   4.516  17.793  0.00  0.00    +0.000 A 
ATOM      7  C   UNL     1       3.449   4.347  19.402  0.00  0.00    +0.000 A 
ATOM      8  C   UNL     1       2.492   5.276  19.759  0.00  0.00    +0.000 A 
ATOM      9  N   UNL     1       2.793   6.464  19.133  0.00  0.00    +0.000 N 
ATOM     10  C   UNL     1       1.355   5.012  20.695  0.00  0.00    +0.000 C 
ATOM     11  C   UNL     1       1.185   3.495  20.909  0.00  0.00    +0.000 C 
ATOM     12  C   UNL     1       2.533   2.784  21.118  0.00  0.00    +0.000 C 
ATOM     13  C   UNL     1       3.446   2.937  19.892  0.00  0.00    +0.000 C 
ENDROOT
BRANCH   1  14
ATOM     14  C   UNL     1       7.353   4.840  16.235  0.00  0.00    +0.000 C 
ATOM     15  O   UNL     1       8.202   4.140  16.769  0.00  0.00    +0.000 OA
BRANCH  14  17
ATOM     16  C   UNL     1       6.578   4.389  14.081  0.00  0.00    +0.000 C 
ATOM     17  O   UNL     1       7.358   5.229  14.934  0.00  0.00    +0.000 OA
ENDBRANCH  14  17
ENDBRANCH   1  14
BRANCH   9  18
ATOM     18  C   UNL     1       2.019   7.691  19.245  0.00  0.00    +0.000 C 
BRANCH  18  19
ATOM     19  C   UNL     1       1.774   8.404  17.916  0.00  0.00    +0.000 C 
BRANCH  19  20
ATOM     20  C   UNL     1       1.846   9.927  18.015  0.00  0.00    +0.000 C 
BRANCH  20  21
ATOM     21  N   UNL     1       0.736  10.462  18.781  0.00  0.00    +0.000 N 
ATOM     22  C   UNL     1      -0.575  10.507  18.396  0.00  0.00    +0.000 A 
ATOM     23  C   UNL     1      -1.235  11.071  19.463  0.00  0.00    +0.000 A 
ATOM     24  N   UNL     1      -0.360  11.378  20.472  0.00  0.00    +0.000 NA
ATOM     25  C   UNL     1       0.822  11.007  20.030  0.00  0.00    +0.000 A 
ENDBRANCH  20  21
ENDBRANCH  19  20
ENDBRANCH  18  19
ENDBRANCH   9  18
TORSDOF 6
ENDMDL
MODEL 9
REMARK VINA RESULT:      -7.7      1.769      2.048
REMARK  Name = 
REMARK  7 active torsions:
REMARK  status: ('A' for Active; 'I' for Inactive)
REMARK    1  A    between atoms: C_1  and  O_2
REMARK    2  A    between atoms: O_2  and  C_3
REMARK    3  A    between atoms: C_3  and  C_5
REMARK    4  A    between atoms: N_13  and  C_14
REMARK    5  A    between atoms: C_14  and  C_15
REMARK    6  A    between atoms: C_15  and  C_16
REMARK    7  A    between atoms: C_16  and  N_17
REMARK                            x       y       z     vdW  Elec       q    Type
REMARK                         _______ _______ _______ _____ _____    ______ ____
ROOT
ATOM      1  C   UNL     1       5.560   5.375  16.287  0.00  0.00    +0.000 A 
ATOM      2  C   UNL     1       5.174   6.718  16.299  0.00  0.00    +0.000 A 
ATOM      3  C   UNL     1       4.184   7.182  17.178  0.00  0.00    +0.000 A 
ATOM      4  C   UNL     1       3.587   6.263  18.059  0.00  0.00    +0.000 A 
ATOM      5  C   UNL     1       3.964   4.915  18.065  0.00  0.00    +0.000 A 
ATOM      6  C   UNL     1       4.953   4.469  17.168  0.00  0.00    +0.000 A 
ATOM      7  C   UNL     1       3.188   4.261  19.051  0.00  0.00    +0.000 A 
ATOM      8  C   UNL     1       2.342   5.197  19.611  0.00  0.00    +0.000 A 
ATOM      9  N   UNL     1       2.604   6.415  19.027  0.00  0.00    +0.000 N 
ATOM     10  C   UNL     1       1.346   4.910  20.690  0.00  0.00    +0.000 C 
ATOM     11  C   UNL     1       1.135   3.388  20.826  0.00  0.00    +0.000 C 
ATOM     12  C   UNL     1       2.463   2.613  20.780  0.00  0.00    +0.000 C 
ATOM     13  C   UNL     1       3.189   2.820  19.442  0.00  0.00    +0.000 C 
ENDROOT
BRANCH   1  14
ATOM     14  C   UNL     1       6.595   4.833  15.366  0.00  0.00    +0.000 C 
ATOM     15  O   UNL     1       7.668   5.382  15.155  0.00  0.00    +0.000 OA
BRANCH  14  17
ATOM     16  C   UNL     1       6.095   3.727  13.374  0.00  0.00    +0.000 C 
ATOM     17  O   UNL     1       6.179   3.672  14.799  0.00  0.00    +0.000 OA
ENDBRANCH  14  17
ENDBRANCH   1  14
BRANCH   9  18
ATOM     18  C   UNL     1       1.916   7.660  19.337  0.00  0.00    +0.000 C 
BRANCH  18  19
ATOM     19  C   UNL     1       1.671   7.888  20.828  0.00  0.00    +0.000 C 
BRANCH  19  20
ATOM     20  C   UNL     1       0.197   8.062  21.188  0.00  0.00    +0.000 C 
BRANCH  20  21
ATOM     21  N   UNL     1      -0.064   9.380  21.736  0.00  0.00    +0.000 N 
ATOM     22  C   UNL     1      -0.179  10.548  21.035  0.00  0.00    +0.000 A 
ATOM     23  C   UNL     1      -0.453  11.504  21.985  0.00  0.00    +0.000 A 
ATOM     24  N   UNL     1      -0.494  10.948  23.237  0.00  0.00    +0.000 NA
ATOM     25  C   UNL     1      -0.249   9.669  23.058  0.00  0.00    +0.000 A 
ENDBRANCH  20  21
ENDBRANCH  19  20
ENDBRANCH  18  19
ENDBRANCH   9  18
TORSDOF 6
ENDMDL
