MODEL 1
REMARK VINA RESULT:      -8.4      0.000      0.000
REMARK  Name = 
REMARK  6 active torsions:
REMARK  status: ('A' for Active; 'I' for Inactive)
REMARK    1  A    between atoms: C_1  and  C_2
REMARK    2  A    between atoms: C_7  and  C_8
REMARK    3  A    between atoms: C_8  and  C_17
REMARK    4  A    between atoms: N_9  and  N_10
REMARK    5  A    between atoms: N_10  and  C_11
REMARK    6  A    between atoms: C_17  and  C_19
REMARK                            x       y       z     vdW  Elec       q    Type
REMARK                         _______ _______ _______ _____ _____    ______ ____
ROOT
ATOM      1  C   UNL     1       5.075   4.601  17.429  0.00  0.00    +0.000 C 
ATOM      2  N   UNL     1       5.741   4.063  16.443  0.00  0.00    +0.000 NA
ENDROOT
BRANCH   1   9
ATOM      3  C   UNL     1       0.883   2.506  18.730  0.00  0.00    +0.000 C 
ATOM      4  C   UNL     1       2.364   2.625  18.950  0.00  0.00    +0.000 A 
ATOM      5  C   UNL     1       2.962   2.020  19.989  0.00  0.00    +0.000 A 
ATOM      6  C   UNL     1       4.408   2.216  20.185  0.00  0.00    +0.000 A 
ATOM      7  O   UNL     1       4.997   1.730  21.139  0.00  0.00    +0.000 OA
ATOM      8  N   UNL     1       5.003   3.010  19.255  0.00  0.00    +0.000 N 
ATOM      9  C   UNL     1       4.289   3.605  18.255  0.00  0.00    +0.000 A 
ATOM     10  N   UNL     1       3.023   3.439  18.055  0.00  0.00    +0.000 NA
ATOM     11  H   UNL     1       5.997   3.197  19.341  0.00  0.00    +0.000 HD
ENDBRANCH   1   9
BRANCH   2  12
ATOM     12  N   UNL     1       6.560   4.838  15.695  0.00  0.00    +0.000 N 
ATOM     13  H   UNL     1       7.313   5.395  16.105  0.00  0.00    +0.000 HD
BRANCH  12  14
ATOM     14  C   UNL     1       6.624   4.584  14.313  0.00  0.00    +0.000 A 
ATOM     15  C   UNL     1       5.815   3.614  13.704  0.00  0.00    +0.000 A 
ATOM     16  C   UNL     1       5.942   3.318  12.343  0.00  0.00    +0.000 A 
ATOM     17  C   UNL     1       6.901   3.975  11.577  0.00  0.00    +0.000 A 
ATOM     18  C   UNL     1       7.724   4.931  12.170  0.00  0.00    +0.000 A 
ATOM     19  C   UNL     1       7.581   5.237  13.527  0.00  0.00    +0.000 A 
ENDBRANCH  12  14
ENDBRANCH   2  12
BRANCH   1  20
ATOM     20  C   UNL     1       5.164   6.070  17.814  0.00  0.00    +0.000 C 
ATOM     21  O   UNL     1       6.265   6.612  17.853  0.00  0.00    +0.000 OA
BRANCH  20  22
ATOM     22  C   UNL     1       3.946   6.826  18.213  0.00  0.00    +0.000 A 
ATOM     23  C   UNL     1       3.281   6.579  19.422  0.00  0.00    +0.000 A 
ATOM     24  C   UNL     1       2.168   7.343  19.783  0.00  0.00    +0.000 A 
ATOM     25  C   UNL     1       1.733   8.376  18.955  0.00  0.00    +0.000 A 
ATOM     26 CL   UNL     1       0.411   9.359  19.444  0.00  0.00    +0.000 Cl
ATOM     27  C   UNL     1       2.384   8.630  17.748  0.00  0.00    +0.000 A 
ATOM     28  C   UNL     1       3.485   7.852  17.374  0.00  0.00    +0.000 A 
ENDBRANCH  20  22
ENDBRANCH   1  20
TORSDOF 5
ENDMDL
MODEL 2
REMARK VINA RESULT:      -8.4      2.876      6.405
REMARK  Name = 
REMARK  6 active torsions:
REMARK  status: ('A' for Active; 'I' for Inactive)
REMARK    1  A    between atoms: C_1  and  C_2
REMARK    2  A    between atoms: C_7  and  C_8
REMARK    3  A    between atoms: C_8  and  C_17
REMARK    4  A    between atoms: N_9  and  N_10
REMARK    5  A    between atoms: N_10  and  C_11
REMARK    6  A    between atoms: C_17  and  C_19
REMARK                            x       y       z     vdW  Elec       q    Type
REMARK                         _______ _______ _______ _____ _____    ______ ____
ROOT
ATOM      1  C   UNL     1       5.734   4.898  16.256  0.00  0.00    +0.000 C 
ATOM      2  N   UNL     1       4.438   4.997  16.389  0.00  0.00    +0.000 NA
ENDROOT
BRANCH   1   9
ATOM      3  C   UNL     1       5.533   2.742  11.900  0.00  0.00    +0.000 C 
ATOM      4  C   UNL     1       6.195   3.762  12.782  0.00  0.00    +0.000 A 
ATOM      5  C   UNL     1       7.306   4.403  12.387  0.00  0.00    +0.000 A 
ATOM      6  C   UNL     1       7.942   5.354  13.315  0.00  0.00    +0.000 A 
ATOM      7  O   UNL     1       8.981   5.930  13.031  0.00  0.00    +0.000 OA
ATOM      8  N   UNL     1       7.307   5.491  14.510  0.00  0.00    +0.000 N 
ATOM      9  C   UNL     1       6.196   4.759  14.821  0.00  0.00    +0.000 A 
ATOM     10  N   UNL     1       5.613   3.928  14.020  0.00  0.00    +0.000 NA
ATOM     11  H   UNL     1       7.701   6.120  15.200  0.00  0.00    +0.000 HD
ENDBRANCH   1   9
BRANCH   2  12
ATOM     12  N   UNL     1       3.913   5.225  17.614  0.00  0.00    +0.000 N 
ATOM     13  H   UNL     1       3.811   6.167  17.999  0.00  0.00    +0.000 HD
BRANCH  12  14
ATOM     14  C   UNL     1       3.152   4.200  18.204  0.00  0.00    +0.000 A 
ATOM     15  C   UNL     1       1.817   3.971  17.840  0.00  0.00    +0.000 A 
ATOM     16  C   UNL     1       1.048   2.999  18.487  0.00  0.00    +0.000 A 
ATOM     17  C   UNL     1       1.601   2.256  19.528  0.00  0.00    +0.000 A 
ATOM     18  C   UNL     1       2.922   2.481  19.911  0.00  0.00    +0.000 A 
ATOM     19  C   UNL     1       3.692   3.443  19.249  0.00  0.00    +0.000 A 
ENDBRANCH  12  14
ENDBRANCH   2  12
BRANCH   1  20
ATOM     20  C   UNL     1       6.720   5.036  17.406  0.00  0.00    +0.000 C 
ATOM     21  O   UNL     1       7.020   4.041  18.058  0.00  0.00    +0.000 OA
BRANCH  20  22
ATOM     22  C   UNL     1       7.259   6.370  17.788  0.00  0.00    +0.000 A 
ATOM     23  C   UNL     1       8.160   6.531  18.849  0.00  0.00    +0.000 A 
ATOM     24  C   UNL     1       8.682   7.793  19.146  0.00  0.00    +0.000 A 
ATOM     25  C   UNL     1       8.330   8.893  18.367  0.00  0.00    +0.000 A 
ATOM     26 CL   UNL     1       9.036  10.427  18.692  0.00  0.00    +0.000 Cl
ATOM     27  C   UNL     1       7.432   8.747  17.310  0.00  0.00    +0.000 A 
ATOM     28  C   UNL     1       6.892   7.489  17.024  0.00  0.00    +0.000 A 
ENDBRANCH  20  22
ENDBRANCH   1  20
TORSDOF 5
ENDMDL
MODEL 3
REMARK VINA RESULT:      -8.4      0.441      1.038
REMARK  Name = 
REMARK  6 active torsions:
REMARK  status: ('A' for Active; 'I' for Inactive)
REMARK    1  A    between atoms: C_1  and  C_2
REMARK    2  A    between atoms: C_7  and  C_8
REMARK    3  A    between atoms: C_8  and  C_17
REMARK    4  A    between atoms: N_9  and  N_10
REMARK    5  A    between atoms: N_10  and  C_11
REMARK    6  A    between atoms: C_17  and  C_19
REMARK                            x       y       z     vdW  Elec       q    Type
REMARK                         _______ _______ _______ _____ _____    ______ ____
ROOT
ATOM      1  C   UNL     1       4.559   4.767  17.295  0.00  0.00    +0.000 C 
ATOM      2  N   UNL     1       5.010   4.314  16.156  0.00  0.00    +0.000 NA
ENDROOT
BRANCH   1   9
ATOM      3  C   UNL     1       0.661   2.441  19.046  0.00  0.00    +0.000 C 
ATOM      4  C   UNL     1       2.153   2.614  19.071  0.00  0.00    +0.000 A 
ATOM      5  C   UNL     1       2.908   1.993  19.991  0.00  0.00    +0.000 A 
ATOM      6  C   UNL     1       4.360   2.243  20.001  0.00  0.00    +0.000 A 
ATOM      7  O   UNL     1       5.090   1.744  20.844  0.00  0.00    +0.000 OA
ATOM      8  N   UNL     1       4.794   3.100  19.038  0.00  0.00    +0.000 N 
ATOM      9  C   UNL     1       3.929   3.705  18.171  0.00  0.00    +0.000 A 
ATOM     10  N   UNL     1       2.654   3.493  18.135  0.00  0.00    +0.000 NA
ATOM     11  H   UNL     1       5.782   3.325  18.999  0.00  0.00    +0.000 HD
ENDBRANCH   1   9
BRANCH   2  12
ATOM     12  N   UNL     1       5.682   5.149  15.331  0.00  0.00    +0.000 N 
ATOM     13  H   UNL     1       6.093   6.027  15.657  0.00  0.00    +0.000 HD
BRANCH  12  14
ATOM     14  C   UNL     1       6.149   4.632  14.110  0.00  0.00    +0.000 A 
ATOM     15  C   UNL     1       7.304   5.132  13.491  0.00  0.00    +0.000 A 
ATOM     16  C   UNL     1       7.716   4.661  12.241  0.00  0.00    +0.000 A 
ATOM     17  C   UNL     1       6.961   3.695  11.580  0.00  0.00    +0.000 A 
ATOM     18  C   UNL     1       5.803   3.197  12.175  0.00  0.00    +0.000 A 
ATOM     19  C   UNL     1       5.404   3.659  13.433  0.00  0.00    +0.000 A 
ENDBRANCH  12  14
ENDBRANCH   2  12
BRANCH   1  20
ATOM     20  C   UNL     1       4.749   6.196  17.778  0.00  0.00    +0.000 C 
ATOM     21  O   UNL     1       5.881   6.668  17.815  0.00  0.00    +0.000 OA
BRANCH  20  22
ATOM     22  C   UNL     1       3.591   6.991  18.272  0.00  0.00    +0.000 A 
ATOM     23  C   UNL     1       3.000   6.748  19.519  0.00  0.00    +0.000 A 
ATOM     24  C   UNL     1       1.947   7.548  19.968  0.00  0.00    +0.000 A 
ATOM     25  C   UNL     1       1.499   8.612  19.189  0.00  0.00    +0.000 A 
ATOM     26 CL   UNL     1       0.253   9.637  19.783  0.00  0.00    +0.000 Cl
ATOM     27  C   UNL     1       2.076   8.864  17.944  0.00  0.00    +0.000 A 
ATOM     28  C   UNL     1       3.117   8.051  17.483  0.00  0.00    +0.000 A 
ENDBRANCH  20  22
ENDBRANCH   1  20
TORSDOF 5
ENDMDL
MODEL 4
REMARK VINA RESULT:      -8.4      2.891      6.481
REMARK  Name = 
REMARK  6 active torsions:
REMARK  status: ('A' for Active; 'I' for Inactive)
REMARK    1  A    between atoms: C_1  and  C_2
REMARK    2  A    between atoms: C_7  and  C_8
REMARK    3  A    between atoms: C_8  and  C_17
REMARK    4  A    between atoms: N_9  and  N_10
REMARK    5  A    between atoms: N_10  and  C_11
REMARK    6  A    between atoms: C_17  and  C_19
REMARK                            x       y       z     vdW  Elec       q    Type
REMARK                         _______ _______ _______ _____ _____    ______ ____
ROOT
ATOM      1  C   UNL     1       5.631   4.939  16.262  0.00  0.00    +0.000 C 
ATOM      2  N   UNL     1       4.338   5.093  16.364  0.00  0.00    +0.000 NA
ENDROOT
BRANCH   1   9
ATOM      3  C   UNL     1       5.514   2.711  11.940  0.00  0.00    +0.000 C 
ATOM      4  C   UNL     1       6.159   3.746  12.817  0.00  0.00    +0.000 A 
ATOM      5  C   UNL     1       7.277   4.381  12.433  0.00  0.00    +0.000 A 
ATOM      6  C   UNL     1       7.895   5.347  13.357  0.00  0.00    +0.000 A 
ATOM      7  O   UNL     1       8.939   5.919  13.083  0.00  0.00    +0.000 OA
ATOM      8  N   UNL     1       7.237   5.503  14.537  0.00  0.00    +0.000 N 
ATOM      9  C   UNL     1       6.121   4.777  14.839  0.00  0.00    +0.000 A 
ATOM     10  N   UNL     1       5.554   3.932  14.041  0.00  0.00    +0.000 NA
ATOM     11  H   UNL     1       7.618   6.144  15.224  0.00  0.00    +0.000 HD
ENDBRANCH   1   9
BRANCH   2  12
ATOM     12  N   UNL     1       3.794   5.347  17.576  0.00  0.00    +0.000 N 
ATOM     13  H   UNL     1       3.823   6.274  18.006  0.00  0.00    +0.000 HD
BRANCH  12  14
ATOM     14  C   UNL     1       2.852   4.432  18.078  0.00  0.00    +0.000 A 
ATOM     15  C   UNL     1       1.981   4.770  19.124  0.00  0.00    +0.000 A 
ATOM     16  C   UNL     1       1.102   3.828  19.665  0.00  0.00    +0.000 A 
ATOM     17  C   UNL     1       1.099   2.522  19.180  0.00  0.00    +0.000 A 
ATOM     18  C   UNL     1       1.968   2.165  18.150  0.00  0.00    +0.000 A 
ATOM     19  C   UNL     1       2.834   3.116  17.601  0.00  0.00    +0.000 A 
ENDBRANCH  12  14
ENDBRANCH   2  12
BRANCH   1  20
ATOM     20  C   UNL     1       6.594   5.038  17.435  0.00  0.00    +0.000 C 
ATOM     21  O   UNL     1       6.777   4.053  18.144  0.00  0.00    +0.000 OA
BRANCH  20  22
ATOM     22  C   UNL     1       7.254   6.331  17.769  0.00  0.00    +0.000 A 
ATOM     23  C   UNL     1       7.014   7.499  17.033  0.00  0.00    +0.000 A 
ATOM     24  C   UNL     1       7.614   8.704  17.408  0.00  0.00    +0.000 A 
ATOM     25  C   UNL     1       8.431   8.755  18.535  0.00  0.00    +0.000 A 
ATOM     26 CL   UNL     1       9.104  10.257  19.031  0.00  0.00    +0.000 Cl
ATOM     27  C   UNL     1       8.681   7.599  19.274  0.00  0.00    +0.000 A 
ATOM     28  C   UNL     1       8.098   6.387  18.889  0.00  0.00    +0.000 A 
ENDBRANCH  20  22
ENDBRANCH   1  20
TORSDOF 5
ENDMDL
MODEL 5
REMARK VINA RESULT:      -8.1      1.504      5.596
REMARK  Name = 
REMARK  6 active torsions:
REMARK  status: ('A' for Active; 'I' for Inactive)
REMARK    1  A    between atoms: C_1  and  C_2
REMARK    2  A    between atoms: C_7  and  C_8
REMARK    3  A    between atoms: C_8  and  C_17
REMARK    4  A    between atoms: N_9  and  N_10
REMARK    5  A    between atoms: N_10  and  C_11
REMARK    6  A    between atoms: C_17  and  C_19
REMARK                            x       y       z     vdW  Elec       q    Type
REMARK                         _______ _______ _______ _____ _____    ______ ____
ROOT
ATOM      1  C   UNL     1       5.873   4.415  16.435  0.00  0.00    +0.000 C 
ATOM      2  N   UNL     1       5.381   3.262  16.804  0.00  0.00    +0.000 NA
ENDROOT
BRANCH   1   9
ATOM      3  C   UNL     1       5.407   2.858  11.850  0.00  0.00    +0.000 C 
ATOM      4  C   UNL     1       6.103   3.776  12.814  0.00  0.00    +0.000 A 
ATOM      5  C   UNL     1       7.162   4.508  12.433  0.00  0.00    +0.000 A 
ATOM      6  C   UNL     1       7.838   5.349  13.435  0.00  0.00    +0.000 A 
ATOM      7  O   UNL     1       8.835   5.999  13.160  0.00  0.00    +0.000 OA
ATOM      8  N   UNL     1       7.291   5.298  14.680  0.00  0.00    +0.000 N 
ATOM      9  C   UNL     1       6.229   4.489  14.966  0.00  0.00    +0.000 A 
ATOM     10  N   UNL     1       5.612   3.751  14.101  0.00  0.00    +0.000 NA
ATOM     11  H   UNL     1       7.718   5.844  15.420  0.00  0.00    +0.000 HD
ENDBRANCH   1   9
BRANCH   2  12
ATOM     12  N   UNL     1       4.934   3.107  18.071  0.00  0.00    +0.000 N 
ATOM     13  H   UNL     1       5.496   3.363  18.885  0.00  0.00    +0.000 HD
BRANCH  12  14
ATOM     14  C   UNL     1       3.549   2.954  18.265  0.00  0.00    +0.000 A 
ATOM     15  C   UNL     1       2.614   3.569  17.419  0.00  0.00    +0.000 A 
ATOM     16  C   UNL     1       1.242   3.471  17.667  0.00  0.00    +0.000 A 
ATOM     17  C   UNL     1       0.786   2.773  18.783  0.00  0.00    +0.000 A 
ATOM     18  C   UNL     1       1.703   2.168  19.641  0.00  0.00    +0.000 A 
ATOM     19  C   UNL     1       3.074   2.254  19.380  0.00  0.00    +0.000 A 
ENDBRANCH  12  14
ENDBRANCH   2  12
BRANCH   1  20
ATOM     20  C   UNL     1       5.969   5.629  17.346  0.00  0.00    +0.000 C 
ATOM     21  O   UNL     1       7.073   5.996  17.738  0.00  0.00    +0.000 OA
BRANCH  20  22
ATOM     22  C   UNL     1       4.740   6.323  17.819  0.00  0.00    +0.000 A 
ATOM     23  C   UNL     1       4.172   6.055  19.072  0.00  0.00    +0.000 A 
ATOM     24  C   UNL     1       3.046   6.762  19.501  0.00  0.00    +0.000 A 
ATOM     25  C   UNL     1       2.501   7.760  18.696  0.00  0.00    +0.000 A 
ATOM     26 CL   UNL     1       1.163   8.676  19.265  0.00  0.00    +0.000 Cl
ATOM     27  C   UNL     1       3.055   8.034  17.446  0.00  0.00    +0.000 A 
ATOM     28  C   UNL     1       4.170   7.313  17.005  0.00  0.00    +0.000 A 
ENDBRANCH  20  22
ENDBRANCH   1  20
TORSDOF 5
ENDMDL
MODEL 6
REMARK VINA RESULT:      -8.1      0.485      1.065
REMARK  Name = 
REMARK  6 active torsions:
REMARK  status: ('A' for Active; 'I' for Inactive)
REMARK    1  A    between atoms: C_1  and  C_2
REMARK    2  A    between atoms: C_7  and  C_8
REMARK    3  A    between atoms: C_8  and  C_17
REMARK    4  A    between atoms: N_9  and  N_10
REMARK    5  A    between atoms: N_10  and  C_11
REMARK    6  A    between atoms: C_17  and  C_19
REMARK                            x       y       z     vdW  Elec       q    Type
REMARK                         _______ _______ _______ _____ _____    ______ ____
ROOT
ATOM      1  C   UNL     1       4.536   4.730  17.259  0.00  0.00    +0.000 C 
ATOM      2  N   UNL     1       4.877   4.309  16.071  0.00  0.00    +0.000 NA
ENDROOT
BRANCH   1   9
ATOM      3  C   UNL     1       0.669   2.344  18.998  0.00  0.00    +0.000 C 
ATOM      4  C   UNL     1       2.158   2.544  19.031  0.00  0.00    +0.000 A 
ATOM      5  C   UNL     1       2.918   1.940  19.958  0.00  0.00    +0.000 A 
ATOM      6  C   UNL     1       4.365   2.215  19.975  0.00  0.00    +0.000 A 
ATOM      7  O   UNL     1       5.099   1.733  20.824  0.00  0.00    +0.000 OA
ATOM      8  N   UNL     1       4.789   3.075  19.011  0.00  0.00    +0.000 N 
ATOM      9  C   UNL     1       3.920   3.661  18.136  0.00  0.00    +0.000 A 
ATOM     10  N   UNL     1       2.649   3.427  18.094  0.00  0.00    +0.000 NA
ATOM     11  H   UNL     1       5.774   3.318  18.977  0.00  0.00    +0.000 HD
ENDBRANCH   1   9
BRANCH   2  12
ATOM     12  N   UNL     1       5.528   5.147  15.232  0.00  0.00    +0.000 N 
ATOM     13  H   UNL     1       5.956   6.019  15.553  0.00  0.00    +0.000 HD
BRANCH  12  14
ATOM     14  C   UNL     1       5.951   4.638  13.992  0.00  0.00    +0.000 A 
ATOM     15  C   UNL     1       5.214   3.662  13.305  0.00  0.00    +0.000 A 
ATOM     16  C   UNL     1       5.684   3.110  12.110  0.00  0.00    +0.000 A 
ATOM     17  C   UNL     1       6.915   3.510  11.596  0.00  0.00    +0.000 A 
ATOM     18  C   UNL     1       7.667   4.469  12.274  0.00  0.00    +0.000 A 
ATOM     19  C   UNL     1       7.185   5.032  13.460  0.00  0.00    +0.000 A 
ENDBRANCH  12  14
ENDBRANCH   2  12
BRANCH   1  20
ATOM     20  C   UNL     1       4.834   6.126  17.785  0.00  0.00    +0.000 C 
ATOM     21  O   UNL     1       6.002   6.484  17.900  0.00  0.00    +0.000 OA
BRANCH  20  22
ATOM     22  C   UNL     1       3.731   7.023  18.227  0.00  0.00    +0.000 A 
ATOM     23  C   UNL     1       3.272   8.083  17.433  0.00  0.00    +0.000 A 
ATOM     24  C   UNL     1       2.202   8.872  17.861  0.00  0.00    +0.000 A 
ATOM     25  C   UNL     1       1.566   8.589  19.067  0.00  0.00    +0.000 A 
ATOM     26 CL   UNL     1       0.202   9.519  19.548  0.00  0.00    +0.000 Cl
ATOM     27  C   UNL     1       2.014   7.539  19.868  0.00  0.00    +0.000 A 
ATOM     28  C   UNL     1       3.099   6.760  19.452  0.00  0.00    +0.000 A 
ENDBRANCH  20  22
ENDBRANCH   1  20
TORSDOF 5
ENDMDL
MODEL 7
REMARK VINA RESULT:      -8.0      1.487      5.652
REMARK  Name = 
REMARK  6 active torsions:
REMARK  status: ('A' for Active; 'I' for Inactive)
REMARK    1  A    between atoms: C_1  and  C_2
REMARK    2  A    between atoms: C_7  and  C_8
REMARK    3  A    between atoms: C_8  and  C_17
REMARK    4  A    between atoms: N_9  and  N_10
REMARK    5  A    between atoms: N_10  and  C_11
REMARK    6  A    between atoms: C_17  and  C_19
REMARK                            x       y       z     vdW  Elec       q    Type
REMARK                         _______ _______ _______ _____ _____    ______ ____
ROOT
ATOM      1  C   UNL     1       5.617   3.913  16.704  0.00  0.00    +0.000 C 
ATOM      2  N   UNL     1       5.054   2.749  16.886  0.00  0.00    +0.000 NA
ENDROOT
BRANCH   1   9
ATOM      3  C   UNL     1       5.092   3.107  11.935  0.00  0.00    +0.000 C 
ATOM      4  C   UNL     1       5.821   3.838  13.026  0.00  0.00    +0.000 A 
ATOM      5  C   UNL     1       6.905   4.583  12.757  0.00  0.00    +0.000 A 
ATOM      6  C   UNL     1       7.611   5.234  13.873  0.00  0.00    +0.000 A 
ATOM      7  O   UNL     1       8.630   5.884  13.695  0.00  0.00    +0.000 OA
ATOM      8  N   UNL     1       7.064   5.009  15.098  0.00  0.00    +0.000 N 
ATOM      9  C   UNL     1       5.974   4.203  15.261  0.00  0.00    +0.000 A 
ATOM     10  N   UNL     1       5.331   3.630  14.297  0.00  0.00    +0.000 NA
ATOM     11  H   UNL     1       7.511   5.419  15.911  0.00  0.00    +0.000 HD
ENDBRANCH   1   9
BRANCH   2  12
ATOM     12  N   UNL     1       4.600   2.419  18.117  0.00  0.00    +0.000 N 
ATOM     13  H   UNL     1       5.228   2.259  18.908  0.00  0.00    +0.000 HD
BRANCH  12  14
ATOM     14  C   UNL     1       3.247   2.669  18.408  0.00  0.00    +0.000 A 
ATOM     15  C   UNL     1       2.399   3.298  17.485  0.00  0.00    +0.000 A 
ATOM     16  C   UNL     1       1.076   3.609  17.814  0.00  0.00    +0.000 A 
ATOM     17  C   UNL     1       0.590   3.316  19.085  0.00  0.00    +0.000 A 
ATOM     18  C   UNL     1       1.424   2.704  20.020  0.00  0.00    +0.000 A 
ATOM     19  C   UNL     1       2.741   2.379  19.680  0.00  0.00    +0.000 A 
ENDBRANCH  12  14
ENDBRANCH   2  12
BRANCH   1  20
ATOM     20  C   UNL     1       5.794   4.954  17.798  0.00  0.00    +0.000 C 
ATOM     21  O   UNL     1       6.803   4.923  18.495  0.00  0.00    +0.000 OA
BRANCH  20  22
ATOM     22  C   UNL     1       4.726   5.954  18.075  0.00  0.00    +0.000 A 
ATOM     23  C   UNL     1       4.408   6.972  17.166  0.00  0.00    +0.000 A 
ATOM     24  C   UNL     1       3.366   7.862  17.440  0.00  0.00    +0.000 A 
ATOM     25  C   UNL     1       2.617   7.720  18.606  0.00  0.00    +0.000 A 
ATOM     26 CL   UNL     1       1.289   8.772  18.897  0.00  0.00    +0.000 Cl
ATOM     27  C   UNL     1       2.925   6.713  19.520  0.00  0.00    +0.000 A 
ATOM     28  C   UNL     1       3.981   5.834  19.258  0.00  0.00    +0.000 A 
ENDBRANCH  20  22
ENDBRANCH   1  20
TORSDOF 5
ENDMDL
MODEL 8
REMARK VINA RESULT:      -8.0      1.414      5.516
REMARK  Name = 
REMARK  6 active torsions:
REMARK  status: ('A' for Active; 'I' for Inactive)
REMARK    1  A    between atoms: C_1  and  C_2
REMARK    2  A    between atoms: C_7  and  C_8
REMARK    3  A    between atoms: C_8  and  C_17
REMARK    4  A    between atoms: N_9  and  N_10
REMARK    5  A    between atoms: N_10  and  C_11
REMARK    6  A    between atoms: C_17  and  C_19
REMARK                            x       y       z     vdW  Elec       q    Type
REMARK                         _______ _______ _______ _____ _____    ______ ____
ROOT
ATOM      1  C   UNL     1       5.639   4.332  17.015  0.00  0.00    +0.000 C 
ATOM      2  N   UNL     1       5.259   3.129  17.352  0.00  0.00    +0.000 NA
ENDROOT
BRANCH   1   9
ATOM      3  C   UNL     1       4.804   3.220  12.353  0.00  0.00    +0.000 C 
ATOM      4  C   UNL     1       5.638   3.977  13.348  0.00  0.00    +0.000 A 
ATOM      5  C   UNL     1       6.752   4.624  12.970  0.00  0.00    +0.000 A 
ATOM      6  C   UNL     1       7.558   5.304  13.997  0.00  0.00    +0.000 A 
ATOM      7  O   UNL     1       8.606   5.868  13.721  0.00  0.00    +0.000 OA
ATOM      8  N   UNL     1       7.065   5.207  15.261  0.00  0.00    +0.000 N 
ATOM      9  C   UNL     1       5.935   4.491  15.539  0.00  0.00    +0.000 A 
ATOM     10  N   UNL     1       5.205   3.896  14.653  0.00  0.00    +0.000 NA
ATOM     11  H   UNL     1       7.581   5.642  16.018  0.00  0.00    +0.000 HD
ENDBRANCH   1   9
BRANCH   2  12
ATOM     12  N   UNL     1       4.871   2.889  18.626  0.00  0.00    +0.000 N 
ATOM     13  H   UNL     1       5.516   2.956  19.416  0.00  0.00    +0.000 HD
BRANCH  12  14
ATOM     14  C   UNL     1       3.495   2.922  18.911  0.00  0.00    +0.000 A 
ATOM     15  C   UNL     1       3.007   2.738  20.213  0.00  0.00    +0.000 A 
ATOM     16  C   UNL     1       1.634   2.698  20.471  0.00  0.00    +0.000 A 
ATOM     17  C   UNL     1       0.726   2.818  19.422  0.00  0.00    +0.000 A 
ATOM     18  C   UNL     1       1.194   2.988  18.120  0.00  0.00    +0.000 A 
ATOM     19  C   UNL     1       2.569   3.045  17.868  0.00  0.00    +0.000 A 
ENDBRANCH  12  14
ENDBRANCH   2  12
BRANCH   1  20
ATOM     20  C   UNL     1       5.666   5.515  17.970  0.00  0.00    +0.000 C 
ATOM     21  O   UNL     1       6.687   5.741  18.612  0.00  0.00    +0.000 OA
BRANCH  20  22
ATOM     22  C   UNL     1       4.450   6.346  18.184  0.00  0.00    +0.000 A 
ATOM     23  C   UNL     1       3.641   6.201  19.319  0.00  0.00    +0.000 A 
ATOM     24  C   UNL     1       2.535   7.034  19.508  0.00  0.00    +0.000 A 
ATOM     25  C   UNL     1       2.250   8.034  18.581  0.00  0.00    +0.000 A 
ATOM     26 CL   UNL     1       0.932   9.102  18.861  0.00  0.00    +0.000 Cl
ATOM     27  C   UNL     1       3.045   8.187  17.446  0.00  0.00    +0.000 A 
ATOM     28  C   UNL     1       4.140   7.341  17.244  0.00  0.00    +0.000 A 
ENDBRANCH  20  22
ENDBRANCH   1  20
TORSDOF 5
ENDMDL
MODEL 9
REMARK VINA RESULT:      -8.0      1.698      5.729
REMARK  Name = 
REMARK  6 active torsions:
REMARK  status: ('A' for Active; 'I' for Inactive)
REMARK    1  A    between atoms: C_1  and  C_2
REMARK    2  A    between atoms: C_7  and  C_8
REMARK    3  A    between atoms: C_8  and  C_17
REMARK    4  A    between atoms: N_9  and  N_10
REMARK    5  A    between atoms: N_10  and  C_11
REMARK    6  A    between atoms: C_17  and  C_19
REMARK                            x       y       z     vdW  Elec       q    Type
REMARK                         _______ _______ _______ _____ _____    ______ ____
ROOT
ATOM      1  C   UNL     1       3.658   5.082  17.548  0.00  0.00    +0.000 C 
ATOM      2  N   UNL     1       2.711   4.275  17.149  0.00  0.00    +0.000 NA
ENDROOT
BRANCH   1   9
ATOM      3  C   UNL     1       6.035   3.670  13.545  0.00  0.00    +0.000 C 
ATOM      4  C   UNL     1       5.993   4.575  14.744  0.00  0.00    +0.000 A 
ATOM      5  C   UNL     1       7.041   5.352  15.064  0.00  0.00    +0.000 A 
ATOM      6  C   UNL     1       6.963   6.178  16.280  0.00  0.00    +0.000 A 
ATOM      7  O   UNL     1       7.902   6.868  16.648  0.00  0.00    +0.000 OA
ATOM      8  N   UNL     1       5.794   6.068  16.966  0.00  0.00    +0.000 N 
ATOM      9  C   UNL     1       4.803   5.217  16.567  0.00  0.00    +0.000 A 
ATOM     10  N   UNL     1       4.843   4.491  15.498  0.00  0.00    +0.000 NA
ATOM     11  H   UNL     1       5.682   6.601  17.822  0.00  0.00    +0.000 HD
ENDBRANCH   1   9
BRANCH   2  12
ATOM     12  N   UNL     1       1.590   4.150  17.894  0.00  0.00    +0.000 N 
ATOM     13  H   UNL     1       0.654   4.257  17.497  0.00  0.00    +0.000 HD
BRANCH  12  14
ATOM     14  C   UNL     1       1.694   3.494  19.133  0.00  0.00    +0.000 A 
ATOM     15  C   UNL     1       0.989   3.935  20.262  0.00  0.00    +0.000 A 
ATOM     16  C   UNL     1       1.158   3.321  21.506  0.00  0.00    +0.000 A 
ATOM     17  C   UNL     1       2.059   2.267  21.643  0.00  0.00    +0.000 A 
ATOM     18  C   UNL     1       2.779   1.825  20.534  0.00  0.00    +0.000 A 
ATOM     19  C   UNL     1       2.593   2.432  19.288  0.00  0.00    +0.000 A 
ENDBRANCH  12  14
ENDBRANCH   2  12
BRANCH   1  20
ATOM     20  C   UNL     1       3.584   5.920  18.815  0.00  0.00    +0.000 C 
ATOM     21  O   UNL     1       4.210   5.560  19.807  0.00  0.00    +0.000 OA
BRANCH  20  22
ATOM     22  C   UNL     1       2.706   7.121  18.881  0.00  0.00    +0.000 A 
ATOM     23  C   UNL     1       2.025   7.480  20.052  0.00  0.00    +0.000 A 
ATOM     24  C   UNL     1       1.250   8.641  20.088  0.00  0.00    +0.000 A 
ATOM     25  C   UNL     1       1.176   9.465  18.967  0.00  0.00    +0.000 A 
ATOM     26 CL   UNL     1       0.280  10.930  19.047  0.00  0.00    +0.000 Cl
ATOM     27  C   UNL     1       1.846   9.118  17.795  0.00  0.00    +0.000 A 
ATOM     28  C   UNL     1       2.606   7.944  17.749  0.00  0.00    +0.000 A 
ENDBRANCH  20  22
ENDBRANCH   1  20
TORSDOF 5
ENDMDL
