MODEL 1
REMARK VINA RESULT:      -6.0      0.000      0.000
REMARK  Name = 
REMARK  6 active torsions:
REMARK  status: ('A' for Active; 'I' for Inactive)
REMARK    1  A    between atoms: C_1  and  C_2
REMARK    2  A    between atoms: C_5  and  N_6
REMARK    3  A    between atoms: C_7  and  N_8
REMARK    4  A    between atoms: C_9  and  C_10
REMARK    5  A    between atoms: C_12  and  C_13
REMARK    6  A    between atoms: C_20  and  C_21
REMARK                            x       y       z     vdW  Elec       q    Type
REMARK                         _______ _______ _______ _____ _____    ______ ____
ROOT
ATOM      1  N   UNL     1       1.664   8.610  19.350  0.00  0.00    +0.000 N 
ATOM      2  C   UNL     1       1.394   8.536  20.726  0.00  0.00    +0.000 A 
ATOM      3  C   UNL     1       0.745   9.580  21.298  0.00  0.00    +0.000 A 
ATOM      4  C   UNL     1       0.255  10.717  20.555  0.00  0.00    +0.000 A 
ATOM      5  C   UNL     1       0.487  10.791  19.228  0.00  0.00    +0.000 A 
ATOM      6  C   UNL     1       1.257   9.700  18.553  0.00  0.00    +0.000 A 
ATOM      7  O   UNL     1       1.462   9.787  17.340  0.00  0.00    +0.000 OA
ENDROOT
BRANCH   1  12
ATOM      8  C   UNL     1       4.430   4.352  16.660  0.00  0.00    +0.000 C 
ATOM      9  C   UNL     1       3.715   5.469  17.359  0.00  0.00    +0.000 A 
ATOM     10  C   UNL     1       4.250   6.762  17.381  0.00  0.00    +0.000 A 
ATOM     11  C   UNL     1       3.570   7.798  18.027  0.00  0.00    +0.000 A 
ATOM     12  C   UNL     1       2.352   7.551  18.671  0.00  0.00    +0.000 A 
ATOM     13  C   UNL     1       1.822   6.256  18.658  0.00  0.00    +0.000 A 
ATOM     14  C   UNL     1       2.493   5.224  17.998  0.00  0.00    +0.000 A 
ENDBRANCH   1  12
BRANCH   4  15
ATOM     15  C   UNL     1      -0.512  11.791  21.228  0.00  0.00    +0.000 A 
ATOM     16  C   UNL     1       0.142  12.922  21.737  0.00  0.00    +0.000 A 
ATOM     17  C   UNL     1      -0.576  13.867  22.471  0.00  0.00    +0.000 A 
ATOM     18  C   UNL     1      -1.953  13.723  22.629  0.00  0.00    +0.000 A 
ATOM     19 CL   UNL     1      -2.824  14.838  23.606  0.00  0.00    +0.000 Cl
ATOM     20  C   UNL     1      -2.627  12.665  22.023  0.00  0.00    +0.000 A 
ATOM     21  C   UNL     1      -1.906  11.684  21.341  0.00  0.00    +0.000 A 
ENDBRANCH   4  15
BRANCH   2  22
ATOM     22  N   UNL     1       1.795   7.438  21.474  0.00  0.00    +0.000 N 
ATOM     23  H   UNL     1       1.067   6.784  21.751  0.00  0.00    +0.000 HD
ATOM     24  H   UNL     1       2.697   7.002  21.291  0.00  0.00    +0.000 HD
ENDBRANCH   2  22
BRANCH   3  25
ATOM     25  C   UNL     1       0.496   9.528  22.796  0.00  0.00    +0.000 C 
ATOM     26  N   UNL     1       0.290   9.486  24.039  0.00  0.00    +0.000 NA
ENDBRANCH   3  25
BRANCH   5  27
ATOM     27  C   UNL     1       0.015  11.865  18.407  0.00  0.00    +0.000 C 
ATOM     28  N   UNL     1      -0.407  12.738  17.780  0.00  0.00    +0.000 NA
ENDBRANCH   5  27
TORSDOF 5
ENDMDL
MODEL 2
REMARK VINA RESULT:      -6.0      2.443      4.072
REMARK  Name = 
REMARK  6 active torsions:
REMARK  status: ('A' for Active; 'I' for Inactive)
REMARK    1  A    between atoms: C_1  and  C_2
REMARK    2  A    between atoms: C_5  and  N_6
REMARK    3  A    between atoms: C_7  and  N_8
REMARK    4  A    between atoms: C_9  and  C_10
REMARK    5  A    between atoms: C_12  and  C_13
REMARK    6  A    between atoms: C_20  and  C_21
REMARK                            x       y       z     vdW  Elec       q    Type
REMARK                         _______ _______ _______ _____ _____    ______ ____
ROOT
ATOM      1  N   UNL     1      -0.282  10.545  19.747  0.00  0.00    +0.000 N 
ATOM      2  C   UNL     1      -1.465  10.734  19.014  0.00  0.00    +0.000 A 
ATOM      3  C   UNL     1      -2.369  11.621  19.495  0.00  0.00    +0.000 A 
ATOM      4  C   UNL     1      -2.145  12.429  20.671  0.00  0.00    +0.000 A 
ATOM      5  C   UNL     1      -1.003  12.274  21.374  0.00  0.00    +0.000 A 
ATOM      6  C   UNL     1       0.003  11.261  20.927  0.00  0.00    +0.000 A 
ATOM      7  O   UNL     1       1.039  11.133  21.584  0.00  0.00    +0.000 OA
ENDROOT
BRANCH   1  12
ATOM      8  C   UNL     1       3.719   6.823  17.969  0.00  0.00    +0.000 C 
ATOM      9  C   UNL     1       2.674   7.790  18.441  0.00  0.00    +0.000 A 
ATOM     10  C   UNL     1       2.030   7.608  19.670  0.00  0.00    +0.000 A 
ATOM     11  C   UNL     1       1.065   8.520  20.105  0.00  0.00    +0.000 A 
ATOM     12  C   UNL     1       0.722   9.619  19.310  0.00  0.00    +0.000 A 
ATOM     13  C   UNL     1       1.357   9.795  18.075  0.00  0.00    +0.000 A 
ATOM     14  C   UNL     1       2.334   8.893  17.648  0.00  0.00    +0.000 A 
ENDBRANCH   1  12
BRANCH   4  15
ATOM     15  C   UNL     1      -3.143  13.435  21.104  0.00  0.00    +0.000 A 
ATOM     16  C   UNL     1      -3.015  14.778  20.721  0.00  0.00    +0.000 A 
ATOM     17  C   UNL     1      -3.895  15.733  21.232  0.00  0.00    +0.000 A 
ATOM     18  C   UNL     1      -4.943  15.338  22.061  0.00  0.00    +0.000 A 
ATOM     19 CL   UNL     1      -5.973  16.522  22.762  0.00  0.00    +0.000 Cl
ATOM     20  C   UNL     1      -5.147  13.989  22.349  0.00  0.00    +0.000 A 
ATOM     21  C   UNL     1      -4.234  13.037  21.890  0.00  0.00    +0.000 A 
ENDBRANCH   4  15
BRANCH   2  22
ATOM     22  N   UNL     1      -1.703  10.022  17.847  0.00  0.00    +0.000 N 
ATOM     23  H   UNL     1      -1.404   9.050  17.836  0.00  0.00    +0.000 HD
ATOM     24  H   UNL     1      -2.548  10.202  17.306  0.00  0.00    +0.000 HD
ENDBRANCH   2  22
BRANCH   3  25
ATOM     25  C   UNL     1      -3.674  11.792  18.735  0.00  0.00    +0.000 C 
ATOM     26  N   UNL     1      -4.756  11.934  18.103  0.00  0.00    +0.000 NA
ENDBRANCH   3  25
BRANCH   5  27
ATOM     27  C   UNL     1      -0.683  13.051  22.532  0.00  0.00    +0.000 C 
ATOM     28  N   UNL     1      -0.463  13.713  23.453  0.00  0.00    +0.000 NA
ENDBRANCH   5  27
TORSDOF 5
ENDMDL
MODEL 3
REMARK VINA RESULT:      -6.0      2.443      4.090
REMARK  Name = 
REMARK  6 active torsions:
REMARK  status: ('A' for Active; 'I' for Inactive)
REMARK    1  A    between atoms: C_1  and  C_2
REMARK    2  A    between atoms: C_5  and  N_6
REMARK    3  A    between atoms: C_7  and  N_8
REMARK    4  A    between atoms: C_9  and  C_10
REMARK    5  A    between atoms: C_12  and  C_13
REMARK    6  A    between atoms: C_20  and  C_21
REMARK                            x       y       z     vdW  Elec       q    Type
REMARK                         _______ _______ _______ _____ _____    ______ ____
ROOT
ATOM      1  N   UNL     1      -0.184  10.377  19.632  0.00  0.00    +0.000 N 
ATOM      2  C   UNL     1      -1.338  10.579  18.858  0.00  0.00    +0.000 A 
ATOM      3  C   UNL     1      -2.258  11.463  19.317  0.00  0.00    +0.000 A 
ATOM      4  C   UNL     1      -2.075  12.256  20.511  0.00  0.00    +0.000 A 
ATOM      5  C   UNL     1      -0.960  12.088  21.253  0.00  0.00    +0.000 A 
ATOM      6  C   UNL     1       0.059  11.078  20.831  0.00  0.00    +0.000 A 
ATOM      7  O   UNL     1       1.070  10.938  21.524  0.00  0.00    +0.000 OA
ENDROOT
BRANCH   1  12
ATOM      8  C   UNL     1       3.870   6.665  17.957  0.00  0.00    +0.000 C 
ATOM      9  C   UNL     1       2.811   7.629  18.402  0.00  0.00    +0.000 A 
ATOM     10  C   UNL     1       2.135   7.445  19.614  0.00  0.00    +0.000 A 
ATOM     11  C   UNL     1       1.157   8.354  20.024  0.00  0.00    +0.000 A 
ATOM     12  C   UNL     1       0.833   9.454  19.221  0.00  0.00    +0.000 A 
ATOM     13  C   UNL     1       1.501   9.633  18.004  0.00  0.00    +0.000 A 
ATOM     14  C   UNL     1       2.490   8.733  17.603  0.00  0.00    +0.000 A 
ENDBRANCH   1  12
BRANCH   4  15
ATOM     15  C   UNL     1      -3.086  13.259  20.919  0.00  0.00    +0.000 A 
ATOM     16  C   UNL     1      -4.234  12.868  21.622  0.00  0.00    +0.000 A 
ATOM     17  C   UNL     1      -5.232  13.804  21.897  0.00  0.00    +0.000 A 
ATOM     18  C   UNL     1      -5.050  15.139  21.538  0.00  0.00    +0.000 A 
ATOM     19 CL   UNL     1      -6.314  16.274  21.795  0.00  0.00    +0.000 Cl
ATOM     20  C   UNL     1      -3.858  15.555  20.947  0.00  0.00    +0.000 A 
ATOM     21  C   UNL     1      -2.884  14.613  20.615  0.00  0.00    +0.000 A 
ENDBRANCH   4  15
BRANCH   2  22
ATOM     22  N   UNL     1      -1.535   9.883  17.674  0.00  0.00    +0.000 N 
ATOM     23  H   UNL     1      -2.499   9.701  17.407  0.00  0.00    +0.000 HD
ATOM     24  H   UNL     1      -0.907  10.034  16.887  0.00  0.00    +0.000 HD
ENDBRANCH   2  22
BRANCH   3  25
ATOM     25  C   UNL     1      -3.532  11.648  18.511  0.00  0.00    +0.000 C 
ATOM     26  N   UNL     1      -4.590  11.801  17.842  0.00  0.00    +0.000 NA
ENDBRANCH   3  25
BRANCH   5  27
ATOM     27  C   UNL     1      -0.682  12.849  22.433  0.00  0.00    +0.000 C 
ATOM     28  N   UNL     1      -0.446  13.505  23.353  0.00  0.00    +0.000 NA
ENDBRANCH   5  27
TORSDOF 5
ENDMDL
MODEL 4
REMARK VINA RESULT:      -6.0      1.105      2.927
REMARK  Name = 
REMARK  6 active torsions:
REMARK  status: ('A' for Active; 'I' for Inactive)
REMARK    1  A    between atoms: C_1  and  C_2
REMARK    2  A    between atoms: C_5  and  N_6
REMARK    3  A    between atoms: C_7  and  N_8
REMARK    4  A    between atoms: C_9  and  C_10
REMARK    5  A    between atoms: C_12  and  C_13
REMARK    6  A    between atoms: C_20  and  C_21
REMARK                            x       y       z     vdW  Elec       q    Type
REMARK                         _______ _______ _______ _____ _____    ______ ____
ROOT
ATOM      1  N   UNL     1       1.475   8.671  19.492  0.00  0.00    +0.000 N 
ATOM      2  C   UNL     1       0.979   9.775  18.781  0.00  0.00    +0.000 A 
ATOM      3  C   UNL     1       0.294  10.716  19.476  0.00  0.00    +0.000 A 
ATOM      4  C   UNL     1       0.118  10.678  20.909  0.00  0.00    +0.000 A 
ATOM      5  C   UNL     1       0.609   9.633  21.609  0.00  0.00    +0.000 A 
ATOM      6  C   UNL     1       1.316   8.531  20.886  0.00  0.00    +0.000 A 
ATOM      7  O   UNL     1       1.756   7.584  21.543  0.00  0.00    +0.000 OA
ENDROOT
BRANCH   1  12
ATOM      8  C   UNL     1       4.406   4.481  16.871  0.00  0.00    +0.000 C 
ATOM      9  C   UNL     1       3.647   5.581  17.551  0.00  0.00    +0.000 A 
ATOM     10  C   UNL     1       4.039   6.917  17.413  0.00  0.00    +0.000 A 
ATOM     11  C   UNL     1       3.319   7.935  18.043  0.00  0.00    +0.000 A 
ATOM     12  C   UNL     1       2.203   7.628  18.830  0.00  0.00    +0.000 A 
ATOM     13  C   UNL     1       1.817   6.291  18.978  0.00  0.00    +0.000 A 
ATOM     14  C   UNL     1       2.527   5.275  18.334  0.00  0.00    +0.000 A 
ENDBRANCH   1  12
BRANCH   4  15
ATOM     15  C   UNL     1      -0.578  11.776  21.620  0.00  0.00    +0.000 A 
ATOM     16  C   UNL     1       0.066  13.001  21.841  0.00  0.00    +0.000 A 
ATOM     17  C   UNL     1      -0.558  13.983  22.613  0.00  0.00    +0.000 A 
ATOM     18  C   UNL     1      -1.848  13.771  23.096  0.00  0.00    +0.000 A 
ATOM     19 CL   UNL     1      -2.582  14.941  24.120  0.00  0.00    +0.000 Cl
ATOM     20  C   UNL     1      -2.539  12.603  22.778  0.00  0.00    +0.000 A 
ATOM     21  C   UNL     1      -1.897  11.593  22.059  0.00  0.00    +0.000 A 
ENDBRANCH   4  15
BRANCH   2  22
ATOM     22  N   UNL     1       1.170   9.887  17.411  0.00  0.00    +0.000 N 
ATOM     23  H   UNL     1       1.219  10.829  17.033  0.00  0.00    +0.000 HD
ATOM     24  H   UNL     1       1.759   9.213  16.925  0.00  0.00    +0.000 HD
ENDBRANCH   2  22
BRANCH   3  25
ATOM     25  C   UNL     1      -0.290  11.887  18.704  0.00  0.00    +0.000 C 
ATOM     26  N   UNL     1      -0.775  12.859  18.063  0.00  0.00    +0.000 NA
ENDBRANCH   3  25
BRANCH   5  27
ATOM     27  C   UNL     1       0.508   9.526  23.033  0.00  0.00    +0.000 C 
ATOM     28  N   UNL     1       0.399   9.485  24.182  0.00  0.00    +0.000 NA
ENDBRANCH   5  27
TORSDOF 5
ENDMDL
MODEL 5
REMARK VINA RESULT:      -5.8      2.597      4.129
REMARK  Name = 
REMARK  6 active torsions:
REMARK  status: ('A' for Active; 'I' for Inactive)
REMARK    1  A    between atoms: C_1  and  C_2
REMARK    2  A    between atoms: C_5  and  N_6
REMARK    3  A    between atoms: C_7  and  N_8
REMARK    4  A    between atoms: C_9  and  C_10
REMARK    5  A    between atoms: C_12  and  C_13
REMARK    6  A    between atoms: C_20  and  C_21
REMARK                            x       y       z     vdW  Elec       q    Type
REMARK                         _______ _______ _______ _____ _____    ______ ____
ROOT
ATOM      1  N   UNL     1      -0.036  11.048  19.912  0.00  0.00    +0.000 N 
ATOM      2  C   UNL     1      -1.373  11.150  19.496  0.00  0.00    +0.000 A 
ATOM      3  C   UNL     1      -2.097  12.201  19.952  0.00  0.00    +0.000 A 
ATOM      4  C   UNL     1      -1.545  13.252  20.774  0.00  0.00    +0.000 A 
ATOM      5  C   UNL     1      -0.255  13.180  21.163  0.00  0.00    +0.000 A 
ATOM      6  C   UNL     1       0.575  12.008  20.745  0.00  0.00    +0.000 A 
ATOM      7  O   UNL     1       1.752  11.959  21.113  0.00  0.00    +0.000 OA
ENDROOT
BRANCH   1  12
ATOM      8  C   UNL     1       3.270   6.688  18.159  0.00  0.00    +0.000 C 
ATOM      9  C   UNL     1       2.407   7.822  18.625  0.00  0.00    +0.000 A 
ATOM     10  C   UNL     1       1.842   7.816  19.905  0.00  0.00    +0.000 A 
ATOM     11  C   UNL     1       1.047   8.882  20.333  0.00  0.00    +0.000 A 
ATOM     12  C   UNL     1       0.796   9.963  19.480  0.00  0.00    +0.000 A 
ATOM     13  C   UNL     1       1.352   9.965  18.196  0.00  0.00    +0.000 A 
ATOM     14  C   UNL     1       2.160   8.906  17.775  0.00  0.00    +0.000 A 
ENDBRANCH   1  12
BRANCH   4  15
ATOM     15  C   UNL     1      -2.371  14.413  21.179  0.00  0.00    +0.000 A 
ATOM     16  C   UNL     1      -3.200  14.339  22.307  0.00  0.00    +0.000 A 
ATOM     17  C   UNL     1      -4.059  15.397  22.608  0.00  0.00    +0.000 A 
ATOM     18  C   UNL     1      -4.035  16.554  21.831  0.00  0.00    +0.000 A 
ATOM     19 CL   UNL     1      -5.153  17.820  22.146  0.00  0.00    +0.000 Cl
ATOM     20  C   UNL     1      -3.127  16.680  20.781  0.00  0.00    +0.000 A 
ATOM     21  C   UNL     1      -2.309  15.602  20.438  0.00  0.00    +0.000 A 
ENDBRANCH   4  15
BRANCH   2  22
ATOM     22  N   UNL     1      -1.935  10.194  18.661  0.00  0.00    +0.000 N 
ATOM     23  H   UNL     1      -2.860   9.855  18.913  0.00  0.00    +0.000 HD
ATOM     24  H   UNL     1      -1.768  10.237  17.657  0.00  0.00    +0.000 HD
ENDBRANCH   2  22
BRANCH   3  25
ATOM     25  C   UNL     1      -3.559  12.287  19.547  0.00  0.00    +0.000 C 
ATOM     26  N   UNL     1      -4.772  12.359  19.211  0.00  0.00    +0.000 NA
ENDBRANCH   3  25
BRANCH   5  27
ATOM     27  C   UNL     1       0.384  14.189  21.952  0.00  0.00    +0.000 C 
ATOM     28  N   UNL     1       0.947  14.987  22.568  0.00  0.00    +0.000 NA
ENDBRANCH   5  27
TORSDOF 5
ENDMDL
MODEL 6
REMARK VINA RESULT:      -5.8      2.566      3.995
REMARK  Name = 
REMARK  6 active torsions:
REMARK  status: ('A' for Active; 'I' for Inactive)
REMARK    1  A    between atoms: C_1  and  C_2
REMARK    2  A    between atoms: C_5  and  N_6
REMARK    3  A    between atoms: C_7  and  N_8
REMARK    4  A    between atoms: C_9  and  C_10
REMARK    5  A    between atoms: C_12  and  C_13
REMARK    6  A    between atoms: C_20  and  C_21
REMARK                            x       y       z     vdW  Elec       q    Type
REMARK                         _______ _______ _______ _____ _____    ______ ____
ROOT
ATOM      1  N   UNL     1      -0.085  11.008  19.873  0.00  0.00    +0.000 N 
ATOM      2  C   UNL     1      -1.415  11.118  19.436  0.00  0.00    +0.000 A 
ATOM      3  C   UNL     1      -2.144  12.163  19.895  0.00  0.00    +0.000 A 
ATOM      4  C   UNL     1      -1.605  13.202  20.742  0.00  0.00    +0.000 A 
ATOM      5  C   UNL     1      -0.321  13.122  21.152  0.00  0.00    +0.000 A 
ATOM      6  C   UNL     1       0.514  11.954  20.730  0.00  0.00    +0.000 A 
ATOM      7  O   UNL     1       1.684  11.897  21.118  0.00  0.00    +0.000 OA
ENDROOT
BRANCH   1  12
ATOM      8  C   UNL     1       3.295   6.689  18.159  0.00  0.00    +0.000 C 
ATOM      9  C   UNL     1       2.414   7.820  18.598  0.00  0.00    +0.000 A 
ATOM     10  C   UNL     1       2.141   8.892  17.741  0.00  0.00    +0.000 A 
ATOM     11  C   UNL     1       1.311   9.936  18.156  0.00  0.00    +0.000 A 
ATOM     12  C   UNL     1       0.752   9.928  19.439  0.00  0.00    +0.000 A 
ATOM     13  C   UNL     1       1.033   8.861  20.301  0.00  0.00    +0.000 A 
ATOM     14  C   UNL     1       1.850   7.809  19.880  0.00  0.00    +0.000 A 
ENDBRANCH   1  12
BRANCH   4  15
ATOM     15  C   UNL     1      -2.435  14.358  21.150  0.00  0.00    +0.000 A 
ATOM     16  C   UNL     1      -2.366  15.569  20.446  0.00  0.00    +0.000 A 
ATOM     17  C   UNL     1      -3.065  16.684  20.912  0.00  0.00    +0.000 A 
ATOM     18  C   UNL     1      -3.888  16.569  22.032  0.00  0.00    +0.000 A 
ATOM     19 CL   UNL     1      -4.678  17.961  22.659  0.00  0.00    +0.000 Cl
ATOM     20  C   UNL     1      -4.053  15.338  22.664  0.00  0.00    +0.000 A 
ATOM     21  C   UNL     1      -3.310  14.236  22.239  0.00  0.00    +0.000 A 
ENDBRANCH   4  15
BRANCH   2  22
ATOM     22  N   UNL     1      -1.964  10.176  18.577  0.00  0.00    +0.000 N 
ATOM     23  H   UNL     1      -2.931  10.321  18.300  0.00  0.00    +0.000 HD
ATOM     24  H   UNL     1      -1.385   9.749  17.856  0.00  0.00    +0.000 HD
ENDBRANCH   2  22
BRANCH   3  25
ATOM     25  C   UNL     1      -3.599  12.258  19.467  0.00  0.00    +0.000 C 
ATOM     26  N   UNL     1      -4.806  12.338  19.112  0.00  0.00    +0.000 NA
ENDBRANCH   3  25
BRANCH   5  27
ATOM     27  C   UNL     1       0.306  14.118  21.966  0.00  0.00    +0.000 C 
ATOM     28  N   UNL     1       0.834  14.941  22.579  0.00  0.00    +0.000 NA
ENDBRANCH   5  27
TORSDOF 5
ENDMDL
MODEL 7
REMARK VINA RESULT:      -5.6      2.354      3.314
REMARK  Name = 
REMARK  6 active torsions:
REMARK  status: ('A' for Active; 'I' for Inactive)
REMARK    1  A    between atoms: C_1  and  C_2
REMARK    2  A    between atoms: C_5  and  N_6
REMARK    3  A    between atoms: C_7  and  N_8
REMARK    4  A    between atoms: C_9  and  C_10
REMARK    5  A    between atoms: C_12  and  C_13
REMARK    6  A    between atoms: C_20  and  C_21
REMARK                            x       y       z     vdW  Elec       q    Type
REMARK                         _______ _______ _______ _____ _____    ______ ____
ROOT
ATOM      1  N   UNL     1      -0.166  10.494  19.669  0.00  0.00    +0.000 N 
ATOM      2  C   UNL     1      -0.020  11.218  20.863  0.00  0.00    +0.000 A 
ATOM      3  C   UNL     1      -0.992  12.106  21.184  0.00  0.00    +0.000 A 
ATOM      4  C   UNL     1      -2.195  12.287  20.406  0.00  0.00    +0.000 A 
ATOM      5  C   UNL     1      -2.360  11.582  19.267  0.00  0.00    +0.000 A 
ATOM      6  C   UNL     1      -1.289  10.634  18.828  0.00  0.00    +0.000 A 
ATOM      7  O   UNL     1      -1.457  10.001  17.783  0.00  0.00    +0.000 OA
ENDROOT
BRANCH   1  12
ATOM      8  C   UNL     1       3.766   6.660  17.979  0.00  0.00    +0.000 C 
ATOM      9  C   UNL     1       2.739   7.656  18.428  0.00  0.00    +0.000 A 
ATOM     10  C   UNL     1       2.076   7.502  19.650  0.00  0.00    +0.000 A 
ATOM     11  C   UNL     1       1.128   8.441  20.064  0.00  0.00    +0.000 A 
ATOM     12  C   UNL     1       0.821   9.540  19.253  0.00  0.00    +0.000 A 
ATOM     13  C   UNL     1       1.476   9.689  18.025  0.00  0.00    +0.000 A 
ATOM     14  C   UNL     1       2.436   8.759  17.620  0.00  0.00    +0.000 A 
ENDBRANCH   1  12
BRANCH   4  15
ATOM     15  C   UNL     1      -3.254  13.223  20.850  0.00  0.00    +0.000 A 
ATOM     16  C   UNL     1      -3.153  14.595  20.580  0.00  0.00    +0.000 A 
ATOM     17  C   UNL     1      -4.097  15.478  21.106  0.00  0.00    +0.000 A 
ATOM     18  C   UNL     1      -5.179  14.984  21.834  0.00  0.00    +0.000 A 
ATOM     19 CL   UNL     1      -6.293  16.076  22.557  0.00  0.00    +0.000 Cl
ATOM     20  C   UNL     1      -5.349  13.611  22.004  0.00  0.00    +0.000 A 
ATOM     21  C   UNL     1      -4.375  12.729  21.533  0.00  0.00    +0.000 A 
ENDBRANCH   4  15
BRANCH   2  22
ATOM     22  N   UNL     1       1.092  11.040  21.674  0.00  0.00    +0.000 N 
ATOM     23  H   UNL     1       1.948  11.506  21.384  0.00  0.00    +0.000 HD
ATOM     24  H   UNL     1       0.977  10.974  22.684  0.00  0.00    +0.000 HD
ENDBRANCH   2  22
BRANCH   3  25
ATOM     25  C   UNL     1      -0.813  12.931  22.448  0.00  0.00    +0.000 C 
ATOM     26  N   UNL     1      -0.665  13.614  23.497  0.00  0.00    +0.000 NA
ENDBRANCH   3  25
BRANCH   5  27
ATOM     27  C   UNL     1      -3.531  11.674  18.450  0.00  0.00    +0.000 C 
ATOM     28  N   UNL     1      -4.451  11.718  17.754  0.00  0.00    +0.000 NA
ENDBRANCH   5  27
TORSDOF 5
ENDMDL
MODEL 8
REMARK VINA RESULT:      -5.6      2.727      4.689
REMARK  Name = 
REMARK  6 active torsions:
REMARK  status: ('A' for Active; 'I' for Inactive)
REMARK    1  A    between atoms: C_1  and  C_2
REMARK    2  A    between atoms: C_5  and  N_6
REMARK    3  A    between atoms: C_7  and  N_8
REMARK    4  A    between atoms: C_9  and  C_10
REMARK    5  A    between atoms: C_12  and  C_13
REMARK    6  A    between atoms: C_20  and  C_21
REMARK                            x       y       z     vdW  Elec       q    Type
REMARK                         _______ _______ _______ _____ _____    ______ ____
ROOT
ATOM      1  N   UNL     1      -0.760  11.118  20.058  0.00  0.00    +0.000 N 
ATOM      2  C   UNL     1      -1.998  11.276  19.414  0.00  0.00    +0.000 A 
ATOM      3  C   UNL     1      -2.897  12.120  19.977  0.00  0.00    +0.000 A 
ATOM      4  C   UNL     1      -2.619  12.915  21.150  0.00  0.00    +0.000 A 
ATOM      5  C   UNL     1      -1.424  12.791  21.766  0.00  0.00    +0.000 A 
ATOM      6  C   UNL     1      -0.417  11.824  21.228  0.00  0.00    +0.000 A 
ATOM      7  O   UNL     1       0.668  11.723  21.807  0.00  0.00    +0.000 OA
ENDROOT
BRANCH   1  12
ATOM      8  C   UNL     1       3.236   7.584  17.923  0.00  0.00    +0.000 C 
ATOM      9  C   UNL     1       2.193   8.501  18.487  0.00  0.00    +0.000 A 
ATOM     10  C   UNL     1       1.526   8.184  19.676  0.00  0.00    +0.000 A 
ATOM     11  C   UNL     1       0.562   9.050  20.198  0.00  0.00    +0.000 A 
ATOM     12  C   UNL     1       0.243  10.238  19.532  0.00  0.00    +0.000 A 
ATOM     13  C   UNL     1       0.902  10.550  18.337  0.00  0.00    +0.000 A 
ATOM     14  C   UNL     1       1.877   9.693  17.824  0.00  0.00    +0.000 A 
ENDBRANCH   1  12
BRANCH   4  15
ATOM     15  C   UNL     1      -3.618  13.875  21.672  0.00  0.00    +0.000 A 
ATOM     16  C   UNL     1      -4.558  13.473  22.632  0.00  0.00    +0.000 A 
ATOM     17  C   UNL     1      -5.566  14.354  23.028  0.00  0.00    +0.000 A 
ATOM     18  C   UNL     1      -5.590  15.653  22.524  0.00  0.00    +0.000 A 
ATOM     19 CL   UNL     1      -6.881  16.709  22.942  0.00  0.00    +0.000 Cl
ATOM     20  C   UNL     1      -4.589  16.095  21.662  0.00  0.00    +0.000 A 
ATOM     21  C   UNL     1      -3.614  15.201  21.216  0.00  0.00    +0.000 A 
ENDBRANCH   4  15
BRANCH   2  22
ATOM     22  N   UNL     1      -2.294  10.575  18.253  0.00  0.00    +0.000 N 
ATOM     23  H   UNL     1      -3.228  10.179  18.185  0.00  0.00    +0.000 HD
ATOM     24  H   UNL     1      -1.908  10.884  17.363  0.00  0.00    +0.000 HD
ENDBRANCH   2  22
BRANCH   3  25
ATOM     25  C   UNL     1      -4.258  12.255  19.314  0.00  0.00    +0.000 C 
ATOM     26  N   UNL     1      -5.387  12.367  18.765  0.00  0.00    +0.000 NA
ENDBRANCH   3  25
BRANCH   5  27
ATOM     27  C   UNL     1      -1.050  13.559  22.914  0.00  0.00    +0.000 C 
ATOM     28  N   UNL     1      -0.797  14.200  23.841  0.00  0.00    +0.000 NA
ENDBRANCH   5  27
TORSDOF 5
ENDMDL
MODEL 9
REMARK VINA RESULT:      -5.6      2.449      3.450
REMARK  Name = 
REMARK  6 active torsions:
REMARK  status: ('A' for Active; 'I' for Inactive)
REMARK    1  A    between atoms: C_1  and  C_2
REMARK    2  A    between atoms: C_5  and  N_6
REMARK    3  A    between atoms: C_7  and  N_8
REMARK    4  A    between atoms: C_9  and  C_10
REMARK    5  A    between atoms: C_12  and  C_13
REMARK    6  A    between atoms: C_20  and  C_21
REMARK                            x       y       z     vdW  Elec       q    Type
REMARK                         _______ _______ _______ _____ _____    ______ ____
ROOT
ATOM      1  N   UNL     1      -0.257  10.553  19.678  0.00  0.00    +0.000 N 
ATOM      2  C   UNL     1      -0.086  11.284  20.865  0.00  0.00    +0.000 A 
ATOM      3  C   UNL     1      -1.057  12.166  21.207  0.00  0.00    +0.000 A 
ATOM      4  C   UNL     1      -2.282  12.332  20.460  0.00  0.00    +0.000 A 
ATOM      5  C   UNL     1      -2.470  11.620  19.330  0.00  0.00    +0.000 A 
ATOM      6  C   UNL     1      -1.402  10.680  18.866  0.00  0.00    +0.000 A 
ATOM      7  O   UNL     1      -1.592  10.040  17.829  0.00  0.00    +0.000 OA
ENDROOT
BRANCH   1  12
ATOM      8  C   UNL     1       3.710   6.770  17.954  0.00  0.00    +0.000 C 
ATOM      9  C   UNL     1       2.675   7.762  18.396  0.00  0.00    +0.000 A 
ATOM     10  C   UNL     1       2.356   8.869  17.601  0.00  0.00    +0.000 A 
ATOM     11  C   UNL     1       1.384   9.782  18.018  0.00  0.00    +0.000 A 
ATOM     12  C   UNL     1       0.728   9.607  19.241  0.00  0.00    +0.000 A 
ATOM     13  C   UNL     1       1.054   8.505  20.041  0.00  0.00    +0.000 A 
ATOM     14  C   UNL     1       2.014   7.584  19.617  0.00  0.00    +0.000 A 
ENDBRANCH   1  12
BRANCH   4  15
ATOM     15  C   UNL     1      -3.337  13.260  20.928  0.00  0.00    +0.000 A 
ATOM     16  C   UNL     1      -4.419  12.786  21.684  0.00  0.00    +0.000 A 
ATOM     17  C   UNL     1      -5.465  13.649  22.017  0.00  0.00    +0.000 A 
ATOM     18  C   UNL     1      -5.393  14.995  21.663  0.00  0.00    +0.000 A 
ATOM     19 CL   UNL     1      -6.718  16.038  21.994  0.00  0.00    +0.000 Cl
ATOM     20  C   UNL     1      -4.264  15.497  21.017  0.00  0.00    +0.000 A 
ATOM     21  C   UNL     1      -3.245  14.627  20.627  0.00  0.00    +0.000 A 
ENDBRANCH   4  15
BRANCH   2  22
ATOM     22  N   UNL     1       1.049  11.120  21.647  0.00  0.00    +0.000 N 
ATOM     23  H   UNL     1       0.984  10.448  22.408  0.00  0.00    +0.000 HD
ATOM     24  H   UNL     1       1.972  11.176  21.220  0.00  0.00    +0.000 HD
ENDBRANCH   2  22
BRANCH   3  25
ATOM     25  C   UNL     1      -0.853  12.997  22.463  0.00  0.00    +0.000 C 
ATOM     26  N   UNL     1      -0.683  13.687  23.504  0.00  0.00    +0.000 NA
ENDBRANCH   3  25
BRANCH   5  27
ATOM     27  C   UNL     1      -3.663  11.698  18.543  0.00  0.00    +0.000 C 
ATOM     28  N   UNL     1      -4.599  11.792  17.874  0.00  0.00    +0.000 NA
ENDBRANCH   5  27
TORSDOF 5
ENDMDL
