MODEL 1
REMARK VINA RESULT:      -7.0      0.000      0.000
REMARK  Name = 
REMARK  18 active torsions:
REMARK  status: ('A' for Active; 'I' for Inactive)
REMARK    1  A    between atoms: C_1  and  C_2
REMARK    2  A    between atoms: C_2  and  C_3
REMARK    3  A    between atoms: C_2  and  C_4
REMARK    4  A    between atoms: C_4  and  C_5
REMARK    5  A    between atoms: C_5  and  C_6
REMARK    6  A    between atoms: C_5  and  C_24
REMARK    7  A    between atoms: C_6  and  C_7
REMARK    8  A    between atoms: C_10  and  C_11
REMARK    9  A    between atoms: C_10  and  C_13
REMARK   10  A    between atoms: C_11  and  O_12
REMARK   11  A    between atoms: C_13  and  N_14
REMARK   12  A    between atoms: C_15  and  C_17
REMARK   13  A    between atoms: C_17  and  C_18
REMARK   14  A    between atoms: C_17  and  C_19
REMARK   15  A    between atoms: C_17  and  C_20
REMARK   16  A    between atoms: C_24  and  C_25
REMARK   17  A    between atoms: C_25  and  C_26
REMARK   18  A    between atoms: C_25  and  C_27
REMARK                            x       y       z     vdW  Elec       q    Type
REMARK                         _______ _______ _______ _____ _____    ______ ____
ROOT
ATOM      1  C   UNL     1       2.079   7.076  19.949  0.00  0.00    +0.000 C 
ATOM      2  C   UNL     1       2.202   5.787  19.568  0.00  0.00    +0.000 C 
ATOM      3  C   UNL     1       2.237   5.164  18.219  0.00  0.00    +0.000 C 
ATOM      4  C   UNL     1       2.421   3.666  18.506  0.00  0.00    +0.000 C 
ATOM      5  O   UNL     1       2.641   3.556  19.935  0.00  0.00    +0.000 OA
ATOM      6  C   UNL     1       2.428   4.730  20.579  0.00  0.00    +0.000 C 
ATOM      7  O   UNL     1       2.467   4.878  21.784  0.00  0.00    +0.000 OA
ENDROOT
BRANCH   1   8
ATOM      8  C   UNL     1       2.039   8.293  19.059  0.00  0.00    +0.000 C 
BRANCH   8   9
ATOM      9  C   UNL     1       0.986   9.400  19.371  0.00  0.00    +0.000 C 
BRANCH   9  10
ATOM     10  C   UNL     1      -0.009   9.040  20.508  0.00  0.00    +0.000 C 
BRANCH  10  12
ATOM     11  C   UNL     1      -0.003   9.580  23.016  0.00  0.00    +0.000 C 
ATOM     12  C   UNL     1      -0.224  10.120  21.600  0.00  0.00    +0.000 C 
ATOM     13  C   UNL     1       0.723  11.310  21.386  0.00  0.00    +0.000 C 
ENDBRANCH  10  12
ENDBRANCH   9  10
BRANCH   9  14
ATOM     14  C   UNL     1       0.256   9.810  18.064  0.00  0.00    +0.000 C 
BRANCH  14  15
ATOM     15  C   UNL     1      -1.186  10.356  18.206  0.00  0.00    +0.000 C 
ATOM     16  C   UNL     1      -1.253  11.885  18.281  0.00  0.00    +0.000 C 
ATOM     17  C   UNL     1      -2.042   9.873  17.027  0.00  0.00    +0.000 C 
ENDBRANCH  14  15
ENDBRANCH   9  14
ENDBRANCH   8   9
ENDBRANCH   1   8
BRANCH   4  18
ATOM     18  C   UNL     1       1.155   2.844  18.199  0.00  0.00    +0.000 C 
BRANCH  18  19
ATOM     19  O   UNL     1       1.314   1.494  18.644  0.00  0.00    +0.000 OA
ATOM     20  H   UNL     1       2.214   1.221  18.385  0.00  0.00    +0.000 HD
ENDBRANCH  18  19
ENDBRANCH   4  18
BRANCH   4  21
ATOM     21  C   UNL     1       3.675   3.073  17.821  0.00  0.00    +0.000 C 
BRANCH  21  22
ATOM     22  N   UNL     1       4.657   4.043  17.368  0.00  0.00    +0.000 N 
ATOM     23  C   UNL     1       5.663   4.504  18.193  0.00  0.00    +0.000 C 
ATOM     24  O   UNL     1       5.797   4.078  19.339  0.00  0.00    +0.000 OA
ATOM     25  H   UNL     1       4.496   4.509  16.485  0.00  0.00    +0.000 HD
BRANCH  23  26
ATOM     26  C   UNL     1       6.618   5.536  17.566  0.00  0.00    +0.000 C 
ATOM     27  C   UNL     1       7.728   5.920  18.557  0.00  0.00    +0.000 C 
ATOM     28  C   UNL     1       7.268   4.939  16.306  0.00  0.00    +0.000 C 
ATOM     29  C   UNL     1       5.820   6.785  17.164  0.00  0.00    +0.000 C 
ENDBRANCH  23  26
ENDBRANCH  21  22
ENDBRANCH   4  21
TORSDOF 11
ENDMDL
MODEL 2
REMARK VINA RESULT:      -7.0      0.495      2.437
REMARK  Name = 
REMARK  18 active torsions:
REMARK  status: ('A' for Active; 'I' for Inactive)
REMARK    1  A    between atoms: C_1  and  C_2
REMARK    2  A    between atoms: C_2  and  C_3
REMARK    3  A    between atoms: C_2  and  C_4
REMARK    4  A    between atoms: C_4  and  C_5
REMARK    5  A    between atoms: C_5  and  C_6
REMARK    6  A    between atoms: C_5  and  C_24
REMARK    7  A    between atoms: C_6  and  C_7
REMARK    8  A    between atoms: C_10  and  C_11
REMARK    9  A    between atoms: C_10  and  C_13
REMARK   10  A    between atoms: C_11  and  O_12
REMARK   11  A    between atoms: C_13  and  N_14
REMARK   12  A    between atoms: C_15  and  C_17
REMARK   13  A    between atoms: C_17  and  C_18
REMARK   14  A    between atoms: C_17  and  C_19
REMARK   15  A    between atoms: C_17  and  C_20
REMARK   16  A    between atoms: C_24  and  C_25
REMARK   17  A    between atoms: C_25  and  C_26
REMARK   18  A    between atoms: C_25  and  C_27
REMARK                            x       y       z     vdW  Elec       q    Type
REMARK                         _______ _______ _______ _____ _____    ______ ____
ROOT
ATOM      1  C   UNL     1       2.070   6.983  20.144  0.00  0.00    +0.000 C 
ATOM      2  C   UNL     1       2.193   5.729  19.661  0.00  0.00    +0.000 C 
ATOM      3  C   UNL     1       2.191   5.212  18.268  0.00  0.00    +0.000 C 
ATOM      4  C   UNL     1       2.398   3.699  18.432  0.00  0.00    +0.000 C 
ATOM      5  O   UNL     1       2.663   3.481  19.841  0.00  0.00    +0.000 OA
ATOM      6  C   UNL     1       2.459   4.599  20.580  0.00  0.00    +0.000 C 
ATOM      7  O   UNL     1       2.535   4.654  21.792  0.00  0.00    +0.000 OA
ENDROOT
BRANCH   1   8
ATOM      8  C   UNL     1       1.993   8.265  19.353  0.00  0.00    +0.000 C 
BRANCH   8   9
ATOM      9  C   UNL     1       0.784   9.216  19.608  0.00  0.00    +0.000 C 
BRANCH   9  10
ATOM     10  C   UNL     1       0.289   9.980  18.350  0.00  0.00    +0.000 C 
BRANCH  10  12
ATOM     11  C   UNL     1      -1.387  11.920  18.446  0.00  0.00    +0.000 C 
ATOM     12  C   UNL     1      -1.203  10.403  18.345  0.00  0.00    +0.000 C 
ATOM     13  C   UNL     1      -1.905   9.917  17.069  0.00  0.00    +0.000 C 
ENDBRANCH  10  12
ENDBRANCH   9  10
BRANCH   9  14
ATOM     14  C   UNL     1       1.113  10.177  20.782  0.00  0.00    +0.000 C 
BRANCH  14  15
ATOM     15  C   UNL     1       0.183  10.118  22.019  0.00  0.00    +0.000 C 
ATOM     16  C   UNL     1      -0.875  11.226  22.037  0.00  0.00    +0.000 C 
ATOM     17  C   UNL     1      -0.516   8.754  22.077  0.00  0.00    +0.000 C 
ENDBRANCH  14  15
ENDBRANCH   9  14
ENDBRANCH   8   9
ENDBRANCH   1   8
BRANCH   4  18
ATOM     18  C   UNL     1       1.130   2.889  18.101  0.00  0.00    +0.000 C 
BRANCH  18  19
ATOM     19  O   UNL     1       1.209   1.578  18.670  0.00  0.00    +0.000 OA
ATOM     20  H   UNL     1       1.139   1.692  19.636  0.00  0.00    +0.000 HD
ENDBRANCH  18  19
ENDBRANCH   4  18
BRANCH   4  21
ATOM     21  C   UNL     1       3.634   3.174  17.666  0.00  0.00    +0.000 C 
BRANCH  21  22
ATOM     22  N   UNL     1       4.606   4.183  17.283  0.00  0.00    +0.000 N 
ATOM     23  C   UNL     1       5.638   4.559  18.118  0.00  0.00    +0.000 C 
ATOM     24  O   UNL     1       5.804   4.022  19.212  0.00  0.00    +0.000 OA
ATOM     25  H   UNL     1       4.421   4.735  16.456  0.00  0.00    +0.000 HD
BRANCH  23  26
ATOM     26  C   UNL     1       6.578   5.648  17.569  0.00  0.00    +0.000 C 
ATOM     27  C   UNL     1       5.802   6.944  17.290  0.00  0.00    +0.000 C 
ATOM     28  C   UNL     1       7.680   5.947  18.601  0.00  0.00    +0.000 C 
ATOM     29  C   UNL     1       7.237   5.142  16.277  0.00  0.00    +0.000 C 
ENDBRANCH  23  26
ENDBRANCH  21  22
ENDBRANCH   4  21
TORSDOF 11
ENDMDL
MODEL 3
REMARK VINA RESULT:      -6.8      0.763      2.638
REMARK  Name = 
REMARK  18 active torsions:
REMARK  status: ('A' for Active; 'I' for Inactive)
REMARK    1  A    between atoms: C_1  and  C_2
REMARK    2  A    between atoms: C_2  and  C_3
REMARK    3  A    between atoms: C_2  and  C_4
REMARK    4  A    between atoms: C_4  and  C_5
REMARK    5  A    between atoms: C_5  and  C_6
REMARK    6  A    between atoms: C_5  and  C_24
REMARK    7  A    between atoms: C_6  and  C_7
REMARK    8  A    between atoms: C_10  and  C_11
REMARK    9  A    between atoms: C_10  and  C_13
REMARK   10  A    between atoms: C_11  and  O_12
REMARK   11  A    between atoms: C_13  and  N_14
REMARK   12  A    between atoms: C_15  and  C_17
REMARK   13  A    between atoms: C_17  and  C_18
REMARK   14  A    between atoms: C_17  and  C_19
REMARK   15  A    between atoms: C_17  and  C_20
REMARK   16  A    between atoms: C_24  and  C_25
REMARK   17  A    between atoms: C_25  and  C_26
REMARK   18  A    between atoms: C_25  and  C_27
REMARK                            x       y       z     vdW  Elec       q    Type
REMARK                         _______ _______ _______ _____ _____    ______ ____
ROOT
ATOM      1  C   UNL     1       1.952   6.906  20.267  0.00  0.00    +0.000 C 
ATOM      2  C   UNL     1       2.188   5.653  19.824  0.00  0.00    +0.000 C 
ATOM      3  C   UNL     1       2.337   5.113  18.448  0.00  0.00    +0.000 C 
ATOM      4  C   UNL     1       2.615   3.617  18.663  0.00  0.00    +0.000 C 
ATOM      5  O   UNL     1       2.770   3.440  20.093  0.00  0.00    +0.000 OA
ATOM      6  C   UNL     1       2.439   4.557  20.787  0.00  0.00    +0.000 C 
ATOM      7  O   UNL     1       2.407   4.638  22.000  0.00  0.00    +0.000 OA
ENDROOT
BRANCH   1   8
ATOM      8  C   UNL     1       1.870   8.166  19.443  0.00  0.00    +0.000 C 
BRANCH   8   9
ATOM      9  C   UNL     1       0.709   9.165  19.739  0.00  0.00    +0.000 C 
BRANCH   9  10
ATOM     10  C   UNL     1       0.423  10.177  18.596  0.00  0.00    +0.000 C 
BRANCH  10  12
ATOM     11  C   UNL     1      -1.169  12.159  18.252  0.00  0.00    +0.000 C 
ATOM     12  C   UNL     1      -1.048  10.645  18.445  0.00  0.00    +0.000 C 
ATOM     13  C   UNL     1      -1.721   9.953  17.251  0.00  0.00    +0.000 C 
ENDBRANCH  10  12
ENDBRANCH   9  10
BRANCH   9  14
ATOM     14  C   UNL     1       0.962   9.873  21.097  0.00  0.00    +0.000 C 
BRANCH  14  15
ATOM     15  C   UNL     1      -0.261  10.065  22.028  0.00  0.00    +0.000 C 
ATOM     16  C   UNL     1      -0.046   9.503  23.437  0.00  0.00    +0.000 C 
ATOM     17  C   UNL     1      -0.606  11.556  22.129  0.00  0.00    +0.000 C 
ENDBRANCH  14  15
ENDBRANCH   9  14
ENDBRANCH   8   9
ENDBRANCH   1   8
BRANCH   4  18
ATOM     18  C   UNL     1       1.429   2.728  18.244  0.00  0.00    +0.000 C 
BRANCH  18  19
ATOM     19  O   UNL     1       1.888   1.610  17.477  0.00  0.00    +0.000 OA
ATOM     20  H   UNL     1       2.363   1.026  18.098  0.00  0.00    +0.000 HD
ENDBRANCH  18  19
ENDBRANCH   4  18
BRANCH   4  21
ATOM     21  C   UNL     1       3.941   3.153  18.016  0.00  0.00    +0.000 C 
BRANCH  21  22
ATOM     22  N   UNL     1       4.603   4.136  17.175  0.00  0.00    +0.000 N 
ATOM     23  C   UNL     1       5.808   4.709  17.530  0.00  0.00    +0.000 C 
ATOM     24  O   UNL     1       6.397   4.377  18.557  0.00  0.00    +0.000 OA
ATOM     25  H   UNL     1       4.086   4.526  16.399  0.00  0.00    +0.000 HD
BRANCH  23  26
ATOM     26  C   UNL     1       6.374   5.739  16.535  0.00  0.00    +0.000 C 
ATOM     27  C   UNL     1       7.109   5.035  15.384  0.00  0.00    +0.000 C 
ATOM     28  C   UNL     1       5.224   6.574  15.947  0.00  0.00    +0.000 C 
ATOM     29  C   UNL     1       7.338   6.679  17.275  0.00  0.00    +0.000 C 
ENDBRANCH  23  26
ENDBRANCH  21  22
ENDBRANCH   4  21
TORSDOF 11
ENDMDL
MODEL 4
REMARK VINA RESULT:      -6.8      4.546      7.689
REMARK  Name = 
REMARK  18 active torsions:
REMARK  status: ('A' for Active; 'I' for Inactive)
REMARK    1  A    between atoms: C_1  and  C_2
REMARK    2  A    between atoms: C_2  and  C_3
REMARK    3  A    between atoms: C_2  and  C_4
REMARK    4  A    between atoms: C_4  and  C_5
REMARK    5  A    between atoms: C_5  and  C_6
REMARK    6  A    between atoms: C_5  and  C_24
REMARK    7  A    between atoms: C_6  and  C_7
REMARK    8  A    between atoms: C_10  and  C_11
REMARK    9  A    between atoms: C_10  and  C_13
REMARK   10  A    between atoms: C_11  and  O_12
REMARK   11  A    between atoms: C_13  and  N_14
REMARK   12  A    between atoms: C_15  and  C_17
REMARK   13  A    between atoms: C_17  and  C_18
REMARK   14  A    between atoms: C_17  and  C_19
REMARK   15  A    between atoms: C_17  and  C_20
REMARK   16  A    between atoms: C_24  and  C_25
REMARK   17  A    between atoms: C_25  and  C_26
REMARK   18  A    between atoms: C_25  and  C_27
REMARK                            x       y       z     vdW  Elec       q    Type
REMARK                         _______ _______ _______ _____ _____    ______ ____
ROOT
ATOM      1  C   UNL     1       8.196   8.849  18.022  0.00  0.00    +0.000 C 
ATOM      2  C   UNL     1       7.662   7.609  18.025  0.00  0.00    +0.000 C 
ATOM      3  C   UNL     1       7.980   6.409  18.842  0.00  0.00    +0.000 C 
ATOM      4  C   UNL     1       6.980   5.351  18.352  0.00  0.00    +0.000 C 
ATOM      5  O   UNL     1       6.082   6.037  17.445  0.00  0.00    +0.000 OA
ATOM      6  C   UNL     1       6.499   7.296  17.165  0.00  0.00    +0.000 C 
ATOM      7  O   UNL     1       5.965   8.045  16.370  0.00  0.00    +0.000 OA
ENDROOT
BRANCH   1   8
ATOM      8  C   UNL     1       9.242   9.397  18.960  0.00  0.00    +0.000 C 
BRANCH   8   9
ATOM      9  C   UNL     1       9.292  10.939  19.188  0.00  0.00    +0.000 C 
BRANCH   9  10
ATOM     10  C   UNL     1      10.304  11.691  18.280  0.00  0.00    +0.000 C 
BRANCH  10  12
ATOM     11  C   UNL     1       8.236  13.081  17.669  0.00  0.00    +0.000 C 
ATOM     12  C   UNL     1       9.732  12.859  17.435  0.00  0.00    +0.000 C 
ATOM     13  C   UNL     1      10.468  14.170  17.748  0.00  0.00    +0.000 C 
ENDBRANCH  10  12
ENDBRANCH   9  10
BRANCH   9  14
ATOM     14  C   UNL     1       9.523  11.238  20.694  0.00  0.00    +0.000 C 
BRANCH  14  15
ATOM     15  C   UNL     1       8.901  12.541  21.254  0.00  0.00    +0.000 C 
ATOM     16  C   UNL     1       8.201  12.349  22.603  0.00  0.00    +0.000 C 
ATOM     17  C   UNL     1       9.990  13.612  21.401  0.00  0.00    +0.000 C 
ENDBRANCH  14  15
ENDBRANCH   9  14
ENDBRANCH   8   9
ENDBRANCH   1   8
BRANCH   4  18
ATOM     18  C   UNL     1       7.654   4.235  17.530  0.00  0.00    +0.000 C 
BRANCH  18  19
ATOM     19  O   UNL     1       7.809   4.641  16.167  0.00  0.00    +0.000 OA
ATOM     20  H   UNL     1       7.310   3.998  15.629  0.00  0.00    +0.000 HD
ENDBRANCH  18  19
ENDBRANCH   4  18
BRANCH   4  21
ATOM     21  C   UNL     1       6.103   4.779  19.490  0.00  0.00    +0.000 C 
BRANCH  21  22
ATOM     22  N   UNL     1       4.721   4.503  19.136  0.00  0.00    +0.000 N 
ATOM     23  C   UNL     1       4.127   3.287  19.402  0.00  0.00    +0.000 C 
ATOM     24  O   UNL     1       4.732   2.394  19.994  0.00  0.00    +0.000 OA
ATOM     25  H   UNL     1       4.242   5.160  18.534  0.00  0.00    +0.000 HD
BRANCH  23  26
ATOM     26  C   UNL     1       2.659   3.150  18.957  0.00  0.00    +0.000 C 
ATOM     27  C   UNL     1       2.066   4.524  18.613  0.00  0.00    +0.000 C 
ATOM     28  C   UNL     1       2.581   2.254  17.708  0.00  0.00    +0.000 C 
ATOM     29  C   UNL     1       1.847   2.496  20.085  0.00  0.00    +0.000 C 
ENDBRANCH  23  26
ENDBRANCH  21  22
ENDBRANCH   4  21
TORSDOF 11
ENDMDL
MODEL 5
REMARK VINA RESULT:      -6.8      0.964      1.633
REMARK  Name = 
REMARK  18 active torsions:
REMARK  status: ('A' for Active; 'I' for Inactive)
REMARK    1  A    between atoms: C_1  and  C_2
REMARK    2  A    between atoms: C_2  and  C_3
REMARK    3  A    between atoms: C_2  and  C_4
REMARK    4  A    between atoms: C_4  and  C_5
REMARK    5  A    between atoms: C_5  and  C_6
REMARK    6  A    between atoms: C_5  and  C_24
REMARK    7  A    between atoms: C_6  and  C_7
REMARK    8  A    between atoms: C_10  and  C_11
REMARK    9  A    between atoms: C_10  and  C_13
REMARK   10  A    between atoms: C_11  and  O_12
REMARK   11  A    between atoms: C_13  and  N_14
REMARK   12  A    between atoms: C_15  and  C_17
REMARK   13  A    between atoms: C_17  and  C_18
REMARK   14  A    between atoms: C_17  and  C_19
REMARK   15  A    between atoms: C_17  and  C_20
REMARK   16  A    between atoms: C_24  and  C_25
REMARK   17  A    between atoms: C_25  and  C_26
REMARK   18  A    between atoms: C_25  and  C_27
REMARK                            x       y       z     vdW  Elec       q    Type
REMARK                         _______ _______ _______ _____ _____    ______ ____
ROOT
ATOM      1  C   UNL     1       2.028   6.979  20.012  0.00  0.00    +0.000 C 
ATOM      2  C   UNL     1       2.188   5.705  19.596  0.00  0.00    +0.000 C 
ATOM      3  C   UNL     1       2.221   5.118  18.231  0.00  0.00    +0.000 C 
ATOM      4  C   UNL     1       2.460   3.620  18.476  0.00  0.00    +0.000 C 
ATOM      5  O   UNL     1       2.706   3.481  19.897  0.00  0.00    +0.000 OA
ATOM      6  C   UNL     1       2.465   4.630  20.575  0.00  0.00    +0.000 C 
ATOM      7  O   UNL     1       2.519   4.748  21.783  0.00  0.00    +0.000 OA
ENDROOT
BRANCH   1   8
ATOM      8  C   UNL     1       1.934   8.216  19.155  0.00  0.00    +0.000 C 
BRANCH   8   9
ATOM      9  C   UNL     1       1.335   9.508  19.790  0.00  0.00    +0.000 C 
BRANCH   9  10
ATOM     10  C   UNL     1       0.204   9.253  20.823  0.00  0.00    +0.000 C 
BRANCH  10  12
ATOM     11  C   UNL     1      -0.944  11.284  21.892  0.00  0.00    +0.000 C 
ATOM     12  C   UNL     1       0.148  10.221  22.034  0.00  0.00    +0.000 C 
ATOM     13  C   UNL     1      -0.098   9.449  23.339  0.00  0.00    +0.000 C 
ENDBRANCH  10  12
ENDBRANCH   9  10
BRANCH   9  14
ATOM     14  C   UNL     1       0.891  10.485  18.668  0.00  0.00    +0.000 C 
BRANCH  14  15
ATOM     15  C   UNL     1       1.178  11.990  18.893  0.00  0.00    +0.000 C 
ATOM     16  C   UNL     1       2.427  12.488  18.158  0.00  0.00    +0.000 C 
ATOM     17  C   UNL     1      -0.033  12.820  18.445  0.00  0.00    +0.000 C 
ENDBRANCH  14  15
ENDBRANCH   9  14
ENDBRANCH   8   9
ENDBRANCH   1   8
BRANCH   4  18
ATOM     18  C   UNL     1       1.217   2.765  18.167  0.00  0.00    +0.000 C 
BRANCH  18  19
ATOM     19  O   UNL     1       1.371   1.446  18.699  0.00  0.00    +0.000 OA
ATOM     20  H   UNL     1       1.757   1.550  19.589  0.00  0.00    +0.000 HD
ENDBRANCH  18  19
ENDBRANCH   4  18
BRANCH   4  21
ATOM     21  C   UNL     1       3.721   3.087  17.756  0.00  0.00    +0.000 C 
BRANCH  21  22
ATOM     22  N   UNL     1       4.645   4.102  17.281  0.00  0.00    +0.000 N 
ATOM     23  C   UNL     1       5.692   4.558  18.055  0.00  0.00    +0.000 C 
ATOM     24  O   UNL     1       5.914   4.090  19.171  0.00  0.00    +0.000 OA
ATOM     25  H   UNL     1       4.413   4.599  16.431  0.00  0.00    +0.000 HD
BRANCH  23  26
ATOM     26  C   UNL     1       6.576   5.642  17.410  0.00  0.00    +0.000 C 
ATOM     27  C   UNL     1       7.193   5.130  16.100  0.00  0.00    +0.000 C 
ATOM     28  C   UNL     1       5.724   6.885  17.101  0.00  0.00    +0.000 C 
ATOM     29  C   UNL     1       7.688   6.038  18.393  0.00  0.00    +0.000 C 
ENDBRANCH  23  26
ENDBRANCH  21  22
ENDBRANCH   4  21
TORSDOF 11
ENDMDL
MODEL 6
REMARK VINA RESULT:      -6.7      4.230      9.251
REMARK  Name = 
REMARK  18 active torsions:
REMARK  status: ('A' for Active; 'I' for Inactive)
REMARK    1  A    between atoms: C_1  and  C_2
REMARK    2  A    between atoms: C_2  and  C_3
REMARK    3  A    between atoms: C_2  and  C_4
REMARK    4  A    between atoms: C_4  and  C_5
REMARK    5  A    between atoms: C_5  and  C_6
REMARK    6  A    between atoms: C_5  and  C_24
REMARK    7  A    between atoms: C_6  and  C_7
REMARK    8  A    between atoms: C_10  and  C_11
REMARK    9  A    between atoms: C_10  and  C_13
REMARK   10  A    between atoms: C_11  and  O_12
REMARK   11  A    between atoms: C_13  and  N_14
REMARK   12  A    between atoms: C_15  and  C_17
REMARK   13  A    between atoms: C_17  and  C_18
REMARK   14  A    between atoms: C_17  and  C_19
REMARK   15  A    between atoms: C_17  and  C_20
REMARK   16  A    between atoms: C_24  and  C_25
REMARK   17  A    between atoms: C_25  and  C_26
REMARK   18  A    between atoms: C_25  and  C_27
REMARK                            x       y       z     vdW  Elec       q    Type
REMARK                         _______ _______ _______ _____ _____    ______ ____
ROOT
ATOM      1  C   UNL     1       2.196   8.262  18.994  0.00  0.00    +0.000 C 
ATOM      2  C   UNL     1       1.139   9.099  18.922  0.00  0.00    +0.000 C 
ATOM      3  C   UNL     1       0.581   9.876  17.785  0.00  0.00    +0.000 C 
ATOM      4  C   UNL     1      -0.635  10.596  18.387  0.00  0.00    +0.000 C 
ATOM      5  O   UNL     1      -0.787  10.072  19.730  0.00  0.00    +0.000 OA
ATOM      6  C   UNL     1       0.260   9.292  20.097  0.00  0.00    +0.000 C 
ATOM      7  O   UNL     1       0.408   8.803  21.200  0.00  0.00    +0.000 OA
ENDROOT
BRANCH   1   8
ATOM      8  C   UNL     1       3.074   7.799  17.859  0.00  0.00    +0.000 C 
BRANCH   8   9
ATOM      9  C   UNL     1       3.887   6.482  18.048  0.00  0.00    +0.000 C 
BRANCH   9  10
ATOM     10  C   UNL     1       5.129   6.354  17.123  0.00  0.00    +0.000 C 
BRANCH  10  12
ATOM     11  C   UNL     1       7.202   4.870  17.415  0.00  0.00    +0.000 C 
ATOM     12  C   UNL     1       6.496   6.164  17.831  0.00  0.00    +0.000 C 
ATOM     13  C   UNL     1       7.434   7.342  17.532  0.00  0.00    +0.000 C 
ENDBRANCH  10  12
ENDBRANCH   9  10
BRANCH   9  14
ATOM     14  C   UNL     1       2.939   5.259  17.924  0.00  0.00    +0.000 C 
BRANCH  14  15
ATOM     15  C   UNL     1       3.601   3.861  17.856  0.00  0.00    +0.000 C 
ATOM     16  C   UNL     1       4.177   3.394  19.197  0.00  0.00    +0.000 C 
ATOM     17  C   UNL     1       2.579   2.828  17.362  0.00  0.00    +0.000 C 
ENDBRANCH  14  15
ENDBRANCH   9  14
ENDBRANCH   8   9
ENDBRANCH   1   8
BRANCH   4  18
ATOM     18  C   UNL     1      -0.411  12.113  18.538  0.00  0.00    +0.000 C 
BRANCH  18  19
ATOM     19  O   UNL     1      -1.025  12.821  17.457  0.00  0.00    +0.000 OA
ATOM     20  H   UNL     1      -0.362  13.459  17.133  0.00  0.00    +0.000 HD
ENDBRANCH  18  19
ENDBRANCH   4  18
BRANCH   4  21
ATOM     21  C   UNL     1      -1.952  10.279  17.640  0.00  0.00    +0.000 C 
BRANCH  21  22
ATOM     22  N   UNL     1      -3.147  10.892  18.195  0.00  0.00    +0.000 N 
ATOM     23  C   UNL     1      -4.260  11.154  17.422  0.00  0.00    +0.000 C 
ATOM     24  O   UNL     1      -4.303  10.840  16.234  0.00  0.00    +0.000 OA
ATOM     25  H   UNL     1      -3.095  11.281  19.126  0.00  0.00    +0.000 HD
BRANCH  23  26
ATOM     26  C   UNL     1      -5.442  11.813  18.158  0.00  0.00    +0.000 C 
ATOM     27  C   UNL     1      -6.103  12.882  17.273  0.00  0.00    +0.000 C 
ATOM     28  C   UNL     1      -6.492  10.745  18.507  0.00  0.00    +0.000 C 
ATOM     29  C   UNL     1      -4.935  12.451  19.460  0.00  0.00    +0.000 C 
ENDBRANCH  23  26
ENDBRANCH  21  22
ENDBRANCH   4  21
TORSDOF 11
ENDMDL
MODEL 7
REMARK VINA RESULT:      -6.7      2.078      7.178
REMARK  Name = 
REMARK  18 active torsions:
REMARK  status: ('A' for Active; 'I' for Inactive)
REMARK    1  A    between atoms: C_1  and  C_2
REMARK    2  A    between atoms: C_2  and  C_3
REMARK    3  A    between atoms: C_2  and  C_4
REMARK    4  A    between atoms: C_4  and  C_5
REMARK    5  A    between atoms: C_5  and  C_6
REMARK    6  A    between atoms: C_5  and  C_24
REMARK    7  A    between atoms: C_6  and  C_7
REMARK    8  A    between atoms: C_10  and  C_11
REMARK    9  A    between atoms: C_10  and  C_13
REMARK   10  A    between atoms: C_11  and  O_12
REMARK   11  A    between atoms: C_13  and  N_14
REMARK   12  A    between atoms: C_15  and  C_17
REMARK   13  A    between atoms: C_17  and  C_18
REMARK   14  A    between atoms: C_17  and  C_19
REMARK   15  A    between atoms: C_17  and  C_20
REMARK   16  A    between atoms: C_24  and  C_25
REMARK   17  A    between atoms: C_25  and  C_26
REMARK   18  A    between atoms: C_25  and  C_27
REMARK                            x       y       z     vdW  Elec       q    Type
REMARK                         _______ _______ _______ _____ _____    ______ ____
ROOT
ATOM      1  C   UNL     1       4.055   3.641  17.342  0.00  0.00    +0.000 C 
ATOM      2  C   UNL     1       3.291   3.958  18.409  0.00  0.00    +0.000 C 
ATOM      3  C   UNL     1       3.611   4.699  19.656  0.00  0.00    +0.000 C 
ATOM      4  C   UNL     1       2.282   4.722  20.426  0.00  0.00    +0.000 C 
ATOM      5  O   UNL     1       1.289   4.163  19.530  0.00  0.00    +0.000 OA
ATOM      6  C   UNL     1       1.847   3.633  18.414  0.00  0.00    +0.000 C 
ATOM      7  O   UNL     1       1.237   3.034  17.550  0.00  0.00    +0.000 OA
ENDROOT
BRANCH   1   8
ATOM      8  C   UNL     1       5.480   4.060  17.081  0.00  0.00    +0.000 C 
BRANCH   8   9
ATOM      9  C   UNL     1       5.726   5.396  16.316  0.00  0.00    +0.000 C 
BRANCH   9  10
ATOM     10  C   UNL     1       5.533   5.304  14.778  0.00  0.00    +0.000 C 
BRANCH  10  12
ATOM     11  C   UNL     1       5.658   3.456  13.002  0.00  0.00    +0.000 C 
ATOM     12  C   UNL     1       6.432   4.284  14.032  0.00  0.00    +0.000 C 
ATOM     13  C   UNL     1       7.583   4.997  13.309  0.00  0.00    +0.000 C 
ENDBRANCH  10  12
ENDBRANCH   9  10
BRANCH   9  14
ATOM     14  C   UNL     1       7.118   5.968  16.697  0.00  0.00    +0.000 C 
BRANCH  14  15
ATOM     15  C   UNL     1       7.209   6.777  18.014  0.00  0.00    +0.000 C 
ATOM     16  C   UNL     1       7.873   6.003  19.158  0.00  0.00    +0.000 C 
ATOM     17  C   UNL     1       7.987   8.077  17.770  0.00  0.00    +0.000 C 
ENDBRANCH  14  15
ENDBRANCH   9  14
ENDBRANCH   8   9
ENDBRANCH   1   8
BRANCH   4  18
ATOM     18  C   UNL     1       2.303   3.812  21.669  0.00  0.00    +0.000 C 
BRANCH  18  19
ATOM     19  O   UNL     1       3.161   2.688  21.453  0.00  0.00    +0.000 OA
ATOM     20  H   UNL     1       2.631   2.024  20.972  0.00  0.00    +0.000 HD
ENDBRANCH  18  19
ENDBRANCH   4  18
BRANCH   4  21
ATOM     21  C   UNL     1       1.809   6.155  20.768  0.00  0.00    +0.000 C 
BRANCH  21  22
ATOM     22  N   UNL     1       1.819   7.096  19.661  0.00  0.00    +0.000 N 
ATOM     23  C   UNL     1       1.476   8.422  19.827  0.00  0.00    +0.000 C 
ATOM     24  O   UNL     1       1.187   8.876  20.933  0.00  0.00    +0.000 OA
ATOM     25  H   UNL     1       1.920   6.730  18.724  0.00  0.00    +0.000 HD
BRANCH  23  26
ATOM     26  C   UNL     1       1.529   9.288  18.554  0.00  0.00    +0.000 C 
ATOM     27  C   UNL     1       2.651   8.811  17.620  0.00  0.00    +0.000 C 
ATOM     28  C   UNL     1       0.189   9.188  17.806  0.00  0.00    +0.000 C 
ATOM     29  C   UNL     1       1.764  10.754  18.950  0.00  0.00    +0.000 C 
ENDBRANCH  23  26
ENDBRANCH  21  22
ENDBRANCH   4  21
TORSDOF 11
ENDMDL
MODEL 8
REMARK VINA RESULT:      -6.6      2.304      6.971
REMARK  Name = 
REMARK  18 active torsions:
REMARK  status: ('A' for Active; 'I' for Inactive)
REMARK    1  A    between atoms: C_1  and  C_2
REMARK    2  A    between atoms: C_2  and  C_3
REMARK    3  A    between atoms: C_2  and  C_4
REMARK    4  A    between atoms: C_4  and  C_5
REMARK    5  A    between atoms: C_5  and  C_6
REMARK    6  A    between atoms: C_5  and  C_24
REMARK    7  A    between atoms: C_6  and  C_7
REMARK    8  A    between atoms: C_10  and  C_11
REMARK    9  A    between atoms: C_10  and  C_13
REMARK   10  A    between atoms: C_11  and  O_12
REMARK   11  A    between atoms: C_13  and  N_14
REMARK   12  A    between atoms: C_15  and  C_17
REMARK   13  A    between atoms: C_17  and  C_18
REMARK   14  A    between atoms: C_17  and  C_19
REMARK   15  A    between atoms: C_17  and  C_20
REMARK   16  A    between atoms: C_24  and  C_25
REMARK   17  A    between atoms: C_25  and  C_26
REMARK   18  A    between atoms: C_25  and  C_27
REMARK                            x       y       z     vdW  Elec       q    Type
REMARK                         _______ _______ _______ _____ _____    ______ ____
ROOT
ATOM      1  C   UNL     1       4.188   3.812  17.078  0.00  0.00    +0.000 C 
ATOM      2  C   UNL     1       3.408   4.198  18.110  0.00  0.00    +0.000 C 
ATOM      3  C   UNL     1       3.754   4.649  19.483  0.00  0.00    +0.000 C 
ATOM      4  C   UNL     1       2.394   4.958  20.127  0.00  0.00    +0.000 C 
ATOM      5  O   UNL     1       1.411   4.831  19.069  0.00  0.00    +0.000 OA
ATOM      6  C   UNL     1       1.942   4.309  17.936  0.00  0.00    +0.000 C 
ATOM      7  O   UNL     1       1.309   4.029  16.937  0.00  0.00    +0.000 OA
ENDROOT
BRANCH   1   8
ATOM      8  C   UNL     1       5.694   3.829  17.014  0.00  0.00    +0.000 C 
BRANCH   8   9
ATOM      9  C   UNL     1       6.370   4.434  15.746  0.00  0.00    +0.000 C 
BRANCH   9  10
ATOM     10  C   UNL     1       6.892   5.886  15.924  0.00  0.00    +0.000 C 
BRANCH  10  12
ATOM     11  C   UNL     1       7.690   7.555  17.702  0.00  0.00    +0.000 C 
ATOM     12  C   UNL     1       6.603   6.558  17.292  0.00  0.00    +0.000 C 
ATOM     13  C   UNL     1       5.257   7.297  17.264  0.00  0.00    +0.000 C 
ENDBRANCH  10  12
ENDBRANCH   9  10
BRANCH   9  14
ATOM     14  C   UNL     1       5.415   4.302  14.529  0.00  0.00    +0.000 C 
BRANCH  14  15
ATOM     15  C   UNL     1       5.984   3.624  13.259  0.00  0.00    +0.000 C 
ATOM     16  C   UNL     1       4.938   3.420  12.158  0.00  0.00    +0.000 C 
ATOM     17  C   UNL     1       7.144   4.460  12.702  0.00  0.00    +0.000 C 
ENDBRANCH  14  15
ENDBRANCH   9  14
ENDBRANCH   8   9
ENDBRANCH   1   8
BRANCH   4  18
ATOM     18  C   UNL     1       2.002   3.930  21.205  0.00  0.00    +0.000 C 
BRANCH  18  19
ATOM     19  O   UNL     1       0.773   3.284  20.859  0.00  0.00    +0.000 OA
ATOM     20  H   UNL     1       0.170   3.415  21.614  0.00  0.00    +0.000 HD
ENDBRANCH  18  19
ENDBRANCH   4  18
BRANCH   4  21
ATOM     21  C   UNL     1       2.292   6.410  20.651  0.00  0.00    +0.000 C 
BRANCH  21  22
ATOM     22  N   UNL     1       2.051   7.423  19.637  0.00  0.00    +0.000 N 
ATOM     23  C   UNL     1       1.402   8.606  19.927  0.00  0.00    +0.000 C 
ATOM     24  O   UNL     1       1.036   8.873  21.070  0.00  0.00    +0.000 OA
ATOM     25  H   UNL     1       2.216   7.180  18.670  0.00  0.00    +0.000 HD
BRANCH  23  26
ATOM     26  C   UNL     1       1.217   9.572  18.742  0.00  0.00    +0.000 C 
ATOM     27  C   UNL     1       2.192   9.230  17.605  0.00  0.00    +0.000 C 
ATOM     28  C   UNL     1      -0.221   9.462  18.206  0.00  0.00    +0.000 C 
ATOM     29  C   UNL     1       1.455  11.012  19.221  0.00  0.00    +0.000 C 
ENDBRANCH  23  26
ENDBRANCH  21  22
ENDBRANCH   4  21
TORSDOF 11
ENDMDL
MODEL 9
REMARK VINA RESULT:      -6.6      4.345      7.402
REMARK  Name = 
REMARK  18 active torsions:
REMARK  status: ('A' for Active; 'I' for Inactive)
REMARK    1  A    between atoms: C_1  and  C_2
REMARK    2  A    between atoms: C_2  and  C_3
REMARK    3  A    between atoms: C_2  and  C_4
REMARK    4  A    between atoms: C_4  and  C_5
REMARK    5  A    between atoms: C_5  and  C_6
REMARK    6  A    between atoms: C_5  and  C_24
REMARK    7  A    between atoms: C_6  and  C_7
REMARK    8  A    between atoms: C_10  and  C_11
REMARK    9  A    between atoms: C_10  and  C_13
REMARK   10  A    between atoms: C_11  and  O_12
REMARK   11  A    between atoms: C_13  and  N_14
REMARK   12  A    between atoms: C_15  and  C_17
REMARK   13  A    between atoms: C_17  and  C_18
REMARK   14  A    between atoms: C_17  and  C_19
REMARK   15  A    between atoms: C_17  and  C_20
REMARK   16  A    between atoms: C_24  and  C_25
REMARK   17  A    between atoms: C_25  and  C_26
REMARK   18  A    between atoms: C_25  and  C_27
REMARK                            x       y       z     vdW  Elec       q    Type
REMARK                         _______ _______ _______ _____ _____    ______ ____
ROOT
ATOM      1  C   UNL     1       8.034   8.769  17.844  0.00  0.00    +0.000 C 
ATOM      2  C   UNL     1       7.453   7.552  17.899  0.00  0.00    +0.000 C 
ATOM      3  C   UNL     1       7.789   6.341  18.692  0.00  0.00    +0.000 C 
ATOM      4  C   UNL     1       6.708   5.324  18.295  0.00  0.00    +0.000 C 
ATOM      5  O   UNL     1       5.765   6.046  17.464  0.00  0.00    +0.000 OA
ATOM      6  C   UNL     1       6.209   7.286  17.142  0.00  0.00    +0.000 C 
ATOM      7  O   UNL     1       5.640   8.054  16.391  0.00  0.00    +0.000 OA
ENDROOT
BRANCH   1   8
ATOM      8  C   UNL     1       9.177   9.275  18.687  0.00  0.00    +0.000 C 
BRANCH   8   9
ATOM      9  C   UNL     1       9.320  10.815  18.887  0.00  0.00    +0.000 C 
BRANCH   9  10
ATOM     10  C   UNL     1       9.344  11.271  20.372  0.00  0.00    +0.000 C 
BRANCH  10  12
ATOM     11  C   UNL     1      11.834  11.731  19.954  0.00  0.00    +0.000 C 
ATOM     12  C   UNL     1      10.619  12.022  20.839  0.00  0.00    +0.000 C 
ATOM     13  C   UNL     1      10.385  13.539  20.852  0.00  0.00    +0.000 C 
ENDBRANCH  10  12
ENDBRANCH   9  10
BRANCH   9  14
ATOM     14  C   UNL     1       8.227  11.552  18.067  0.00  0.00    +0.000 C 
BRANCH  14  15
ATOM     15  C   UNL     1       8.640  12.877  17.380  0.00  0.00    +0.000 C 
ATOM     16  C   UNL     1       8.097  14.123  18.087  0.00  0.00    +0.000 C 
ATOM     17  C   UNL     1      10.170  12.968  17.307  0.00  0.00    +0.000 C 
ENDBRANCH  14  15
ENDBRANCH   9  14
ENDBRANCH   8   9
ENDBRANCH   1   8
BRANCH   4  18
ATOM     18  C   UNL     1       7.264   4.180  17.425  0.00  0.00    +0.000 C 
BRANCH  18  19
ATOM     19  O   UNL     1       6.209   3.554  16.688  0.00  0.00    +0.000 OA
ATOM     20  H   UNL     1       5.398   3.662  17.220  0.00  0.00    +0.000 HD
ENDBRANCH  18  19
ENDBRANCH   4  18
BRANCH   4  21
ATOM     21  C   UNL     1       5.909   4.791  19.507  0.00  0.00    +0.000 C 
BRANCH  21  22
ATOM     22  N   UNL     1       4.464   4.797  19.353  0.00  0.00    +0.000 N 
ATOM     23  C   UNL     1       3.747   3.638  19.140  0.00  0.00    +0.000 C 
ATOM     24  O   UNL     1       4.299   2.539  19.115  0.00  0.00    +0.000 OA
ATOM     25  H   UNL     1       4.000   5.688  19.235  0.00  0.00    +0.000 HD
BRANCH  23  26
ATOM     26  C   UNL     1       2.224   3.813  18.989  0.00  0.00    +0.000 C 
ATOM     27  C   UNL     1       1.650   4.605  20.174  0.00  0.00    +0.000 C 
ATOM     28  C   UNL     1       1.920   4.580  17.691  0.00  0.00    +0.000 C 
ATOM     29  C   UNL     1       1.561   2.430  18.912  0.00  0.00    +0.000 C 
ENDBRANCH  23  26
ENDBRANCH  21  22
ENDBRANCH   4  21
TORSDOF 11
ENDMDL
