MODEL 1
REMARK VINA RESULT:      -7.8      0.000      0.000
REMARK  Name = 
REMARK  6 active torsions:
REMARK  status: ('A' for Active; 'I' for Inactive)
REMARK    1  A    between atoms: C_1  and  O_2
REMARK    2  A    between atoms: O_2  and  C_3
REMARK    3  A    between atoms: C_15  and  O_16
REMARK    4  A    between atoms: O_16  and  C_17
REMARK    5  A    between atoms: C_18  and  O_19
REMARK    6  A    between atoms: O_19  and  C_20
REMARK                            x       y       z     vdW  Elec       q    Type
REMARK                         _______ _______ _______ _____ _____    ______ ____
ROOT
ATOM      1  C   UNL     1      -1.032  11.466  22.369  0.00  0.00    +0.000 A 
ATOM      2  C   UNL     1      -0.822  10.277  23.069  0.00  0.00    +0.000 A 
ATOM      3  C   UNL     1      -0.075   9.236  22.504  0.00  0.00    +0.000 A 
ATOM      4  C   UNL     1       0.471   9.390  21.225  0.00  0.00    +0.000 A 
ATOM      5  C   UNL     1       0.280  10.599  20.518  0.00  0.00    +0.000 A 
ATOM      6  C   UNL     1      -0.470  11.625  21.101  0.00  0.00    +0.000 A 
ATOM      7  N   UNL     1       0.809  10.777  19.230  0.00  0.00    +0.000 N 
ATOM      8  C   UNL     1       1.537   9.797  18.614  0.00  0.00    +0.000 A 
ATOM      9  N   UNL     1       2.033   9.971  17.437  0.00  0.00    +0.000 NA
ATOM     10  C   UNL     1       1.753   8.544  19.298  0.00  0.00    +0.000 A 
ATOM     11  C   UNL     1       2.411   7.382  18.963  0.00  0.00    +0.000 A 
ATOM     12  C   UNL     1       3.092   7.117  17.777  0.00  0.00    +0.000 A 
ATOM     13  C   UNL     1       3.660   5.817  17.751  0.00  0.00    +0.000 A 
ATOM     14  C   UNL     1       3.527   4.882  18.859  0.00  0.00    +0.000 A 
ATOM     15  C   UNL     1       2.817   5.190  20.063  0.00  0.00    +0.000 A 
ATOM     16  C   UNL     1       2.282   6.475  20.042  0.00  0.00    +0.000 A 
ATOM     17  C   UNL     1       1.548   7.090  21.029  0.00  0.00    +0.000 A 
ATOM     18  N   UNL     1       1.222   8.362  20.576  0.00  0.00    +0.000 N 
ATOM     19  H   UNL     1       0.662  11.661  18.774  0.00  0.00    +0.000 HD
ATOM     20  H   UNL     1       1.796  10.898  17.098  0.00  0.00    +0.000 HD
ENDROOT
BRANCH   1  22
ATOM     21  C   UNL     1      -3.010  12.186  23.451  0.00  0.00    +0.000 C 
ATOM     22  O   UNL     1      -1.788  12.520  22.801  0.00  0.00    +0.000 OA
ENDBRANCH   1  22
BRANCH  13  23
ATOM     23  O   UNL     1       4.374   5.387  16.652  0.00  0.00    +0.000 OA
ATOM     24  C   UNL     1       5.177   6.325  15.947  0.00  0.00    +0.000 C 
ENDBRANCH  13  23
BRANCH  14  25
ATOM     25  O   UNL     1       4.047   3.600  18.917  0.00  0.00    +0.000 OA
ATOM     26  C   UNL     1       3.778   2.788  20.051  0.00  0.00    +0.000 C 
ENDBRANCH  14  25
TORSDOF 3
ENDMDL
MODEL 2
REMARK VINA RESULT:      -7.7      2.236      8.058
REMARK  Name = 
REMARK  6 active torsions:
REMARK  status: ('A' for Active; 'I' for Inactive)
REMARK    1  A    between atoms: C_1  and  O_2
REMARK    2  A    between atoms: O_2  and  C_3
REMARK    3  A    between atoms: C_15  and  O_16
REMARK    4  A    between atoms: O_16  and  C_17
REMARK    5  A    between atoms: C_18  and  O_19
REMARK    6  A    between atoms: O_19  and  C_20
REMARK                            x       y       z     vdW  Elec       q    Type
REMARK                         _______ _______ _______ _____ _____    ______ ____
ROOT
ATOM      1  C   UNL     1       5.785   4.815  15.965  0.00  0.00    +0.000 A 
ATOM      2  C   UNL     1       5.412   6.062  15.461  0.00  0.00    +0.000 A 
ATOM      3  C   UNL     1       4.528   6.885  16.168  0.00  0.00    +0.000 A 
ATOM      4  C   UNL     1       4.015   6.456  17.397  0.00  0.00    +0.000 A 
ATOM      5  C   UNL     1       4.402   5.203  17.924  0.00  0.00    +0.000 A 
ATOM      6  C   UNL     1       5.286   4.397  17.200  0.00  0.00    +0.000 A 
ATOM      7  N   UNL     1       3.896   4.744  19.150  0.00  0.00    +0.000 N 
ATOM      8  C   UNL     1       3.019   5.491  19.886  0.00  0.00    +0.000 A 
ATOM      9  N   UNL     1       2.567   5.072  21.019  0.00  0.00    +0.000 NA
ATOM     10  C   UNL     1       2.591   6.776  19.383  0.00  0.00    +0.000 A 
ATOM     11  C   UNL     1       1.735   7.743  19.859  0.00  0.00    +0.000 A 
ATOM     12  C   UNL     1       1.013   7.711  21.050  0.00  0.00    +0.000 A 
ATOM     13  C   UNL     1       0.219   8.871  21.240  0.00  0.00    +0.000 A 
ATOM     14  C   UNL     1       0.181   9.961  20.274  0.00  0.00    +0.000 A 
ATOM     15  C   UNL     1       0.937   9.957  19.059  0.00  0.00    +0.000 A 
ATOM     16  C   UNL     1       1.700   8.802  18.919  0.00  0.00    +0.000 A 
ATOM     17  C   UNL     1       2.538   8.475  17.880  0.00  0.00    +0.000 A 
ATOM     18  N   UNL     1       3.088   7.232  18.162  0.00  0.00    +0.000 N 
ATOM     19  H   UNL     1       4.215   3.855  19.493  0.00  0.00    +0.000 HD
ATOM     20  H   UNL     1       2.963   4.161  21.230  0.00  0.00    +0.000 HD
ENDROOT
BRANCH   1  22
ATOM     21  C   UNL     1       6.567   3.938  13.911  0.00  0.00    +0.000 C 
ATOM     22  O   UNL     1       6.594   3.911  15.334  0.00  0.00    +0.000 OA
ENDBRANCH   1  22
BRANCH  13  23
ATOM     23  O   UNL     1      -0.559   9.010  22.370  0.00  0.00    +0.000 OA
ATOM     24  C   UNL     1       0.012   9.607  23.526  0.00  0.00    +0.000 C 
ENDBRANCH  13  23
BRANCH  14  25
ATOM     25  O   UNL     1      -0.562  11.124  20.380  0.00  0.00    +0.000 OA
ATOM     26  C   UNL     1      -1.208  11.647  19.228  0.00  0.00    +0.000 C 
ENDBRANCH  14  25
TORSDOF 3
ENDMDL
MODEL 3
REMARK VINA RESULT:      -7.6      1.207      7.328
REMARK  Name = 
REMARK  6 active torsions:
REMARK  status: ('A' for Active; 'I' for Inactive)
REMARK    1  A    between atoms: C_1  and  O_2
REMARK    2  A    between atoms: O_2  and  C_3
REMARK    3  A    between atoms: C_15  and  O_16
REMARK    4  A    between atoms: O_16  and  C_17
REMARK    5  A    between atoms: C_18  and  O_19
REMARK    6  A    between atoms: O_19  and  C_20
REMARK                            x       y       z     vdW  Elec       q    Type
REMARK                         _______ _______ _______ _____ _____    ______ ____
ROOT
ATOM      1  C   UNL     1       3.345   4.304  18.735  0.00  0.00    +0.000 A 
ATOM      2  C   UNL     1       2.786   4.264  20.014  0.00  0.00    +0.000 A 
ATOM      3  C   UNL     1       2.163   5.393  20.559  0.00  0.00    +0.000 A 
ATOM      4  C   UNL     1       2.095   6.574  19.812  0.00  0.00    +0.000 A 
ATOM      5  C   UNL     1       2.641   6.618  18.509  0.00  0.00    +0.000 A 
ATOM      6  C   UNL     1       3.260   5.479  17.986  0.00  0.00    +0.000 A 
ATOM      7  N   UNL     1       2.595   7.793  17.743  0.00  0.00    +0.000 N 
ATOM      8  C   UNL     1       2.013   8.935  18.218  0.00  0.00    +0.000 A 
ATOM      9  N   UNL     1       1.960  10.007  17.505  0.00  0.00    +0.000 NA
ATOM     10  C   UNL     1       1.446   8.937  19.547  0.00  0.00    +0.000 A 
ATOM     11  C   UNL     1       0.816   9.896  20.307  0.00  0.00    +0.000 A 
ATOM     12  C   UNL     1       0.545  11.213  19.940  0.00  0.00    +0.000 A 
ATOM     13  C   UNL     1      -0.119  11.940  20.960  0.00  0.00    +0.000 A 
ATOM     14  C   UNL     1      -0.465  11.348  22.245  0.00  0.00    +0.000 A 
ATOM     15  C   UNL     1      -0.170   9.990  22.587  0.00  0.00    +0.000 A 
ATOM     16  C   UNL     1       0.478   9.319  21.555  0.00  0.00    +0.000 A 
ATOM     17  C   UNL     1       0.903   8.011  21.546  0.00  0.00    +0.000 A 
ATOM     18  N   UNL     1       1.497   7.773  20.313  0.00  0.00    +0.000 N 
ATOM     19  H   UNL     1       2.981   7.770  16.815  0.00  0.00    +0.000 HD
ATOM     20  H   UNL     1       2.396   9.842  16.603  0.00  0.00    +0.000 HD
ENDROOT
BRANCH   1  22
ATOM     21  C   UNL     1       3.494   1.977  18.334  0.00  0.00    +0.000 C 
ATOM     22  O   UNL     1       4.024   3.282  18.131  0.00  0.00    +0.000 OA
ENDBRANCH   1  22
BRANCH  13  23
ATOM     23  O   UNL     1      -0.467  13.260  20.766  0.00  0.00    +0.000 OA
ATOM     24  C   UNL     1      -1.700  13.556  20.124  0.00  0.00    +0.000 C 
ENDBRANCH  13  23
BRANCH  14  25
ATOM     25  O   UNL     1      -1.110  11.983  23.292  0.00  0.00    +0.000 OA
ATOM     26  C   UNL     1      -2.530  11.980  23.343  0.00  0.00    +0.000 C 
ENDBRANCH  14  25
TORSDOF 3
ENDMDL
MODEL 4
REMARK VINA RESULT:      -7.0      1.167      1.274
REMARK  Name = 
REMARK  6 active torsions:
REMARK  status: ('A' for Active; 'I' for Inactive)
REMARK    1  A    between atoms: C_1  and  O_2
REMARK    2  A    between atoms: O_2  and  C_3
REMARK    3  A    between atoms: C_15  and  O_16
REMARK    4  A    between atoms: O_16  and  C_17
REMARK    5  A    between atoms: C_18  and  O_19
REMARK    6  A    between atoms: O_19  and  C_20
REMARK                            x       y       z     vdW  Elec       q    Type
REMARK                         _______ _______ _______ _____ _____    ______ ____
ROOT
ATOM      1  C   UNL     1      -1.096  12.783  22.033  0.00  0.00    +0.000 A 
ATOM      2  C   UNL     1      -1.061  11.657  22.858  0.00  0.00    +0.000 A 
ATOM      3  C   UNL     1      -0.421  10.484  22.441  0.00  0.00    +0.000 A 
ATOM      4  C   UNL     1       0.197  10.440  21.186  0.00  0.00    +0.000 A 
ATOM      5  C   UNL     1       0.183  11.582  20.353  0.00  0.00    +0.000 A 
ATOM      6  C   UNL     1      -0.463  12.743  20.789  0.00  0.00    +0.000 A 
ATOM      7  N   UNL     1       0.787  11.562  19.086  0.00  0.00    +0.000 N 
ATOM      8  C   UNL     1       1.418  10.446  18.611  0.00  0.00    +0.000 A 
ATOM      9  N   UNL     1       1.983  10.438  17.453  0.00  0.00    +0.000 NA
ATOM     10  C   UNL     1       1.452   9.255  19.427  0.00  0.00    +0.000 A 
ATOM     11  C   UNL     1       1.980   7.997  19.246  0.00  0.00    +0.000 A 
ATOM     12  C   UNL     1       2.676   7.532  18.132  0.00  0.00    +0.000 A 
ATOM     13  C   UNL     1       3.085   6.181  18.266  0.00  0.00    +0.000 A 
ATOM     14  C   UNL     1       2.791   5.388  19.452  0.00  0.00    +0.000 A 
ATOM     15  C   UNL     1       2.071   5.900  20.578  0.00  0.00    +0.000 A 
ATOM     16  C   UNL     1       1.695   7.228  20.400  0.00  0.00    +0.000 A 
ATOM     17  C   UNL     1       0.997   8.023  21.278  0.00  0.00    +0.000 A 
ATOM     18  N   UNL     1       0.847   9.270  20.684  0.00  0.00    +0.000 N 
ATOM     19  H   UNL     1       0.767  12.405  18.538  0.00  0.00    +0.000 HD
ATOM     20  H   UNL     1       1.874  11.345  17.011  0.00  0.00    +0.000 HD
ENDROOT
BRANCH   1  22
ATOM     21  C   UNL     1      -1.995  14.810  21.205  0.00  0.00    +0.000 C 
ATOM     22  O   UNL     1      -1.738  13.957  22.316  0.00  0.00    +0.000 OA
ENDBRANCH   1  22
BRANCH  13  23
ATOM     23  O   UNL     1       3.789   5.559  17.257  0.00  0.00    +0.000 OA
ATOM     24  C   UNL     1       4.863   6.257  16.642  0.00  0.00    +0.000 C 
ENDBRANCH  13  23
BRANCH  14  25
ATOM     25  O   UNL     1       3.150   4.068  19.665  0.00  0.00    +0.000 OA
ATOM     26  C   UNL     1       2.579   3.356  20.754  0.00  0.00    +0.000 C 
ENDBRANCH  14  25
TORSDOF 3
ENDMDL
MODEL 5
REMARK VINA RESULT:      -6.9      1.821      8.459
REMARK  Name = 
REMARK  6 active torsions:
REMARK  status: ('A' for Active; 'I' for Inactive)
REMARK    1  A    between atoms: C_1  and  O_2
REMARK    2  A    between atoms: O_2  and  C_3
REMARK    3  A    between atoms: C_15  and  O_16
REMARK    4  A    between atoms: O_16  and  C_17
REMARK    5  A    between atoms: C_18  and  O_19
REMARK    6  A    between atoms: O_19  and  C_20
REMARK                            x       y       z     vdW  Elec       q    Type
REMARK                         _______ _______ _______ _____ _____    ______ ____
ROOT
ATOM      1  C   UNL     1       2.564   7.379  18.617  0.00  0.00    +0.000 A 
ATOM      2  C   UNL     1       2.060   8.367  17.768  0.00  0.00    +0.000 A 
ATOM      3  C   UNL     1       1.236   9.384  18.263  0.00  0.00    +0.000 A 
ATOM      4  C   UNL     1       0.916   9.415  19.625  0.00  0.00    +0.000 A 
ATOM      5  C   UNL     1       1.438   8.430  20.495  0.00  0.00    +0.000 A 
ATOM      6  C   UNL     1       2.259   7.423  19.978  0.00  0.00    +0.000 A 
ATOM      7  N   UNL     1       1.126   8.432  21.863  0.00  0.00    +0.000 N 
ATOM      8  C   UNL     1       0.316   9.389  22.411  0.00  0.00    +0.000 A 
ATOM      9  N   UNL     1       0.044   9.395  23.671  0.00  0.00    +0.000 NA
ATOM     10  C   UNL     1      -0.243  10.412  21.558  0.00  0.00    +0.000 A 
ATOM     11  C   UNL     1      -1.079  11.481  21.785  0.00  0.00    +0.000 A 
ATOM     12  C   UNL     1      -1.632  11.870  23.003  0.00  0.00    +0.000 A 
ATOM     13  C   UNL     1      -2.454  13.020  22.889  0.00  0.00    +0.000 A 
ATOM     14  C   UNL     1      -2.680  13.699  21.620  0.00  0.00    +0.000 A 
ATOM     15  C   UNL     1      -2.095  13.268  20.386  0.00  0.00    +0.000 A 
ATOM     16  C   UNL     1      -1.296  12.140  20.550  0.00  0.00    +0.000 A 
ATOM     17  C   UNL     1      -0.590  11.470  19.581  0.00  0.00    +0.000 A 
ATOM     18  N   UNL     1       0.060  10.408  20.197  0.00  0.00    +0.000 N 
ATOM     19  H   UNL     1       1.535   7.722  22.445  0.00  0.00    +0.000 HD
ATOM     20  H   UNL     1       0.513   8.619  24.127  0.00  0.00    +0.000 HD
ENDROOT
BRANCH   1  22
ATOM     21  C   UNL     1       3.907   5.548  19.282  0.00  0.00    +0.000 C 
ATOM     22  O   UNL     1       3.329   6.313  18.231  0.00  0.00    +0.000 OA
ENDBRANCH   1  22
BRANCH  13  23
ATOM     23  O   UNL     1      -3.080  13.546  23.999  0.00  0.00    +0.000 OA
ATOM     24  C   UNL     1      -4.159  12.827  24.582  0.00  0.00    +0.000 C 
ENDBRANCH  13  23
BRANCH  14  25
ATOM     25  O   UNL     1      -3.464  14.821  21.419  0.00  0.00    +0.000 OA
ATOM     26  C   UNL     1      -4.808  14.666  20.986  0.00  0.00    +0.000 C 
ENDBRANCH  14  25
TORSDOF 3
ENDMDL
MODEL 6
REMARK VINA RESULT:      -6.9      1.686      7.146
REMARK  Name = 
REMARK  6 active torsions:
REMARK  status: ('A' for Active; 'I' for Inactive)
REMARK    1  A    between atoms: C_1  and  O_2
REMARK    2  A    between atoms: O_2  and  C_3
REMARK    3  A    between atoms: C_15  and  O_16
REMARK    4  A    between atoms: O_16  and  C_17
REMARK    5  A    between atoms: C_18  and  O_19
REMARK    6  A    between atoms: O_19  and  C_20
REMARK                            x       y       z     vdW  Elec       q    Type
REMARK                         _______ _______ _______ _____ _____    ______ ____
ROOT
ATOM      1  C   UNL     1       2.982   3.354  19.623  0.00  0.00    +0.000 A 
ATOM      2  C   UNL     1       2.362   3.610  20.848  0.00  0.00    +0.000 A 
ATOM      3  C   UNL     1       1.867   4.885  21.146  0.00  0.00    +0.000 A 
ATOM      4  C   UNL     1       1.990   5.914  20.205  0.00  0.00    +0.000 A 
ATOM      5  C   UNL     1       2.599   5.657  18.955  0.00  0.00    +0.000 A 
ATOM      6  C   UNL     1       3.087   4.377  18.679  0.00  0.00    +0.000 A 
ATOM      7  N   UNL     1       2.744   6.673  17.997  0.00  0.00    +0.000 N 
ATOM      8  C   UNL     1       2.295   7.943  18.228  0.00  0.00    +0.000 A 
ATOM      9  N   UNL     1       2.417   8.869  17.339  0.00  0.00    +0.000 NA
ATOM     10  C   UNL     1       1.671   8.252  19.493  0.00  0.00    +0.000 A 
ATOM     11  C   UNL     1       1.136   9.400  20.031  0.00  0.00    +0.000 A 
ATOM     12  C   UNL     1       1.058  10.653  19.426  0.00  0.00    +0.000 A 
ATOM     13  C   UNL     1       0.448  11.626  20.258  0.00  0.00    +0.000 A 
ATOM     14  C   UNL     1      -0.034  11.319  21.598  0.00  0.00    +0.000 A 
ATOM     15  C   UNL     1       0.064  10.019  22.188  0.00  0.00    +0.000 A 
ATOM     16  C   UNL     1       0.667   9.100  21.334  0.00  0.00    +0.000 A 
ATOM     17  C   UNL     1       0.916   7.771  21.579  0.00  0.00    +0.000 A 
ATOM     18  N   UNL     1       1.531   7.246  20.450  0.00  0.00    +0.000 N 
ATOM     19  H   UNL     1       3.167   6.438  17.116  0.00  0.00    +0.000 HD
ATOM     20  H   UNL     1       2.870   8.493  16.512  0.00  0.00    +0.000 HD
ENDROOT
BRANCH   1  22
ATOM     21  C   UNL     1       3.580   1.900  17.855  0.00  0.00    +0.000 C 
ATOM     22  O   UNL     1       3.549   2.165  19.252  0.00  0.00    +0.000 OA
ENDBRANCH   1  22
BRANCH  13  23
ATOM     23  O   UNL     1       0.285  12.922  19.816  0.00  0.00    +0.000 OA
ATOM     24  C   UNL     1       0.808  13.282  18.544  0.00  0.00    +0.000 C 
ENDBRANCH  13  23
BRANCH  14  25
ATOM     25  O   UNL     1      -0.640  12.205  22.473  0.00  0.00    +0.000 OA
ATOM     26  C   UNL     1      -1.866  11.846  23.092  0.00  0.00    +0.000 C 
ENDBRANCH  14  25
TORSDOF 3
ENDMDL
MODEL 7
REMARK VINA RESULT:      -6.8      2.035      8.406
REMARK  Name = 
REMARK  6 active torsions:
REMARK  status: ('A' for Active; 'I' for Inactive)
REMARK    1  A    between atoms: C_1  and  O_2
REMARK    2  A    between atoms: O_2  and  C_3
REMARK    3  A    between atoms: C_15  and  O_16
REMARK    4  A    between atoms: O_16  and  C_17
REMARK    5  A    between atoms: C_18  and  O_19
REMARK    6  A    between atoms: O_19  and  C_20
REMARK                            x       y       z     vdW  Elec       q    Type
REMARK                         _______ _______ _______ _____ _____    ______ ____
ROOT
ATOM      1  C   UNL     1       2.536   7.123  18.630  0.00  0.00    +0.000 A 
ATOM      2  C   UNL     1       2.121   8.116  17.741  0.00  0.00    +0.000 A 
ATOM      3  C   UNL     1       1.411   9.234  18.195  0.00  0.00    +0.000 A 
ATOM      4  C   UNL     1       1.118   9.361  19.558  0.00  0.00    +0.000 A 
ATOM      5  C   UNL     1       1.552   8.371  20.468  0.00  0.00    +0.000 A 
ATOM      6  C   UNL     1       2.259   7.262  19.992  0.00  0.00    +0.000 A 
ATOM      7  N   UNL     1       1.264   8.469  21.838  0.00  0.00    +0.000 N 
ATOM      8  C   UNL     1       0.564   9.527  22.348  0.00  0.00    +0.000 A 
ATOM      9  N   UNL     1       0.315   9.620  23.609  0.00  0.00    +0.000 NA
ATOM     10  C   UNL     1       0.097  10.560  21.453  0.00  0.00    +0.000 A 
ATOM     11  C   UNL     1      -0.623  11.719  21.637  0.00  0.00    +0.000 A 
ATOM     12  C   UNL     1      -1.114  12.219  22.841  0.00  0.00    +0.000 A 
ATOM     13  C   UNL     1      -1.818  13.440  22.681  0.00  0.00    +0.000 A 
ATOM     14  C   UNL     1      -1.995  14.077  21.383  0.00  0.00    +0.000 A 
ATOM     15  C   UNL     1      -1.477  13.532  20.165  0.00  0.00    +0.000 A 
ATOM     16  C   UNL     1      -0.793  12.338  20.375  0.00  0.00    +0.000 A 
ATOM     17  C   UNL     1      -0.173  11.554  19.430  0.00  0.00    +0.000 A 
ATOM     18  N   UNL     1       0.376  10.462  20.090  0.00  0.00    +0.000 N 
ATOM     19  H   UNL     1       1.609   7.749  22.449  0.00  0.00    +0.000 HD
ATOM     20  H   UNL     1       0.710   8.823  24.097  0.00  0.00    +0.000 HD
ENDROOT
BRANCH   1  22
ATOM     21  C   UNL     1       4.039   5.416  19.281  0.00  0.00    +0.000 C 
ATOM     22  O   UNL     1       3.183   5.968  18.288  0.00  0.00    +0.000 OA
ENDBRANCH   1  22
BRANCH  13  23
ATOM     23  O   UNL     1      -2.370  14.079  23.771  0.00  0.00    +0.000 OA
ATOM     24  C   UNL     1      -1.544  14.928  24.556  0.00  0.00    +0.000 C 
ENDBRANCH  13  23
BRANCH  14  25
ATOM     25  O   UNL     1      -2.665  15.263  21.137  0.00  0.00    +0.000 OA
ATOM     26  C   UNL     1      -1.955  16.366  20.590  0.00  0.00    +0.000 C 
ENDBRANCH  14  25
TORSDOF 3
ENDMDL
MODEL 8
REMARK VINA RESULT:      -6.8      1.770      7.993
REMARK  Name = 
REMARK  6 active torsions:
REMARK  status: ('A' for Active; 'I' for Inactive)
REMARK    1  A    between atoms: C_1  and  O_2
REMARK    2  A    between atoms: O_2  and  C_3
REMARK    3  A    between atoms: C_15  and  O_16
REMARK    4  A    between atoms: O_16  and  C_17
REMARK    5  A    between atoms: C_18  and  O_19
REMARK    6  A    between atoms: O_19  and  C_20
REMARK                            x       y       z     vdW  Elec       q    Type
REMARK                         _______ _______ _______ _____ _____    ______ ____
ROOT
ATOM      1  C   UNL     1       2.633   7.426  18.519  0.00  0.00    +0.000 A 
ATOM      2  C   UNL     1       2.350   7.199  19.868  0.00  0.00    +0.000 A 
ATOM      3  C   UNL     1       1.502   8.059  20.575  0.00  0.00    +0.000 A 
ATOM      4  C   UNL     1       0.928   9.157  19.924  0.00  0.00    +0.000 A 
ATOM      5  C   UNL     1       1.194   9.382  18.554  0.00  0.00    +0.000 A 
ATOM      6  C   UNL     1       2.044   8.510  17.867  0.00  0.00    +0.000 A 
ATOM      7  N   UNL     1       0.638  10.480  17.879  0.00  0.00    +0.000 N 
ATOM      8  C   UNL     1      -0.188  11.366  18.512  0.00  0.00    +0.000 A 
ATOM      9  N   UNL     1      -0.707  12.365  17.884  0.00  0.00    +0.000 NA
ATOM     10  C   UNL     1      -0.483  11.177  19.913  0.00  0.00    +0.000 A 
ATOM     11  C   UNL     1      -1.245  11.874  20.824  0.00  0.00    +0.000 A 
ATOM     12  C   UNL     1      -1.985  13.030  20.587  0.00  0.00    +0.000 A 
ATOM     13  C   UNL     1      -2.658  13.496  21.745  0.00  0.00    +0.000 A 
ATOM     14  C   UNL     1      -2.565  12.818  23.031  0.00  0.00    +0.000 A 
ATOM     15  C   UNL     1      -1.792  11.631  23.237  0.00  0.00    +0.000 A 
ATOM     16  C   UNL     1      -1.154  11.213  22.073  0.00  0.00    +0.000 A 
ATOM     17  C   UNL     1      -0.340  10.116  21.915  0.00  0.00    +0.000 A 
ATOM     18  N   UNL     1       0.073  10.091  20.589  0.00  0.00    +0.000 N 
ATOM     19  H   UNL     1       0.842  10.588  16.900  0.00  0.00    +0.000 HD
ATOM     20  H   UNL     1      -0.406  12.355  16.915  0.00  0.00    +0.000 HD
ENDROOT
BRANCH   1  22
ATOM     21  C   UNL     1       3.390   5.272  17.895  0.00  0.00    +0.000 C 
ATOM     22  O   UNL     1       3.488   6.685  17.751  0.00  0.00    +0.000 OA
ENDBRANCH   1  22
BRANCH  13  23
ATOM     23  O   UNL     1      -3.441  14.630  21.692  0.00  0.00    +0.000 OA
ATOM     24  C   UNL     1      -2.840  15.859  21.307  0.00  0.00    +0.000 C 
ENDBRANCH  13  23
BRANCH  14  25
ATOM     25  O   UNL     1      -3.186  13.203  24.207  0.00  0.00    +0.000 OA
ATOM     26  C   UNL     1      -4.341  12.503  24.648  0.00  0.00    +0.000 C 
ENDBRANCH  14  25
TORSDOF 3
ENDMDL
MODEL 9
REMARK VINA RESULT:      -6.7      1.760      2.551
REMARK  Name = 
REMARK  6 active torsions:
REMARK  status: ('A' for Active; 'I' for Inactive)
REMARK    1  A    between atoms: C_1  and  O_2
REMARK    2  A    between atoms: O_2  and  C_3
REMARK    3  A    between atoms: C_15  and  O_16
REMARK    4  A    between atoms: O_16  and  C_17
REMARK    5  A    between atoms: C_18  and  O_19
REMARK    6  A    between atoms: O_19  and  C_20
REMARK                            x       y       z     vdW  Elec       q    Type
REMARK                         _______ _______ _______ _____ _____    ______ ____
ROOT
ATOM      1  C   UNL     1       0.101  12.264  19.850  0.00  0.00    +0.000 A 
ATOM      2  C   UNL     1      -0.214  11.472  20.956  0.00  0.00    +0.000 A 
ATOM      3  C   UNL     1       0.223  10.145  21.034  0.00  0.00    +0.000 A 
ATOM      4  C   UNL     1       0.989   9.606  19.994  0.00  0.00    +0.000 A 
ATOM      5  C   UNL     1       1.329  10.407  18.880  0.00  0.00    +0.000 A 
ATOM      6  C   UNL     1       0.881  11.730  18.823  0.00  0.00    +0.000 A 
ATOM      7  N   UNL     1       2.089   9.889  17.820  0.00  0.00    +0.000 N 
ATOM      8  C   UNL     1       2.537   8.597  17.825  0.00  0.00    +0.000 A 
ATOM      9  N   UNL     1       3.247   8.131  16.855  0.00  0.00    +0.000 NA
ATOM     10  C   UNL     1       2.209   7.741  18.941  0.00  0.00    +0.000 A 
ATOM     11  C   UNL     1       2.487   6.427  19.241  0.00  0.00    +0.000 A 
ATOM     12  C   UNL     1       3.223   5.529  18.472  0.00  0.00    +0.000 A 
ATOM     13  C   UNL     1       3.321   4.247  19.070  0.00  0.00    +0.000 A 
ATOM     14  C   UNL     1       2.706   3.933  20.353  0.00  0.00    +0.000 A 
ATOM     15  C   UNL     1       1.955   4.883  21.115  0.00  0.00    +0.000 A 
ATOM     16  C   UNL     1       1.889   6.124  20.488  0.00  0.00    +0.000 A 
ATOM     17  C   UNL     1       1.253   7.255  20.941  0.00  0.00    +0.000 A 
ATOM     18  N   UNL     1       1.449   8.252  19.993  0.00  0.00    +0.000 N 
ATOM     19  H   UNL     1       2.321  10.502  17.058  0.00  0.00    +0.000 HD
ATOM     20  H   UNL     1       3.391   8.853  16.156  0.00  0.00    +0.000 HD
ENDROOT
BRANCH   1  22
ATOM     21  C   UNL     1       0.621  14.423  19.033  0.00  0.00    +0.000 C 
ATOM     22  O   UNL     1      -0.320  13.549  19.647  0.00  0.00    +0.000 OA
ENDBRANCH   1  22
BRANCH  13  23
ATOM     23  O   UNL     1       4.018   3.234  18.446  0.00  0.00    +0.000 OA
ATOM     24  C   UNL     1       3.291   2.232  17.748  0.00  0.00    +0.000 C 
ENDBRANCH  13  23
BRANCH  14  25
ATOM     25  O   UNL     1       2.752   2.713  21.006  0.00  0.00    +0.000 OA
ATOM     26  C   UNL     1       1.740   2.388  21.949  0.00  0.00    +0.000 C 
ENDBRANCH  14  25
TORSDOF 3
ENDMDL
