MODEL 1
REMARK VINA RESULT:      -8.3      0.000      0.000
REMARK  Name = 
REMARK  5 active torsions:
REMARK  status: ('A' for Active; 'I' for Inactive)
REMARK    1  A    between atoms: C_1  and  C_2
REMARK    2  A    between atoms: C_2  and  C_3
REMARK    3  A    between atoms: C_2  and  C_4
REMARK    4  A    between atoms: C_2  and  C_20
REMARK    5  A    between atoms: C_9  and  C_10
REMARK                            x       y       z     vdW  Elec       q    Type
REMARK                         _______ _______ _______ _____ _____    ______ ____
ROOT
ATOM      1  C   UNL     1       5.674   5.145  18.871  0.00  0.00    +0.000 C 
ATOM      2  O   UNL     1       5.987   4.456  19.850  0.00  0.00    +0.000 OA
ATOM      3  N   UNL     1       4.414   5.702  18.802  0.00  0.00    +0.000 N 
ATOM      4  C   UNL     1       3.446   5.532  19.878  0.00  0.00    +0.000 C 
ATOM      5  C   UNL     1       2.089   5.665  19.201  0.00  0.00    +0.000 C 
ATOM      6  C   UNL     1       2.343   6.640  18.053  0.00  0.00    +0.000 C 
ATOM      7  C   UNL     1       3.798   6.371  17.669  0.00  0.00    +0.000 C 
ENDROOT
BRANCH   6   8
ATOM      8  C   UNL     1       2.069   8.078  18.373  0.00  0.00    +0.000 A 
ATOM      9  C   UNL     1       2.161   9.174  17.529  0.00  0.00    +0.000 A 
ATOM     10  N   UNL     1       1.698  10.274  18.202  0.00  0.00    +0.000 N 
ATOM     11  C   UNL     1       1.326   9.922  19.467  0.00  0.00    +0.000 A 
ATOM     12  N   UNL     1       0.804  10.768  20.372  0.00  0.00    +0.000 NA
ATOM     13  C   UNL     1       0.517  10.166  21.548  0.00  0.00    +0.000 A 
ATOM     14  C   UNL     1       0.731   8.828  21.850  0.00  0.00    +0.000 A 
ATOM     15  C   UNL     1       1.272   7.994  20.873  0.00  0.00    +0.000 A 
ATOM     16  C   UNL     1       1.573   8.563  19.624  0.00  0.00    +0.000 A 
ATOM     17  H   UNL     1       1.610  11.210  17.836  0.00  0.00    +0.000 HD
ENDBRANCH   6   8
BRANCH   1  19
ATOM     18  C   UNL     1       6.895   7.038  17.790  0.00  0.00    +0.000 C 
ATOM     19  C   UNL     1       6.759   5.496  17.786  0.00  0.00    +0.000 C 
ATOM     20  C   UNL     1       8.120   4.932  18.269  0.00  0.00    +0.000 C 
BRANCH  19  21
ATOM     21  C   UNL     1       6.507   4.911  16.377  0.00  0.00    +0.000 A 
ATOM     22  C   UNL     1       5.574   3.879  16.140  0.00  0.00    +0.000 A 
ATOM     23  C   UNL     1       5.361   3.367  14.856  0.00  0.00    +0.000 A 
ATOM     24  C   UNL     1       6.077   3.877  13.780  0.00  0.00    +0.000 A 
ATOM     25 CL   UNL     1       5.809   3.250  12.201  0.00  0.00    +0.000 Cl
ATOM     26  C   UNL     1       7.014   4.885  13.981  0.00  0.00    +0.000 A 
ATOM     27  C   UNL     1       7.226   5.400  15.267  0.00  0.00    +0.000 A 
ENDBRANCH  19  21
ENDBRANCH   1  19
TORSDOF 3
ENDMDL
MODEL 2
REMARK VINA RESULT:      -7.6      8.138     10.695
REMARK  Name = 
REMARK  5 active torsions:
REMARK  status: ('A' for Active; 'I' for Inactive)
REMARK    1  A    between atoms: C_1  and  C_2
REMARK    2  A    between atoms: C_2  and  C_3
REMARK    3  A    between atoms: C_2  and  C_4
REMARK    4  A    between atoms: C_2  and  C_20
REMARK    5  A    between atoms: C_9  and  C_10
REMARK                            x       y       z     vdW  Elec       q    Type
REMARK                         _______ _______ _______ _____ _____    ______ ____
ROOT
ATOM      1  C   UNL     1      -1.005  10.988  18.773  0.00  0.00    +0.000 C 
ATOM      2  O   UNL     1      -0.270  10.029  18.502  0.00  0.00    +0.000 OA
ATOM      3  N   UNL     1      -2.335  10.953  18.407  0.00  0.00    +0.000 N 
ATOM      4  C   UNL     1      -2.911   9.793  17.740  0.00  0.00    +0.000 C 
ATOM      5  C   UNL     1      -4.084  10.347  16.944  0.00  0.00    +0.000 C 
ATOM      6  C   UNL     1      -4.572  11.528  17.780  0.00  0.00    +0.000 C 
ATOM      7  C   UNL     1      -3.301  12.037  18.461  0.00  0.00    +0.000 C 
ENDROOT
BRANCH   6   8
ATOM      8  C   UNL     1      -5.674  11.208  18.744  0.00  0.00    +0.000 A 
ATOM      9  C   UNL     1      -6.535  10.122  18.728  0.00  0.00    +0.000 A 
ATOM     10  N   UNL     1      -7.298  10.161  19.866  0.00  0.00    +0.000 N 
ATOM     11  C   UNL     1      -6.965  11.256  20.609  0.00  0.00    +0.000 A 
ATOM     12  N   UNL     1      -7.514  11.566  21.797  0.00  0.00    +0.000 NA
ATOM     13  C   UNL     1      -7.006  12.701  22.328  0.00  0.00    +0.000 A 
ATOM     14  C   UNL     1      -6.035  13.507  21.748  0.00  0.00    +0.000 A 
ATOM     15  C   UNL     1      -5.498  13.136  20.517  0.00  0.00    +0.000 A 
ATOM     16  C   UNL     1      -5.976  11.954  19.926  0.00  0.00    +0.000 A 
ATOM     17  H   UNL     1      -7.990   9.484  20.150  0.00  0.00    +0.000 HD
ENDBRANCH   6   8
BRANCH   1  19
ATOM     18  C   UNL     1       1.032  11.845  19.937  0.00  0.00    +0.000 C 
ATOM     19  C   UNL     1      -0.454  12.170  19.653  0.00  0.00    +0.000 C 
ATOM     20  C   UNL     1      -0.467  13.457  18.788  0.00  0.00    +0.000 C 
BRANCH  19  21
ATOM     21  C   UNL     1      -1.264  12.483  20.933  0.00  0.00    +0.000 A 
ATOM     22  C   UNL     1      -1.551  11.504  21.907  0.00  0.00    +0.000 A 
ATOM     23  C   UNL     1      -2.283  11.812  23.059  0.00  0.00    +0.000 A 
ATOM     24  C   UNL     1      -2.744  13.107  23.260  0.00  0.00    +0.000 A 
ATOM     25 CL   UNL     1      -3.639  13.485  24.680  0.00  0.00    +0.000 Cl
ATOM     26  C   UNL     1      -2.490  14.094  22.313  0.00  0.00    +0.000 A 
ATOM     27  C   UNL     1      -1.754  13.785  21.161  0.00  0.00    +0.000 A 
ENDBRANCH  19  21
ENDBRANCH   1  19
TORSDOF 3
ENDMDL
MODEL 3
REMARK VINA RESULT:      -7.6      0.957      1.976
REMARK  Name = 
REMARK  5 active torsions:
REMARK  status: ('A' for Active; 'I' for Inactive)
REMARK    1  A    between atoms: C_1  and  C_2
REMARK    2  A    between atoms: C_2  and  C_3
REMARK    3  A    between atoms: C_2  and  C_4
REMARK    4  A    between atoms: C_2  and  C_20
REMARK    5  A    between atoms: C_9  and  C_10
REMARK                            x       y       z     vdW  Elec       q    Type
REMARK                         _______ _______ _______ _____ _____    ______ ____
ROOT
ATOM      1  C   UNL     1       5.341   4.760  18.675  0.00  0.00    +0.000 C 
ATOM      2  O   UNL     1       5.837   3.800  19.279  0.00  0.00    +0.000 OA
ATOM      3  N   UNL     1       4.063   5.176  18.986  0.00  0.00    +0.000 N 
ATOM      4  C   UNL     1       3.290   4.537  20.043  0.00  0.00    +0.000 C 
ATOM      5  C   UNL     1       1.837   4.767  19.653  0.00  0.00    +0.000 C 
ATOM      6  C   UNL     1       1.859   6.108  18.923  0.00  0.00    +0.000 C 
ATOM      7  C   UNL     1       3.243   6.141  18.274  0.00  0.00    +0.000 C 
ENDROOT
BRANCH   6   8
ATOM      8  C   UNL     1       1.578   7.302  19.784  0.00  0.00    +0.000 A 
ATOM      9  C   UNL     1       1.485   7.356  21.166  0.00  0.00    +0.000 A 
ATOM     10  N   UNL     1       1.343   8.668  21.536  0.00  0.00    +0.000 N 
ATOM     11  C   UNL     1       1.323   9.463  20.427  0.00  0.00    +0.000 A 
ATOM     12  N   UNL     1       1.223  10.804  20.452  0.00  0.00    +0.000 NA
ATOM     13  C   UNL     1       1.230  11.353  19.216  0.00  0.00    +0.000 A 
ATOM     14  C   UNL     1       1.314  10.656  18.018  0.00  0.00    +0.000 A 
ATOM     15  C   UNL     1       1.420   9.267  18.051  0.00  0.00    +0.000 A 
ATOM     16  C   UNL     1       1.436   8.644  19.310  0.00  0.00    +0.000 A 
ATOM     17  H   UNL     1       1.284   9.024  22.478  0.00  0.00    +0.000 HD
ENDBRANCH   6   8
BRANCH   1  19
ATOM     18  C   UNL     1       5.725   7.047  17.747  0.00  0.00    +0.000 C 
ATOM     19  C   UNL     1       6.219   5.583  17.661  0.00  0.00    +0.000 C 
ATOM     20  C   UNL     1       7.681   5.579  18.181  0.00  0.00    +0.000 C 
BRANCH  19  21
ATOM     21  C   UNL     1       6.258   5.036  16.215  0.00  0.00    +0.000 A 
ATOM     22  C   UNL     1       7.343   5.270  15.345  0.00  0.00    +0.000 A 
ATOM     23  C   UNL     1       7.356   4.763  14.041  0.00  0.00    +0.000 A 
ATOM     24  C   UNL     1       6.284   4.010  13.581  0.00  0.00    +0.000 A 
ATOM     25 CL   UNL     1       6.305   3.382  11.979  0.00  0.00    +0.000 Cl
ATOM     26  C   UNL     1       5.191   3.772  14.408  0.00  0.00    +0.000 A 
ATOM     27  C   UNL     1       5.179   4.278  15.715  0.00  0.00    +0.000 A 
ENDBRANCH  19  21
ENDBRANCH   1  19
TORSDOF 3
ENDMDL
MODEL 4
REMARK VINA RESULT:      -7.4      7.180      9.643
REMARK  Name = 
REMARK  5 active torsions:
REMARK  status: ('A' for Active; 'I' for Inactive)
REMARK    1  A    between atoms: C_1  and  C_2
REMARK    2  A    between atoms: C_2  and  C_3
REMARK    3  A    between atoms: C_2  and  C_4
REMARK    4  A    between atoms: C_2  and  C_20
REMARK    5  A    between atoms: C_9  and  C_10
REMARK                            x       y       z     vdW  Elec       q    Type
REMARK                         _______ _______ _______ _____ _____    ______ ____
ROOT
ATOM      1  C   UNL     1      -1.147  10.508  18.350  0.00  0.00    +0.000 C 
ATOM      2  O   UNL     1      -0.602   9.606  17.701  0.00  0.00    +0.000 OA
ATOM      3  N   UNL     1      -2.471  10.815  18.114  0.00  0.00    +0.000 N 
ATOM      4  C   UNL     1      -3.264  10.074  17.143  0.00  0.00    +0.000 C 
ATOM      5  C   UNL     1      -4.340  11.052  16.694  0.00  0.00    +0.000 C 
ATOM      6  C   UNL     1      -4.586  11.920  17.927  0.00  0.00    +0.000 C 
ATOM      7  C   UNL     1      -3.226  11.947  18.624  0.00  0.00    +0.000 C 
ENDROOT
BRANCH   6   8
ATOM      8  C   UNL     1      -5.700  11.456  18.815  0.00  0.00    +0.000 A 
ATOM      9  C   UNL     1      -6.556  10.383  18.624  0.00  0.00    +0.000 A 
ATOM     10  N   UNL     1      -7.335  10.249  19.744  0.00  0.00    +0.000 N 
ATOM     11  C   UNL     1      -7.018  11.222  20.648  0.00  0.00    +0.000 A 
ATOM     12  N   UNL     1      -7.584  11.348  21.860  0.00  0.00    +0.000 NA
ATOM     13  C   UNL     1      -7.090  12.393  22.563  0.00  0.00    +0.000 A 
ATOM     14  C   UNL     1      -6.114  13.278  22.125  0.00  0.00    +0.000 A 
ATOM     15  C   UNL     1      -5.558  13.097  20.860  0.00  0.00    +0.000 A 
ATOM     16  C   UNL     1      -6.023  12.016  20.091  0.00  0.00    +0.000 A 
ATOM     17  H   UNL     1      -8.028   9.536  19.913  0.00  0.00    +0.000 HD
ENDBRANCH   6   8
BRANCH   1  19
ATOM     18  C   UNL     1      -1.429  11.557  20.600  0.00  0.00    +0.000 C 
ATOM     19  C   UNL     1      -0.369  11.199  19.530  0.00  0.00    +0.000 C 
ATOM     20  C   UNL     1       0.566  10.140  20.172  0.00  0.00    +0.000 C 
BRANCH  19  21
ATOM     21  C   UNL     1       0.522  12.398  19.131  0.00  0.00    +0.000 A 
ATOM     22  C   UNL     1       1.837  12.238  18.646  0.00  0.00    +0.000 A 
ATOM     23  C   UNL     1       2.623  13.338  18.288  0.00  0.00    +0.000 A 
ATOM     24  C   UNL     1       2.110  14.623  18.407  0.00  0.00    +0.000 A 
ATOM     25 CL   UNL     1       3.077  15.975  17.962  0.00  0.00    +0.000 Cl
ATOM     26  C   UNL     1       0.822  14.818  18.896  0.00  0.00    +0.000 A 
ATOM     27  C   UNL     1       0.034  13.716  19.251  0.00  0.00    +0.000 A 
ENDBRANCH  19  21
ENDBRANCH   1  19
TORSDOF 3
ENDMDL
MODEL 5
REMARK VINA RESULT:      -7.3      6.422      9.687
REMARK  Name = 
REMARK  5 active torsions:
REMARK  status: ('A' for Active; 'I' for Inactive)
REMARK    1  A    between atoms: C_1  and  C_2
REMARK    2  A    between atoms: C_2  and  C_3
REMARK    3  A    between atoms: C_2  and  C_4
REMARK    4  A    between atoms: C_2  and  C_20
REMARK    5  A    between atoms: C_9  and  C_10
REMARK                            x       y       z     vdW  Elec       q    Type
REMARK                         _______ _______ _______ _____ _____    ______ ____
ROOT
ATOM      1  C   UNL     1      -2.510  11.212  17.982  0.00  0.00    +0.000 C 
ATOM      2  O   UNL     1      -2.318  10.486  16.998  0.00  0.00    +0.000 OA
ATOM      3  N   UNL     1      -3.793  11.609  18.298  0.00  0.00    +0.000 N 
ATOM      4  C   UNL     1      -4.942  11.160  17.523  0.00  0.00    +0.000 C 
ATOM      5  C   UNL     1      -5.986  12.252  17.710  0.00  0.00    +0.000 C 
ATOM      6  C   UNL     1      -5.709  12.789  19.113  0.00  0.00    +0.000 C 
ATOM      7  C   UNL     1      -4.202  12.598  19.280  0.00  0.00    +0.000 C 
ENDROOT
BRANCH   6   8
ATOM      8  C   UNL     1      -6.513  12.151  20.204  0.00  0.00    +0.000 A 
ATOM      9  C   UNL     1      -7.181  10.937  20.176  0.00  0.00    +0.000 A 
ATOM     10  N   UNL     1      -7.676  10.688  21.430  0.00  0.00    +0.000 N 
ATOM     11  C   UNL     1      -7.361  11.721  22.265  0.00  0.00    +0.000 A 
ATOM     12  N   UNL     1      -7.678  11.769  23.571  0.00  0.00    +0.000 NA
ATOM     13  C   UNL     1      -7.247  12.900  24.174  0.00  0.00    +0.000 A 
ATOM     14  C   UNL     1      -6.559  13.938  23.558  0.00  0.00    +0.000 A 
ATOM     15  C   UNL     1      -6.252  13.833  22.203  0.00  0.00    +0.000 A 
ATOM     16  C   UNL     1      -6.662  12.670  21.529  0.00  0.00    +0.000 A 
ATOM     17  H   UNL     1      -8.178   9.865  21.727  0.00  0.00    +0.000 HD
ENDBRANCH   6   8
BRANCH   1  19
ATOM     18  C   UNL     1      -0.672  12.855  18.386  0.00  0.00    +0.000 C 
ATOM     19  C   UNL     1      -1.312  11.559  18.941  0.00  0.00    +0.000 C 
ATOM     20  C   UNL     1      -1.899  11.918  20.331  0.00  0.00    +0.000 C 
BRANCH  19  21
ATOM     21  C   UNL     1      -0.288  10.423  19.168  0.00  0.00    +0.000 A 
ATOM     22  C   UNL     1      -0.149   9.764  20.407  0.00  0.00    +0.000 A 
ATOM     23  C   UNL     1       0.783   8.736  20.588  0.00  0.00    +0.000 A 
ATOM     24  C   UNL     1       1.596   8.346  19.531  0.00  0.00    +0.000 A 
ATOM     25 CL   UNL     1       2.738   7.079  19.754  0.00  0.00    +0.000 Cl
ATOM     26  C   UNL     1       1.495   8.985  18.299  0.00  0.00    +0.000 A 
ATOM     27  C   UNL     1       0.560  10.012  18.118  0.00  0.00    +0.000 A 
ENDBRANCH  19  21
ENDBRANCH   1  19
TORSDOF 3
ENDMDL
MODEL 6
REMARK VINA RESULT:      -7.3      1.360      2.229
REMARK  Name = 
REMARK  5 active torsions:
REMARK  status: ('A' for Active; 'I' for Inactive)
REMARK    1  A    between atoms: C_1  and  C_2
REMARK    2  A    between atoms: C_2  and  C_3
REMARK    3  A    between atoms: C_2  and  C_4
REMARK    4  A    between atoms: C_2  and  C_20
REMARK    5  A    between atoms: C_9  and  C_10
REMARK                            x       y       z     vdW  Elec       q    Type
REMARK                         _______ _______ _______ _____ _____    ______ ____
ROOT
ATOM      1  C   UNL     1       6.103   4.967  17.682  0.00  0.00    +0.000 C 
ATOM      2  O   UNL     1       7.056   4.361  18.190  0.00  0.00    +0.000 OA
ATOM      3  N   UNL     1       4.871   4.945  18.302  0.00  0.00    +0.000 N 
ATOM      4  C   UNL     1       4.669   4.256  19.570  0.00  0.00    +0.000 C 
ATOM      5  C   UNL     1       3.192   3.885  19.577  0.00  0.00    +0.000 C 
ATOM      6  C   UNL     1       2.527   5.006  18.781  0.00  0.00    +0.000 C 
ATOM      7  C   UNL     1       3.603   5.423  17.779  0.00  0.00    +0.000 C 
ENDROOT
BRANCH   6   8
ATOM      8  C   UNL     1       2.010   6.145  19.606  0.00  0.00    +0.000 A 
ATOM      9  C   UNL     1       1.702   6.152  20.957  0.00  0.00    +0.000 A 
ATOM     10  N   UNL     1       1.385   7.436  21.319  0.00  0.00    +0.000 N 
ATOM     11  C   UNL     1       1.463   8.257  20.232  0.00  0.00    +0.000 A 
ATOM     12  N   UNL     1       1.238   9.582  20.260  0.00  0.00    +0.000 NA
ATOM     13  C   UNL     1       1.384  10.164  19.048  0.00  0.00    +0.000 A 
ATOM     14  C   UNL     1       1.713   9.512  17.867  0.00  0.00    +0.000 A 
ATOM     15  C   UNL     1       1.940   8.137  17.896  0.00  0.00    +0.000 A 
ATOM     16  C   UNL     1       1.819   7.483  19.134  0.00  0.00    +0.000 A 
ATOM     17  H   UNL     1       1.151   7.759  22.246  0.00  0.00    +0.000 HD
ENDBRANCH   6   8
BRANCH   1  19
ATOM     18  C   UNL     1       5.187   6.903  16.397  0.00  0.00    +0.000 C 
ATOM     19  C   UNL     1       6.339   5.870  16.415  0.00  0.00    +0.000 C 
ATOM     20  C   UNL     1       7.648   6.672  16.635  0.00  0.00    +0.000 C 
BRANCH  19  21
ATOM     21  C   UNL     1       6.499   5.112  15.076  0.00  0.00    +0.000 A 
ATOM     22  C   UNL     1       5.632   4.068  14.688  0.00  0.00    +0.000 A 
ATOM     23  C   UNL     1       5.795   3.399  13.471  0.00  0.00    +0.000 A 
ATOM     24  C   UNL     1       6.828   3.760  12.615  0.00  0.00    +0.000 A 
ATOM     25 CL   UNL     1       7.022   2.939  11.116  0.00  0.00    +0.000 Cl
ATOM     26  C   UNL     1       7.709   4.775  12.974  0.00  0.00    +0.000 A 
ATOM     27  C   UNL     1       7.544   5.447  14.192  0.00  0.00    +0.000 A 
ENDBRANCH  19  21
ENDBRANCH   1  19
TORSDOF 3
ENDMDL
MODEL 7
REMARK VINA RESULT:      -7.2      7.205      8.852
REMARK  Name = 
REMARK  5 active torsions:
REMARK  status: ('A' for Active; 'I' for Inactive)
REMARK    1  A    between atoms: C_1  and  C_2
REMARK    2  A    between atoms: C_2  and  C_3
REMARK    3  A    between atoms: C_2  and  C_4
REMARK    4  A    between atoms: C_2  and  C_20
REMARK    5  A    between atoms: C_9  and  C_10
REMARK                            x       y       z     vdW  Elec       q    Type
REMARK                         _______ _______ _______ _____ _____    ______ ____
ROOT
ATOM      1  C   UNL     1      10.071  15.340  18.965  0.00  0.00    +0.000 C 
ATOM      2  O   UNL     1      10.811  15.942  18.175  0.00  0.00    +0.000 OA
ATOM      3  N   UNL     1       8.742  15.695  19.061  0.00  0.00    +0.000 N 
ATOM      4  C   UNL     1       8.170  16.741  18.223  0.00  0.00    +0.000 C 
ATOM      5  C   UNL     1       6.995  17.281  19.027  0.00  0.00    +0.000 C 
ATOM      6  C   UNL     1       6.502  16.070  19.817  0.00  0.00    +0.000 C 
ATOM      7  C   UNL     1       7.771  15.250  20.046  0.00  0.00    +0.000 C 
ENDROOT
BRANCH   6   8
ATOM      8  C   UNL     1       5.402  15.293  19.162  0.00  0.00    +0.000 A 
ATOM      9  C   UNL     1       5.369  14.775  17.877  0.00  0.00    +0.000 A 
ATOM     10  N   UNL     1       4.226  14.029  17.743  0.00  0.00    +0.000 N 
ATOM     11  C   UNL     1       3.510  14.066  18.904  0.00  0.00    +0.000 A 
ATOM     12  N   UNL     1       2.352  13.412  19.106  0.00  0.00    +0.000 NA
ATOM     13  C   UNL     1       1.847  13.613  20.345  0.00  0.00    +0.000 A 
ATOM     14  C   UNL     1       2.412  14.407  21.334  0.00  0.00    +0.000 A 
ATOM     15  C   UNL     1       3.616  15.058  21.072  0.00  0.00    +0.000 A 
ATOM     16  C   UNL     1       4.195  14.872  19.805  0.00  0.00    +0.000 A 
ATOM     17  H   UNL     1       3.944  13.501  16.931  0.00  0.00    +0.000 HD
ENDBRANCH   6   8
BRANCH   1  19
ATOM     18  C   UNL     1      12.160  14.137  19.622  0.00  0.00    +0.000 C 
ATOM     19  C   UNL     1      10.618  14.087  19.746  0.00  0.00    +0.000 C 
ATOM     20  C   UNL     1      10.288  14.279  21.249  0.00  0.00    +0.000 C 
BRANCH  19  21
ATOM     21  C   UNL     1      10.017  12.725  19.326  0.00  0.00    +0.000 A 
ATOM     22  C   UNL     1      10.070  11.586  20.156  0.00  0.00    +0.000 A 
ATOM     23  C   UNL     1       9.517  10.365  19.756  0.00  0.00    +0.000 A 
ATOM     24  C   UNL     1       8.898  10.257  18.517  0.00  0.00    +0.000 A 
ATOM     25 CL   UNL     1       8.214   8.756  18.030  0.00  0.00    +0.000 Cl
ATOM     26  C   UNL     1       8.841  11.358  17.668  0.00  0.00    +0.000 A 
ATOM     27  C   UNL     1       9.393  12.582  18.070  0.00  0.00    +0.000 A 
ENDBRANCH  19  21
ENDBRANCH   1  19
TORSDOF 3
ENDMDL
MODEL 8
REMARK VINA RESULT:      -7.2      8.476     11.654
REMARK  Name = 
REMARK  5 active torsions:
REMARK  status: ('A' for Active; 'I' for Inactive)
REMARK    1  A    between atoms: C_1  and  C_2
REMARK    2  A    between atoms: C_2  and  C_3
REMARK    3  A    between atoms: C_2  and  C_4
REMARK    4  A    between atoms: C_2  and  C_20
REMARK    5  A    between atoms: C_9  and  C_10
REMARK                            x       y       z     vdW  Elec       q    Type
REMARK                         _______ _______ _______ _____ _____    ______ ____
ROOT
ATOM      1  C   UNL     1      -2.352  11.394  18.757  0.00  0.00    +0.000 C 
ATOM      2  O   UNL     1      -1.953  10.493  18.007  0.00  0.00    +0.000 OA
ATOM      3  N   UNL     1      -3.705  11.635  18.874  0.00  0.00    +0.000 N 
ATOM      4  C   UNL     1      -4.688  10.826  18.165  0.00  0.00    +0.000 C 
ATOM      5  C   UNL     1      -5.892  11.741  17.996  0.00  0.00    +0.000 C 
ATOM      6  C   UNL     1      -5.848  12.641  19.230  0.00  0.00    +0.000 C 
ATOM      7  C   UNL     1      -4.355  12.751  19.540  0.00  0.00    +0.000 C 
ENDROOT
BRANCH   6   8
ATOM      8  C   UNL     1      -6.663  12.161  20.392  0.00  0.00    +0.000 A 
ATOM      9  C   UNL     1      -7.308  10.943  20.539  0.00  0.00    +0.000 A 
ATOM     10  N   UNL     1      -7.824  10.881  21.808  0.00  0.00    +0.000 N 
ATOM     11  C   UNL     1      -7.545  12.036  22.479  0.00  0.00    +0.000 A 
ATOM     12  N   UNL     1      -7.892  12.278  23.755  0.00  0.00    +0.000 NA
ATOM     13  C   UNL     1      -7.494  13.498  24.184  0.00  0.00    +0.000 A 
ATOM     14  C   UNL     1      -6.813  14.442  23.427  0.00  0.00    +0.000 A 
ATOM     15  C   UNL     1      -6.475  14.137  22.110  0.00  0.00    +0.000 A 
ATOM     16  C   UNL     1      -6.849  12.875  21.617  0.00  0.00    +0.000 A 
ATOM     17  H   UNL     1      -8.317  10.102  22.219  0.00  0.00    +0.000 HD
ENDBRANCH   6   8
BRANCH   1  19
ATOM     18  C   UNL     1      -0.107  11.220  19.839  0.00  0.00    +0.000 C 
ATOM     19  C   UNL     1      -1.326  12.159  19.673  0.00  0.00    +0.000 C 
ATOM     20  C   UNL     1      -0.823  13.402  18.895  0.00  0.00    +0.000 C 
BRANCH  19  21
ATOM     21  C   UNL     1      -1.887  12.671  21.020  0.00  0.00    +0.000 A 
ATOM     22  C   UNL     1      -2.187  11.807  22.094  0.00  0.00    +0.000 A 
ATOM     23  C   UNL     1      -2.691  12.294  23.305  0.00  0.00    +0.000 A 
ATOM     24  C   UNL     1      -2.905  13.657  23.467  0.00  0.00    +0.000 A 
ATOM     25 CL   UNL     1      -3.520  14.255  24.958  0.00  0.00    +0.000 Cl
ATOM     26  C   UNL     1      -2.634  14.536  22.422  0.00  0.00    +0.000 A 
ATOM     27  C   UNL     1      -2.126  14.047  21.211  0.00  0.00    +0.000 A 
ENDBRANCH  19  21
ENDBRANCH   1  19
TORSDOF 3
ENDMDL
MODEL 9
REMARK VINA RESULT:      -7.2      7.305     10.319
REMARK  Name = 
REMARK  5 active torsions:
REMARK  status: ('A' for Active; 'I' for Inactive)
REMARK    1  A    between atoms: C_1  and  C_2
REMARK    2  A    between atoms: C_2  and  C_3
REMARK    3  A    between atoms: C_2  and  C_4
REMARK    4  A    between atoms: C_2  and  C_20
REMARK    5  A    between atoms: C_9  and  C_10
REMARK                            x       y       z     vdW  Elec       q    Type
REMARK                         _______ _______ _______ _____ _____    ______ ____
ROOT
ATOM      1  C   UNL     1      -1.301  10.470  18.211  0.00  0.00    +0.000 C 
ATOM      2  O   UNL     1      -0.770   9.662  17.437  0.00  0.00    +0.000 OA
ATOM      3  N   UNL     1      -2.632  10.793  18.051  0.00  0.00    +0.000 N 
ATOM      4  C   UNL     1      -3.448  10.173  17.015  0.00  0.00    +0.000 C 
ATOM      5  C   UNL     1      -4.542  11.191  16.724  0.00  0.00    +0.000 C 
ATOM      6  C   UNL     1      -4.758  11.894  18.063  0.00  0.00    +0.000 C 
ATOM      7  C   UNL     1      -3.379  11.844  18.721  0.00  0.00    +0.000 C 
ENDROOT
BRANCH   6   8
ATOM      8  C   UNL     1      -5.844  11.311  18.915  0.00  0.00    +0.000 A 
ATOM      9  C   UNL     1      -6.548  10.134  18.716  0.00  0.00    +0.000 A 
ATOM     10  N   UNL     1      -7.355   9.927  19.805  0.00  0.00    +0.000 N 
ATOM     11  C   UNL     1      -7.205  10.950  20.695  0.00  0.00    +0.000 A 
ATOM     12  N   UNL     1      -7.838  11.030  21.878  0.00  0.00    +0.000 NA
ATOM     13  C   UNL     1      -7.512  12.143  22.573  0.00  0.00    +0.000 A 
ATOM     14  C   UNL     1      -6.637  13.136  22.153  0.00  0.00    +0.000 A 
ATOM     15  C   UNL     1      -6.004  13.000  20.918  0.00  0.00    +0.000 A 
ATOM     16  C   UNL     1      -6.293  11.853  20.161  0.00  0.00    +0.000 A 
ATOM     17  H   UNL     1      -7.960   9.135  19.963  0.00  0.00    +0.000 HD
ENDBRANCH   6   8
BRANCH   1  19
ATOM     18  C   UNL     1      -1.063  10.286  20.691  0.00  0.00    +0.000 C 
ATOM     19  C   UNL     1      -0.494  11.012  19.448  0.00  0.00    +0.000 C 
ATOM     20  C   UNL     1       0.979  10.546  19.301  0.00  0.00    +0.000 C 
BRANCH  19  21
ATOM     21  C   UNL     1      -0.463  12.550  19.603  0.00  0.00    +0.000 A 
ATOM     22  C   UNL     1      -0.120  13.412  18.540  0.00  0.00    +0.000 A 
ATOM     23  C   UNL     1      -0.102  14.801  18.703  0.00  0.00    +0.000 A 
ATOM     24  C   UNL     1      -0.427  15.358  19.933  0.00  0.00    +0.000 A 
ATOM     25 CL   UNL     1      -0.409  17.067  20.130  0.00  0.00    +0.000 Cl
ATOM     26  C   UNL     1      -0.756  14.536  21.006  0.00  0.00    +0.000 A 
ATOM     27  C   UNL     1      -0.777  13.145  20.842  0.00  0.00    +0.000 A 
ENDBRANCH  19  21
ENDBRANCH   1  19
TORSDOF 3
ENDMDL
