MODEL 1
REMARK VINA RESULT:      -7.2      0.000      0.000
REMARK  Name = 
REMARK  1 active torsions:
REMARK  status: ('A' for Active; 'I' for Inactive)
REMARK    1  A    between atoms: N_3  and  C_4
REMARK                            x       y       z     vdW  Elec       q    Type
REMARK                         _______ _______ _______ _____ _____    ______ ____
ROOT
ATOM      1  O   UNL     1       2.010   5.997  20.767  0.00  0.00    +0.000 OA
ATOM      2  C   UNL     1       2.181   6.583  19.702  0.00  0.00    +0.000 C 
ATOM      3  N   UNL     1       2.527   5.929  18.534  0.00  0.00    +0.000 N 
ATOM      4  N   UNL     1       2.066   7.961  19.595  0.00  0.00    +0.000 N 
ATOM      5  C   UNL     1       2.158   8.758  18.368  0.00  0.00    +0.000 C 
ATOM      6  C   UNL     1       0.796   9.352  18.023  0.00  0.00    +0.000 C 
ATOM      7  N   UNL     1       0.179   9.954  19.194  0.00  0.00    +0.000 N 
ATOM      8  C   UNL     1       0.560   9.667  20.480  0.00  0.00    +0.000 A 
ATOM      9  N   UNL     1      -0.165  10.356  21.344  0.00  0.00    +0.000 NA
ATOM     10  C   UNL     1      -1.048  11.084  20.582  0.00  0.00    +0.000 A 
ATOM     11  C   UNL     1      -2.055  11.971  20.989  0.00  0.00    +0.000 A 
ATOM     12  C   UNL     1      -2.844  12.596  20.013  0.00  0.00    +0.000 A 
ATOM     13  C   UNL     1      -2.633  12.338  18.658  0.00  0.00    +0.000 A 
ATOM     14  C   UNL     1      -1.630  11.458  18.231  0.00  0.00    +0.000 A 
ATOM     15  C   UNL     1      -0.855  10.846  19.224  0.00  0.00    +0.000 A 
ATOM     16  C   UNL     1       1.676   8.715  20.797  0.00  0.00    +0.000 C 
ATOM     17  H   UNL     1       3.230   6.414  17.995  0.00  0.00    +0.000 HD
ENDROOT
BRANCH   3  18
ATOM     18  C   UNL     1       2.677   4.517  18.507  0.00  0.00    +0.000 A 
ATOM     19  C   UNL     1       1.591   3.687  18.208  0.00  0.00    +0.000 A 
ATOM     20  C   UNL     1       1.759   2.300  18.152  0.00  0.00    +0.000 A 
ATOM     21  C   UNL     1       3.010   1.733  18.398  0.00  0.00    +0.000 A 
ATOM     22  C   UNL     1       4.096   2.552  18.709  0.00  0.00    +0.000 A 
ATOM     23  C   UNL     1       3.931   3.938  18.756  0.00  0.00    +0.000 A 
ATOM     24 CL   UNL     1       5.281   4.913  19.226  0.00  0.00    +0.000 Cl
ENDBRANCH   3  18
TORSDOF 1
ENDMDL
MODEL 2
REMARK VINA RESULT:      -7.0      1.045      1.196
REMARK  Name = 
REMARK  1 active torsions:
REMARK  status: ('A' for Active; 'I' for Inactive)
REMARK    1  A    between atoms: N_3  and  C_4
REMARK                            x       y       z     vdW  Elec       q    Type
REMARK                         _______ _______ _______ _____ _____    ______ ____
ROOT
ATOM      1  O   UNL     1       1.983   6.043  20.877  0.00  0.00    +0.000 OA
ATOM      2  C   UNL     1       2.016   6.788  19.901  0.00  0.00    +0.000 C 
ATOM      3  N   UNL     1       2.175   6.325  18.609  0.00  0.00    +0.000 N 
ATOM      4  N   UNL     1       1.926   8.167  20.028  0.00  0.00    +0.000 N 
ATOM      5  C   UNL     1       1.865   9.147  18.939  0.00  0.00    +0.000 C 
ATOM      6  C   UNL     1       0.485   9.794  18.892  0.00  0.00    +0.000 C 
ATOM      7  N   UNL     1       0.057  10.207  20.218  0.00  0.00    +0.000 N 
ATOM      8  C   UNL     1       0.609   9.719  21.376  0.00  0.00    +0.000 A 
ATOM      9  N   UNL     1       0.034  10.267  22.431  0.00  0.00    +0.000 NA
ATOM     10  C   UNL     1      -0.927  11.111  21.928  0.00  0.00    +0.000 A 
ATOM     11  C   UNL     1      -1.842  11.928  22.610  0.00  0.00    +0.000 A 
ATOM     12  C   UNL     1      -2.743  12.703  21.867  0.00  0.00    +0.000 A 
ATOM     13  C   UNL     1      -2.735  12.660  20.473  0.00  0.00    +0.000 A 
ATOM     14  C   UNL     1      -1.828  11.854  19.773  0.00  0.00    +0.000 A 
ATOM     15  C   UNL     1      -0.937  11.089  20.536  0.00  0.00    +0.000 A 
ATOM     16  C   UNL     1       1.732   8.724  21.375  0.00  0.00    +0.000 C 
ATOM     17  H   UNL     1       2.807   6.885  18.055  0.00  0.00    +0.000 HD
ENDROOT
BRANCH   3  18
ATOM     18  C   UNL     1       2.280   4.934  18.341  0.00  0.00    +0.000 A 
ATOM     19  C   UNL     1       1.283   4.047  18.759  0.00  0.00    +0.000 A 
ATOM     20  C   UNL     1       1.381   2.684  18.460  0.00  0.00    +0.000 A 
ATOM     21  C   UNL     1       2.479   2.199  17.750  0.00  0.00    +0.000 A 
ATOM     22  C   UNL     1       3.485   3.073  17.340  0.00  0.00    +0.000 A 
ATOM     23  C   UNL     1       3.382   4.436  17.630  0.00  0.00    +0.000 A 
ATOM     24 CL   UNL     1       4.690   5.476  17.178  0.00  0.00    +0.000 Cl
ENDBRANCH   3  18
TORSDOF 1
ENDMDL
MODEL 3
REMARK VINA RESULT:      -6.8      2.390      8.079
REMARK  Name = 
REMARK  1 active torsions:
REMARK  status: ('A' for Active; 'I' for Inactive)
REMARK    1  A    between atoms: N_3  and  C_4
REMARK                            x       y       z     vdW  Elec       q    Type
REMARK                         _______ _______ _______ _____ _____    ______ ____
ROOT
ATOM      1  O   UNL     1       0.968   9.680  17.793  0.00  0.00    +0.000 OA
ATOM      2  C   UNL     1       0.960   9.215  18.930  0.00  0.00    +0.000 C 
ATOM      3  N   UNL     1       0.047   9.604  19.891  0.00  0.00    +0.000 N 
ATOM      4  N   UNL     1       1.894   8.278  19.346  0.00  0.00    +0.000 N 
ATOM      5  C   UNL     1       1.930   7.590  20.641  0.00  0.00    +0.000 C 
ATOM      6  C   UNL     1       1.609   6.110  20.459  0.00  0.00    +0.000 C 
ATOM      7  N   UNL     1       2.365   5.545  19.353  0.00  0.00    +0.000 N 
ATOM      8  C   UNL     1       2.949   6.304  18.371  0.00  0.00    +0.000 A 
ATOM      9  N   UNL     1       3.572   5.533  17.498  0.00  0.00    +0.000 NA
ATOM     10  C   UNL     1       3.358   4.245  17.927  0.00  0.00    +0.000 A 
ATOM     11  C   UNL     1       3.782   3.034  17.359  0.00  0.00    +0.000 A 
ATOM     12  C   UNL     1       3.426   1.831  17.984  0.00  0.00    +0.000 A 
ATOM     13  C   UNL     1       2.659   1.837  19.149  0.00  0.00    +0.000 A 
ATOM     14  C   UNL     1       2.228   3.035  19.734  0.00  0.00    +0.000 A 
ATOM     15  C   UNL     1       2.596   4.224  19.092  0.00  0.00    +0.000 A 
ATOM     16  C   UNL     1       2.879   7.803  18.363  0.00  0.00    +0.000 C 
ATOM     17  H   UNL     1       0.455   9.730  20.807  0.00  0.00    +0.000 HD
ENDROOT
BRANCH   3  18
ATOM     18  C   UNL     1      -0.963  10.559  19.595  0.00  0.00    +0.000 A 
ATOM     19  C   UNL     1      -1.844  10.360  18.527  0.00  0.00    +0.000 A 
ATOM     20  C   UNL     1      -2.854  11.291  18.265  0.00  0.00    +0.000 A 
ATOM     21  C   UNL     1      -2.987  12.427  19.063  0.00  0.00    +0.000 A 
ATOM     22  C   UNL     1      -2.105  12.641  20.122  0.00  0.00    +0.000 A 
ATOM     23  C   UNL     1      -1.101  11.706  20.390  0.00  0.00    +0.000 A 
ATOM     24 CL   UNL     1       0.024  12.047  21.660  0.00  0.00    +0.000 Cl
ENDBRANCH   3  18
TORSDOF 1
ENDMDL
MODEL 4
REMARK VINA RESULT:      -6.5      6.227      9.216
REMARK  Name = 
REMARK  1 active torsions:
REMARK  status: ('A' for Active; 'I' for Inactive)
REMARK    1  A    between atoms: N_3  and  C_4
REMARK                            x       y       z     vdW  Elec       q    Type
REMARK                         _______ _______ _______ _____ _____    ______ ____
ROOT
ATOM      1  O   UNL     1       7.640  10.120  17.846  0.00  0.00    +0.000 OA
ATOM      2  C   UNL     1       8.188   9.165  18.389  0.00  0.00    +0.000 C 
ATOM      3  N   UNL     1       9.124   9.310  19.395  0.00  0.00    +0.000 N 
ATOM      4  N   UNL     1       7.927   7.856  18.010  0.00  0.00    +0.000 N 
ATOM      5  C   UNL     1       8.448   6.638  18.639  0.00  0.00    +0.000 C 
ATOM      6  C   UNL     1       7.322   5.886  19.341  0.00  0.00    +0.000 C 
ATOM      7  N   UNL     1       6.155   5.776  18.482  0.00  0.00    +0.000 N 
ATOM      8  C   UNL     1       5.944   6.576  17.387  0.00  0.00    +0.000 A 
ATOM      9  N   UNL     1       4.810   6.256  16.790  0.00  0.00    +0.000 NA
ATOM     10  C   UNL     1       4.274   5.238  17.543  0.00  0.00    +0.000 A 
ATOM     11  C   UNL     1       3.070   4.539  17.368  0.00  0.00    +0.000 A 
ATOM     12  C   UNL     1       2.731   3.534  18.284  0.00  0.00    +0.000 A 
ATOM     13  C   UNL     1       3.574   3.236  19.355  0.00  0.00    +0.000 A 
ATOM     14  C   UNL     1       4.782   3.919  19.545  0.00  0.00    +0.000 A 
ATOM     15  C   UNL     1       5.100   4.919  18.617  0.00  0.00    +0.000 A 
ATOM     16  C   UNL     1       6.922   7.631  16.960  0.00  0.00    +0.000 C 
ATOM     17  H   UNL     1       9.913   8.686  19.304  0.00  0.00    +0.000 HD
ENDROOT
BRANCH   3  18
ATOM     18  C   UNL     1       9.483  10.598  19.877  0.00  0.00    +0.000 A 
ATOM     19  C   UNL     1       9.027  11.049  21.120  0.00  0.00    +0.000 A 
ATOM     20  C   UNL     1       9.414  12.305  21.598  0.00  0.00    +0.000 A 
ATOM     21  C   UNL     1      10.252  13.119  20.836  0.00  0.00    +0.000 A 
ATOM     22  C   UNL     1      10.702  12.683  19.590  0.00  0.00    +0.000 A 
ATOM     23  C   UNL     1      10.323  11.424  19.116  0.00  0.00    +0.000 A 
ATOM     24 CL   UNL     1      10.834  10.953  17.531  0.00  0.00    +0.000 Cl
ENDBRANCH   3  18
TORSDOF 1
ENDMDL
MODEL 5
REMARK VINA RESULT:      -6.5      2.949      8.063
REMARK  Name = 
REMARK  1 active torsions:
REMARK  status: ('A' for Active; 'I' for Inactive)
REMARK    1  A    between atoms: N_3  and  C_4
REMARK                            x       y       z     vdW  Elec       q    Type
REMARK                         _______ _______ _______ _____ _____    ______ ____
ROOT
ATOM      1  O   UNL     1       1.328   8.610  21.608  0.00  0.00    +0.000 OA
ATOM      2  C   UNL     1       1.263   8.810  20.399  0.00  0.00    +0.000 C 
ATOM      3  N   UNL     1       0.787   9.990  19.859  0.00  0.00    +0.000 N 
ATOM      4  N   UNL     1       1.639   7.846  19.474  0.00  0.00    +0.000 N 
ATOM      5  C   UNL     1       1.690   8.000  18.017  0.00  0.00    +0.000 C 
ATOM      6  C   UNL     1       3.137   7.976  17.536  0.00  0.00    +0.000 C 
ATOM      7  N   UNL     1       3.869   6.876  18.141  0.00  0.00    +0.000 N 
ATOM      8  C   UNL     1       3.452   6.224  19.274  0.00  0.00    +0.000 A 
ATOM      9  N   UNL     1       4.303   5.268  19.599  0.00  0.00    +0.000 NA
ATOM     10  C   UNL     1       5.302   5.330  18.657  0.00  0.00    +0.000 A 
ATOM     11  C   UNL     1       6.465   4.554  18.538  0.00  0.00    +0.000 A 
ATOM     12  C   UNL     1       7.349   4.816  17.482  0.00  0.00    +0.000 A 
ATOM     13  C   UNL     1       7.080   5.834  16.567  0.00  0.00    +0.000 A 
ATOM     14  C   UNL     1       5.924   6.618  16.667  0.00  0.00    +0.000 A 
ATOM     15  C   UNL     1       5.055   6.338  17.729  0.00  0.00    +0.000 A 
ATOM     16  C   UNL     1       2.177   6.576  19.983  0.00  0.00    +0.000 C 
ATOM     17  H   UNL     1       0.185   9.853  19.059  0.00  0.00    +0.000 HD
ENDROOT
BRANCH   3  18
ATOM     18  C   UNL     1       0.368  11.059  20.696  0.00  0.00    +0.000 A 
ATOM     19  C   UNL     1      -0.610  10.859  21.675  0.00  0.00    +0.000 A 
ATOM     20  C   UNL     1      -0.990  11.911  22.515  0.00  0.00    +0.000 A 
ATOM     21  C   UNL     1      -0.401  13.167  22.379  0.00  0.00    +0.000 A 
ATOM     22  C   UNL     1       0.568  13.379  21.398  0.00  0.00    +0.000 A 
ATOM     23  C   UNL     1       0.955  12.327  20.564  0.00  0.00    +0.000 A 
ATOM     24 CL   UNL     1       2.098  12.650  19.305  0.00  0.00    +0.000 Cl
ENDBRANCH   3  18
TORSDOF 1
ENDMDL
MODEL 6
REMARK VINA RESULT:      -6.5      3.367      8.315
REMARK  Name = 
REMARK  1 active torsions:
REMARK  status: ('A' for Active; 'I' for Inactive)
REMARK    1  A    between atoms: N_3  and  C_4
REMARK                            x       y       z     vdW  Elec       q    Type
REMARK                         _______ _______ _______ _____ _____    ______ ____
ROOT
ATOM      1  O   UNL     1       1.208  10.335  21.913  0.00  0.00    +0.000 OA
ATOM      2  C   UNL     1       1.051  10.458  20.702  0.00  0.00    +0.000 C 
ATOM      3  N   UNL     1       0.866  11.683  20.090  0.00  0.00    +0.000 N 
ATOM      4  N   UNL     1       1.018   9.362  19.852  0.00  0.00    +0.000 N 
ATOM      5  C   UNL     1       0.927   9.388  18.388  0.00  0.00    +0.000 C 
ATOM      6  C   UNL     1       2.235   8.904  17.772  0.00  0.00    +0.000 C 
ATOM      7  N   UNL     1       2.694   7.683  18.415  0.00  0.00    +0.000 N 
ATOM      8  C   UNL     1       2.254   7.267  19.646  0.00  0.00    +0.000 A 
ATOM      9  N   UNL     1       2.832   6.128  19.984  0.00  0.00    +0.000 NA
ATOM     10  C   UNL     1       3.681   5.826  18.946  0.00  0.00    +0.000 A 
ATOM     11  C   UNL     1       4.550   4.735  18.795  0.00  0.00    +0.000 A 
ATOM     12  C   UNL     1       5.333   4.648  17.635  0.00  0.00    +0.000 A 
ATOM     13  C   UNL     1       5.252   5.631  16.648  0.00  0.00    +0.000 A 
ATOM     14  C   UNL     1       4.388   6.726  16.779  0.00  0.00    +0.000 A 
ATOM     15  C   UNL     1       3.616   6.792  17.946  0.00  0.00    +0.000 A 
ATOM     16  C   UNL     1       1.232   8.030  20.436  0.00  0.00    +0.000 C 
ATOM     17  H   UNL     1       0.155  11.672  19.373  0.00  0.00    +0.000 HD
ENDROOT
BRANCH   3  18
ATOM     18  C   UNL     1       0.878  12.885  20.848  0.00  0.00    +0.000 A 
ATOM     19  C   UNL     1       2.031  13.673  20.922  0.00  0.00    +0.000 A 
ATOM     20  C   UNL     1       2.020  14.871  21.643  0.00  0.00    +0.000 A 
ATOM     21  C   UNL     1       0.861  15.285  22.300  0.00  0.00    +0.000 A 
ATOM     22  C   UNL     1      -0.290  14.500  22.242  0.00  0.00    +0.000 A 
ATOM     23  C   UNL     1      -0.283  13.308  21.513  0.00  0.00    +0.000 A 
ATOM     24 CL   UNL     1      -1.704  12.320  21.534  0.00  0.00    +0.000 Cl
ENDBRANCH   3  18
TORSDOF 1
ENDMDL
MODEL 7
REMARK VINA RESULT:      -6.5      4.136      8.383
REMARK  Name = 
REMARK  1 active torsions:
REMARK  status: ('A' for Active; 'I' for Inactive)
REMARK    1  A    between atoms: N_3  and  C_4
REMARK                            x       y       z     vdW  Elec       q    Type
REMARK                         _______ _______ _______ _____ _____    ______ ____
ROOT
ATOM      1  O   UNL     1       1.454  11.980  21.105  0.00  0.00    +0.000 OA
ATOM      2  C   UNL     1       1.428  11.729  19.904  0.00  0.00    +0.000 C 
ATOM      3  N   UNL     1       1.758  12.659  18.936  0.00  0.00    +0.000 N 
ATOM      4  N   UNL     1       1.034  10.489  19.422  0.00  0.00    +0.000 N 
ATOM      5  C   UNL     1       1.048  10.045  18.024  0.00  0.00    +0.000 C 
ATOM      6  C   UNL     1       2.111   8.969  17.825  0.00  0.00    +0.000 C 
ATOM      7  N   UNL     1       2.035   7.962  18.870  0.00  0.00    +0.000 N 
ATOM      8  C   UNL     1       1.397   8.163  20.069  0.00  0.00    +0.000 A 
ATOM      9  N   UNL     1       1.480   7.083  20.826  0.00  0.00    +0.000 NA
ATOM     10  C   UNL     1       2.212   6.179  20.094  0.00  0.00    +0.000 A 
ATOM     11  C   UNL     1       2.612   4.876  20.430  0.00  0.00    +0.000 A 
ATOM     12  C   UNL     1       3.372   4.142  19.510  0.00  0.00    +0.000 A 
ATOM     13  C   UNL     1       3.728   4.697  18.280  0.00  0.00    +0.000 A 
ATOM     14  C   UNL     1       3.336   5.994  17.924  0.00  0.00    +0.000 A 
ATOM     15  C   UNL     1       2.578   6.708  18.860  0.00  0.00    +0.000 A 
ATOM     16  C   UNL     1       0.693   9.446  20.401  0.00  0.00    +0.000 C 
ATOM     17  H   UNL     1       1.139  12.645  18.137  0.00  0.00    +0.000 HD
ENDROOT
BRANCH   3  18
ATOM     18  C   UNL     1       2.177  13.968  19.296  0.00  0.00    +0.000 A 
ATOM     19  C   UNL     1       3.507  14.222  19.645  0.00  0.00    +0.000 A 
ATOM     20  C   UNL     1       3.915  15.521  19.965  0.00  0.00    +0.000 A 
ATOM     21  C   UNL     1       2.997  16.571  19.944  0.00  0.00    +0.000 A 
ATOM     22  C   UNL     1       1.666  16.325  19.608  0.00  0.00    +0.000 A 
ATOM     23  C   UNL     1       1.259  15.029  19.279  0.00  0.00    +0.000 A 
ATOM     24 CL   UNL     1      -0.416  14.750  18.950  0.00  0.00    +0.000 Cl
ENDBRANCH   3  18
TORSDOF 1
ENDMDL
MODEL 8
REMARK VINA RESULT:      -6.4      2.504      3.592
REMARK  Name = 
REMARK  1 active torsions:
REMARK  status: ('A' for Active; 'I' for Inactive)
REMARK    1  A    between atoms: N_3  and  C_4
REMARK                            x       y       z     vdW  Elec       q    Type
REMARK                         _______ _______ _______ _____ _____    ______ ____
ROOT
ATOM      1  O   UNL     1       4.299   7.679  17.458  0.00  0.00    +0.000 OA
ATOM      2  C   UNL     1       3.687   6.927  18.211  0.00  0.00    +0.000 C 
ATOM      3  N   UNL     1       4.229   5.757  18.706  0.00  0.00    +0.000 N 
ATOM      4  N   UNL     1       2.381   7.185  18.603  0.00  0.00    +0.000 N 
ATOM      5  C   UNL     1       1.583   6.414  19.562  0.00  0.00    +0.000 C 
ATOM      6  C   UNL     1       1.349   7.232  20.828  0.00  0.00    +0.000 C 
ATOM      7  N   UNL     1       0.925   8.584  20.504  0.00  0.00    +0.000 N 
ATOM      8  C   UNL     1       1.111   9.159  19.272  0.00  0.00    +0.000 A 
ATOM      9  N   UNL     1       0.628  10.389  19.257  0.00  0.00    +0.000 NA
ATOM     10  C   UNL     1       0.143  10.608  20.524  0.00  0.00    +0.000 A 
ATOM     11  C   UNL     1      -0.462  11.755  21.061  0.00  0.00    +0.000 A 
ATOM     12  C   UNL     1      -0.871  11.740  22.402  0.00  0.00    +0.000 A 
ATOM     13  C   UNL     1      -0.678  10.606  23.191  0.00  0.00    +0.000 A 
ATOM     14  C   UNL     1      -0.080   9.450  22.673  0.00  0.00    +0.000 A 
ATOM     15  C   UNL     1       0.321   9.488  21.331  0.00  0.00    +0.000 A 
ATOM     16  C   UNL     1       1.753   8.428  18.130  0.00  0.00    +0.000 C 
ATOM     17  H   UNL     1       3.582   4.981  18.706  0.00  0.00    +0.000 HD
ENDROOT
BRANCH   3  18
ATOM     18  C   UNL     1       5.559   5.375  18.381  0.00  0.00    +0.000 A 
ATOM     19  C   UNL     1       6.622   5.693  19.232  0.00  0.00    +0.000 A 
ATOM     20  C   UNL     1       7.922   5.283  18.918  0.00  0.00    +0.000 A 
ATOM     21  C   UNL     1       8.168   4.559  17.751  0.00  0.00    +0.000 A 
ATOM     22  C   UNL     1       7.115   4.247  16.891  0.00  0.00    +0.000 A 
ATOM     23  C   UNL     1       5.815   4.648  17.209  0.00  0.00    +0.000 A 
ATOM     24 CL   UNL     1       4.549   4.315  16.076  0.00  0.00    +0.000 Cl
ENDBRANCH   3  18
TORSDOF 1
ENDMDL
MODEL 9
REMARK VINA RESULT:      -6.4      1.148      1.510
REMARK  Name = 
REMARK  1 active torsions:
REMARK  status: ('A' for Active; 'I' for Inactive)
REMARK    1  A    between atoms: N_3  and  C_4
REMARK                            x       y       z     vdW  Elec       q    Type
REMARK                         _______ _______ _______ _____ _____    ______ ____
ROOT
ATOM      1  O   UNL     1       2.098   5.816  20.785  0.00  0.00    +0.000 OA
ATOM      2  C   UNL     1       2.393   6.406  19.749  0.00  0.00    +0.000 C 
ATOM      3  N   UNL     1       2.913   5.763  18.642  0.00  0.00    +0.000 N 
ATOM      4  N   UNL     1       2.252   7.780  19.622  0.00  0.00    +0.000 N 
ATOM      5  C   UNL     1       2.485   8.579  18.415  0.00  0.00    +0.000 C 
ATOM      6  C   UNL     1       1.165   9.131  17.887  0.00  0.00    +0.000 C 
ATOM      7  N   UNL     1       0.378   9.714  18.961  0.00  0.00    +0.000 N 
ATOM      8  C   UNL     1       0.590   9.439  20.288  0.00  0.00    +0.000 A 
ATOM      9  N   UNL     1      -0.265  10.107  21.043  0.00  0.00    +0.000 NA
ATOM     10  C   UNL     1      -1.058  10.808  20.166  0.00  0.00    +0.000 A 
ATOM     11  C   UNL     1      -2.137  11.664  20.430  0.00  0.00    +0.000 A 
ATOM     12  C   UNL     1      -2.805  12.264  19.353  0.00  0.00    +0.000 A 
ATOM     13  C   UNL     1      -2.406  12.012  18.041  0.00  0.00    +0.000 A 
ATOM     14  C   UNL     1      -1.329  11.163  17.756  0.00  0.00    +0.000 A 
ATOM     15  C   UNL     1      -0.677  10.575  18.847  0.00  0.00    +0.000 A 
ATOM     16  C   UNL     1       1.681   8.522  20.757  0.00  0.00    +0.000 C 
ATOM     17  H   UNL     1       3.667   6.268  18.200  0.00  0.00    +0.000 HD
ENDROOT
BRANCH   3  18
ATOM     18  C   UNL     1       3.108   4.355  18.642  0.00  0.00    +0.000 A 
ATOM     19  C   UNL     1       4.210   3.785  19.286  0.00  0.00    +0.000 A 
ATOM     20  C   UNL     1       4.373   2.396  19.307  0.00  0.00    +0.000 A 
ATOM     21  C   UNL     1       3.442   1.570  18.679  0.00  0.00    +0.000 A 
ATOM     22  C   UNL     1       2.345   2.130  18.023  0.00  0.00    +0.000 A 
ATOM     23  C   UNL     1       2.176   3.517  18.010  0.00  0.00    +0.000 A 
ATOM     24 CL   UNL     1       0.850   4.177  17.115  0.00  0.00    +0.000 Cl
ENDBRANCH   3  18
TORSDOF 1
ENDMDL
