MODEL 1
REMARK VINA RESULT:      -9.3      0.000      0.000
REMARK  Name = 
REMARK  4 active torsions:
REMARK  status: ('A' for Active; 'I' for Inactive)
REMARK    1  A    between atoms: C_2  and  C_10
REMARK    2  A    between atoms: N_3  and  C_4
REMARK    3  A    between atoms: C_13  and  C_14
REMARK    4  A    between atoms: C_16  and  C_17
REMARK                            x       y       z     vdW  Elec       q    Type
REMARK                         _______ _______ _______ _____ _____    ______ ____
ROOT
ATOM      1  C   UNL     1       0.237  11.102  19.459  0.00  0.00    +0.000 A 
ATOM      2  C   UNL     1      -0.941  11.197  20.195  0.00  0.00    +0.000 A 
ATOM      3  C   UNL     1      -1.583  12.431  20.334  0.00  0.00    +0.000 A 
ATOM      4  C   UNL     1      -1.023  13.546  19.713  0.00  0.00    +0.000 A 
ATOM      5  C   UNL     1       0.152  13.376  19.003  0.00  0.00    +0.000 A 
ATOM      6  N   UNL     1       0.786  12.192  18.867  0.00  0.00    +0.000 NA
ENDROOT
BRANCH   3   7
ATOM      7  C   UNL     1      -2.767  12.540  21.188  0.00  0.00    +0.000 A 
ATOM      8  C   UNL     1      -2.890  12.282  22.547  0.00  0.00    +0.000 A 
ATOM      9  C   UNL     1      -4.188  12.667  22.955  0.00  0.00    +0.000 A 
ATOM     10  C   UNL     1      -4.853  13.080  21.818  0.00  0.00    +0.000 A 
ATOM     11  N   UNL     1      -4.002  12.986  20.752  0.00  0.00    +0.000 N 
ATOM     12  C   UNL     1      -6.238  13.613  21.804  0.00  0.00    +0.000 C 
ATOM     13  C   UNL     1      -6.945  13.212  23.116  0.00  0.00    +0.000 C 
ATOM     14  N   UNL     1      -6.082  13.204  24.298  0.00  0.00    +0.000 N 
ATOM     15  C   UNL     1      -4.789  12.717  24.276  0.00  0.00    +0.000 C 
ATOM     16  O   UNL     1      -4.206  12.392  25.304  0.00  0.00    +0.000 OA
ATOM     17  H   UNL     1      -4.222  13.237  19.799  0.00  0.00    +0.000 HD
ATOM     18  H   UNL     1      -6.506  13.159  25.216  0.00  0.00    +0.000 HD
ENDBRANCH   3   7
BRANCH   1  22
ATOM     19  C   UNL     1       2.428   7.401  19.048  0.00  0.00    +0.000 A 
ATOM     20  C   UNL     1       2.314   8.262  17.955  0.00  0.00    +0.000 A 
ATOM     21  C   UNL     1       1.597   9.461  18.086  0.00  0.00    +0.000 A 
ATOM     22  C   UNL     1       0.976   9.831  19.299  0.00  0.00    +0.000 A 
ATOM     23  C   UNL     1       1.099   8.941  20.378  0.00  0.00    +0.000 A 
ATOM     24  C   UNL     1       1.815   7.746  20.258  0.00  0.00    +0.000 A 
BRANCH  19  26
ATOM     25  O   UNL     1       3.172   5.387  19.973  0.00  0.00    +0.000 OA
ATOM     26  C   UNL     1       3.250   6.164  19.026  0.00  0.00    +0.000 C 
ATOM     27  N   UNL     1       4.066   5.929  17.924  0.00  0.00    +0.000 N 
ATOM     28  H   UNL     1       3.920   6.469  17.081  0.00  0.00    +0.000 HD
BRANCH  27  29
ATOM     29  C   UNL     1       4.766   4.647  17.836  0.00  0.00    +0.000 C 
ATOM     30  C   UNL     1       4.562   3.998  16.461  0.00  0.00    +0.000 C 
ATOM     31  C   UNL     1       5.473   4.591  15.390  0.00  0.00    +0.000 C 
ATOM     32  C   UNL     1       6.932   4.468  15.806  0.00  0.00    +0.000 C 
ATOM     33  C   UNL     1       7.186   5.202  17.118  0.00  0.00    +0.000 C 
ATOM     34  C   UNL     1       6.245   4.751  18.234  0.00  0.00    +0.000 C 
ENDBRANCH  27  29
ENDBRANCH  19  26
ENDBRANCH   1  22
TORSDOF 4
ENDMDL
MODEL 2
REMARK VINA RESULT:      -9.2      1.179      1.475
REMARK  Name = 
REMARK  4 active torsions:
REMARK  status: ('A' for Active; 'I' for Inactive)
REMARK    1  A    between atoms: C_2  and  C_10
REMARK    2  A    between atoms: N_3  and  C_4
REMARK    3  A    between atoms: C_13  and  C_14
REMARK    4  A    between atoms: C_16  and  C_17
REMARK                            x       y       z     vdW  Elec       q    Type
REMARK                         _______ _______ _______ _____ _____    ______ ____
ROOT
ATOM      1  C   UNL     1       0.338  11.166  19.245  0.00  0.00    +0.000 A 
ATOM      2  C   UNL     1      -0.878  11.275  19.915  0.00  0.00    +0.000 A 
ATOM      3  C   UNL     1      -1.505  12.519  20.031  0.00  0.00    +0.000 A 
ATOM      4  C   UNL     1      -0.891  13.629  19.454  0.00  0.00    +0.000 A 
ATOM      5  C   UNL     1       0.318  13.444  18.808  0.00  0.00    +0.000 A 
ATOM      6  N   UNL     1       0.938  12.251  18.695  0.00  0.00    +0.000 NA
ENDROOT
BRANCH   3   7
ATOM      7  C   UNL     1      -2.732  12.642  20.819  0.00  0.00    +0.000 A 
ATOM      8  C   UNL     1      -4.050  12.668  20.384  0.00  0.00    +0.000 A 
ATOM      9  C   UNL     1      -4.892  12.655  21.520  0.00  0.00    +0.000 A 
ATOM     10  C   UNL     1      -4.066  12.698  22.624  0.00  0.00    +0.000 A 
ATOM     11  N   UNL     1      -2.765  12.708  22.200  0.00  0.00    +0.000 N 
ATOM     12  C   UNL     1      -4.540  12.653  24.030  0.00  0.00    +0.000 C 
ATOM     13  C   UNL     1      -6.042  13.011  24.065  0.00  0.00    +0.000 C 
ATOM     14  N   UNL     1      -6.814  12.519  22.923  0.00  0.00    +0.000 N 
ATOM     15  C   UNL     1      -6.337  12.557  21.626  0.00  0.00    +0.000 C 
ATOM     16  O   UNL     1      -7.088  12.479  20.661  0.00  0.00    +0.000 OA
ATOM     17  H   UNL     1      -1.951  12.723  22.799  0.00  0.00    +0.000 HD
ATOM     18  H   UNL     1      -7.825  12.526  22.972  0.00  0.00    +0.000 HD
ENDBRANCH   3   7
BRANCH   1  22
ATOM     19  C   UNL     1       2.483   7.430  18.917  0.00  0.00    +0.000 A 
ATOM     20  C   UNL     1       2.422   8.290  17.820  0.00  0.00    +0.000 A 
ATOM     21  C   UNL     1       1.720   9.501  17.924  0.00  0.00    +0.000 A 
ATOM     22  C   UNL     1       1.061   9.883  19.113  0.00  0.00    +0.000 A 
ATOM     23  C   UNL     1       1.132   8.992  20.197  0.00  0.00    +0.000 A 
ATOM     24  C   UNL     1       1.833   7.786  20.103  0.00  0.00    +0.000 A 
BRANCH  19  26
ATOM     25  O   UNL     1       3.202   5.432  19.896  0.00  0.00    +0.000 OA
ATOM     26  C   UNL     1       3.286   6.179  18.926  0.00  0.00    +0.000 C 
ATOM     27  N   UNL     1       4.090   5.900  17.827  0.00  0.00    +0.000 N 
ATOM     28  H   UNL     1       3.947   6.417  16.969  0.00  0.00    +0.000 HD
BRANCH  27  29
ATOM     29  C   UNL     1       4.770   4.605  17.772  0.00  0.00    +0.000 C 
ATOM     30  C   UNL     1       4.607   3.952  16.392  0.00  0.00    +0.000 C 
ATOM     31  C   UNL     1       5.569   4.523  15.354  0.00  0.00    +0.000 C 
ATOM     32  C   UNL     1       7.008   4.376  15.827  0.00  0.00    +0.000 C 
ATOM     33  C   UNL     1       7.225   5.113  17.145  0.00  0.00    +0.000 C 
ATOM     34  C   UNL     1       6.234   4.685  18.225  0.00  0.00    +0.000 C 
ENDBRANCH  27  29
ENDBRANCH  19  26
ENDBRANCH   1  22
TORSDOF 4
ENDMDL
MODEL 3
REMARK VINA RESULT:      -9.2      2.618     11.153
REMARK  Name = 
REMARK  4 active torsions:
REMARK  status: ('A' for Active; 'I' for Inactive)
REMARK    1  A    between atoms: C_2  and  C_10
REMARK    2  A    between atoms: N_3  and  C_4
REMARK    3  A    between atoms: C_13  and  C_14
REMARK    4  A    between atoms: C_16  and  C_17
REMARK                            x       y       z     vdW  Elec       q    Type
REMARK                         _______ _______ _______ _____ _____    ______ ____
ROOT
ATOM      1  C   UNL     1       0.734   9.727  19.877  0.00  0.00    +0.000 A 
ATOM      2  C   UNL     1       1.241   8.482  20.241  0.00  0.00    +0.000 A 
ATOM      3  C   UNL     1       2.052   7.768  19.353  0.00  0.00    +0.000 A 
ATOM      4  C   UNL     1       2.343   8.337  18.115  0.00  0.00    +0.000 A 
ATOM      5  C   UNL     1       1.799   9.574  17.820  0.00  0.00    +0.000 A 
ATOM      6  N   UNL     1       1.009  10.271  18.665  0.00  0.00    +0.000 NA
ENDROOT
BRANCH   3   7
ATOM      7  C   UNL     1       2.501   6.420  19.705  0.00  0.00    +0.000 A 
ATOM      8  C   UNL     1       1.997   5.556  20.669  0.00  0.00    +0.000 A 
ATOM      9  C   UNL     1       2.664   4.315  20.542  0.00  0.00    +0.000 A 
ATOM     10  C   UNL     1       3.613   4.476  19.553  0.00  0.00    +0.000 A 
ATOM     11  N   UNL     1       3.525   5.749  19.062  0.00  0.00    +0.000 N 
ATOM     12  C   UNL     1       4.507   3.397  19.066  0.00  0.00    +0.000 C 
ATOM     13  C   UNL     1       4.536   2.258  20.108  0.00  0.00    +0.000 C 
ATOM     14  N   UNL     1       3.263   2.022  20.790  0.00  0.00    +0.000 N 
ATOM     15  C   UNL     1       2.441   3.048  21.216  0.00  0.00    +0.000 C 
ATOM     16  O   UNL     1       1.580   2.872  22.069  0.00  0.00    +0.000 OA
ATOM     17  H   UNL     1       4.093   6.135  18.320  0.00  0.00    +0.000 HD
ATOM     18  H   UNL     1       3.142   1.171  21.324  0.00  0.00    +0.000 HD
ENDBRANCH   3   7
BRANCH   1  22
ATOM     19  C   UNL     1      -1.871  11.977  22.487  0.00  0.00    +0.000 A 
ATOM     20  C   UNL     1      -1.798  12.306  21.132  0.00  0.00    +0.000 A 
ATOM     21  C   UNL     1      -0.948  11.579  20.285  0.00  0.00    +0.000 A 
ATOM     22  C   UNL     1      -0.149  10.516  20.761  0.00  0.00    +0.000 A 
ATOM     23  C   UNL     1      -0.236  10.215  22.131  0.00  0.00    +0.000 A 
ATOM     24  C   UNL     1      -1.084  10.931  22.980  0.00  0.00    +0.000 A 
BRANCH  19  26
ATOM     25  O   UNL     1      -3.675  11.937  23.973  0.00  0.00    +0.000 OA
ATOM     26  C   UNL     1      -2.817  12.626  23.431  0.00  0.00    +0.000 C 
ATOM     27  N   UNL     1      -2.682  13.989  23.674  0.00  0.00    +0.000 N 
ATOM     28  H   UNL     1      -1.829  14.456  23.391  0.00  0.00    +0.000 HD
BRANCH  27  29
ATOM     29  C   UNL     1      -3.518  14.599  24.707  0.00  0.00    +0.000 C 
ATOM     30  C   UNL     1      -2.661  15.194  25.833  0.00  0.00    +0.000 C 
ATOM     31  C   UNL     1      -2.079  16.557  25.472  0.00  0.00    +0.000 C 
ATOM     32  C   UNL     1      -3.192  17.529  25.103  0.00  0.00    +0.000 C 
ATOM     33  C   UNL     1      -3.990  17.013  23.911  0.00  0.00    +0.000 C 
ATOM     34  C   UNL     1      -4.531  15.601  24.134  0.00  0.00    +0.000 C 
ENDBRANCH  27  29
ENDBRANCH  19  26
ENDBRANCH   1  22
TORSDOF 4
ENDMDL
MODEL 4
REMARK VINA RESULT:      -9.1      1.901      2.231
REMARK  Name = 
REMARK  4 active torsions:
REMARK  status: ('A' for Active; 'I' for Inactive)
REMARK    1  A    between atoms: C_2  and  C_10
REMARK    2  A    between atoms: N_3  and  C_4
REMARK    3  A    between atoms: C_13  and  C_14
REMARK    4  A    between atoms: C_16  and  C_17
REMARK                            x       y       z     vdW  Elec       q    Type
REMARK                         _______ _______ _______ _____ _____    ______ ____
ROOT
ATOM      1  C   UNL     1       0.271  10.988  19.315  0.00  0.00    +0.000 A 
ATOM      2  C   UNL     1      -1.117  11.060  19.402  0.00  0.00    +0.000 A 
ATOM      3  C   UNL     1      -1.747  12.302  19.532  0.00  0.00    +0.000 A 
ATOM      4  C   UNL     1      -0.957  13.449  19.560  0.00  0.00    +0.000 A 
ATOM      5  C   UNL     1       0.416  13.299  19.474  0.00  0.00    +0.000 A 
ATOM      6  N   UNL     1       1.038  12.107  19.355  0.00  0.00    +0.000 NA
ENDROOT
BRANCH   3   7
ATOM      7  C   UNL     1      -3.198  12.362  19.720  0.00  0.00    +0.000 A 
ATOM      8  C   UNL     1      -4.206  11.887  18.892  0.00  0.00    +0.000 A 
ATOM      9  C   UNL     1      -5.441  12.048  19.561  0.00  0.00    +0.000 A 
ATOM     10  C   UNL     1      -5.165  12.688  20.752  0.00  0.00    +0.000 A 
ATOM     11  N   UNL     1      -3.815  12.893  20.838  0.00  0.00    +0.000 N 
ATOM     12  C   UNL     1      -6.179  13.010  21.787  0.00  0.00    +0.000 C 
ATOM     13  C   UNL     1      -7.584  12.948  21.150  0.00  0.00    +0.000 C 
ATOM     14  N   UNL     1      -7.750  11.906  20.136  0.00  0.00    +0.000 N 
ATOM     15  C   UNL     1      -6.779  11.616  19.196  0.00  0.00    +0.000 C 
ATOM     16  O   UNL     1      -7.043  11.012  18.163  0.00  0.00    +0.000 OA
ATOM     17  H   UNL     1      -3.334  13.329  21.613  0.00  0.00    +0.000 HD
ATOM     18  H   UNL     1      -8.683  11.663  19.828  0.00  0.00    +0.000 HD
ENDBRANCH   3   7
BRANCH   1  22
ATOM     19  C   UNL     1       2.422   7.252  19.042  0.00  0.00    +0.000 A 
ATOM     20  C   UNL     1       2.282   8.053  17.908  0.00  0.00    +0.000 A 
ATOM     21  C   UNL     1       1.578   9.264  17.994  0.00  0.00    +0.000 A 
ATOM     22  C   UNL     1       0.995   9.704  19.203  0.00  0.00    +0.000 A 
ATOM     23  C   UNL     1       1.144   8.872  20.325  0.00  0.00    +0.000 A 
ATOM     24  C   UNL     1       1.848   7.667  20.248  0.00  0.00    +0.000 A 
BRANCH  19  26
ATOM     25  O   UNL     1       2.915   5.108  19.835  0.00  0.00    +0.000 OA
ATOM     26  C   UNL     1       3.234   6.008  19.063  0.00  0.00    +0.000 C 
ATOM     27  N   UNL     1       4.318   5.908  18.197  0.00  0.00    +0.000 N 
ATOM     28  H   UNL     1       4.396   6.565  17.431  0.00  0.00    +0.000 HD
BRANCH  27  29
ATOM     29  C   UNL     1       5.031   4.633  18.117  0.00  0.00    +0.000 C 
ATOM     30  C   UNL     1       4.590   3.828  16.886  0.00  0.00    +0.000 C 
ATOM     31  C   UNL     1       5.259   4.305  15.601  0.00  0.00    +0.000 C 
ATOM     32  C   UNL     1       6.774   4.248  15.738  0.00  0.00    +0.000 C 
ATOM     33  C   UNL     1       7.249   5.130  16.887  0.00  0.00    +0.000 C 
ATOM     34  C   UNL     1       6.554   4.799  18.207  0.00  0.00    +0.000 C 
ENDBRANCH  27  29
ENDBRANCH  19  26
ENDBRANCH   1  22
TORSDOF 4
ENDMDL
MODEL 5
REMARK VINA RESULT:      -9.1      2.367     11.583
REMARK  Name = 
REMARK  4 active torsions:
REMARK  status: ('A' for Active; 'I' for Inactive)
REMARK    1  A    between atoms: C_2  and  C_10
REMARK    2  A    between atoms: N_3  and  C_4
REMARK    3  A    between atoms: C_13  and  C_14
REMARK    4  A    between atoms: C_16  and  C_17
REMARK                            x       y       z     vdW  Elec       q    Type
REMARK                         _______ _______ _______ _____ _____    ______ ____
ROOT
ATOM      1  C   UNL     1       1.609   7.106  20.417  0.00  0.00    +0.000 A 
ATOM      2  C   UNL     1       2.504   6.981  19.357  0.00  0.00    +0.000 A 
ATOM      3  C   UNL     1       2.996   5.723  19.000  0.00  0.00    +0.000 A 
ATOM      4  C   UNL     1       2.563   4.610  19.719  0.00  0.00    +0.000 A 
ATOM      5  C   UNL     1       1.678   4.812  20.763  0.00  0.00    +0.000 A 
ATOM      6  N   UNL     1       1.200   6.022  21.123  0.00  0.00    +0.000 NA
ENDROOT
BRANCH   3   7
ATOM      7  C   UNL     1       4.009   5.612  17.949  0.00  0.00    +0.000 A 
ATOM      8  C   UNL     1       5.128   6.404  17.727  0.00  0.00    +0.000 A 
ATOM      9  C   UNL     1       5.881   5.823  16.681  0.00  0.00    +0.000 A 
ATOM     10  C   UNL     1       5.164   4.731  16.237  0.00  0.00    +0.000 A 
ATOM     11  N   UNL     1       4.028   4.616  16.989  0.00  0.00    +0.000 N 
ATOM     12  C   UNL     1       5.620   3.804  15.171  0.00  0.00    +0.000 C 
ATOM     13  C   UNL     1       6.739   4.488  14.356  0.00  0.00    +0.000 C 
ATOM     14  N   UNL     1       7.635   5.339  15.140  0.00  0.00    +0.000 N 
ATOM     15  C   UNL     1       7.181   6.179  16.140  0.00  0.00    +0.000 C 
ATOM     16  O   UNL     1       7.854   7.120  16.544  0.00  0.00    +0.000 OA
ATOM     17  H   UNL     1       3.326   3.895  16.890  0.00  0.00    +0.000 HD
ATOM     18  H   UNL     1       8.505   5.649  14.729  0.00  0.00    +0.000 HD
ENDBRANCH   3   7
BRANCH   1  22
ATOM     19  C   UNL     1      -0.009  10.892  21.724  0.00  0.00    +0.000 A 
ATOM     20  C   UNL     1       0.570  10.788  20.459  0.00  0.00    +0.000 A 
ATOM     21  C   UNL     1       1.101   9.560  20.036  0.00  0.00    +0.000 A 
ATOM     22  C   UNL     1       1.074   8.412  20.857  0.00  0.00    +0.000 A 
ATOM     23  C   UNL     1       0.494   8.549  22.129  0.00  0.00    +0.000 A 
ATOM     24  C   UNL     1      -0.042   9.768  22.556  0.00  0.00    +0.000 A 
BRANCH  19  26
ATOM     25  O   UNL     1      -0.058  13.179  22.209  0.00  0.00    +0.000 OA
ATOM     26  C   UNL     1      -0.684  12.123  22.211  0.00  0.00    +0.000 C 
ATOM     27  N   UNL     1      -2.004  12.031  22.639  0.00  0.00    +0.000 N 
ATOM     28  H   UNL     1      -2.540  11.205  22.404  0.00  0.00    +0.000 HD
BRANCH  27  29
ATOM     29  C   UNL     1      -2.712  13.264  22.984  0.00  0.00    +0.000 C 
ATOM     30  C   UNL     1      -3.679  13.679  21.867  0.00  0.00    +0.000 C 
ATOM     31  C   UNL     1      -4.988  12.896  21.900  0.00  0.00    +0.000 C 
ATOM     32  C   UNL     1      -5.666  13.053  23.253  0.00  0.00    +0.000 C 
ATOM     33  C   UNL     1      -4.768  12.542  24.374  0.00  0.00    +0.000 C 
ATOM     34  C   UNL     1      -3.387  13.194  24.362  0.00  0.00    +0.000 C 
ENDBRANCH  27  29
ENDBRANCH  19  26
ENDBRANCH   1  22
TORSDOF 4
ENDMDL
MODEL 6
REMARK VINA RESULT:      -9.1      0.541      1.020
REMARK  Name = 
REMARK  4 active torsions:
REMARK  status: ('A' for Active; 'I' for Inactive)
REMARK    1  A    between atoms: C_2  and  C_10
REMARK    2  A    between atoms: N_3  and  C_4
REMARK    3  A    between atoms: C_13  and  C_14
REMARK    4  A    between atoms: C_16  and  C_17
REMARK                            x       y       z     vdW  Elec       q    Type
REMARK                         _______ _______ _______ _____ _____    ______ ____
ROOT
ATOM      1  C   UNL     1       0.340  11.198  19.290  0.00  0.00    +0.000 A 
ATOM      2  C   UNL     1      -0.817  11.395  20.040  0.00  0.00    +0.000 A 
ATOM      3  C   UNL     1      -1.418  12.656  20.082  0.00  0.00    +0.000 A 
ATOM      4  C   UNL     1      -0.841  13.693  19.351  0.00  0.00    +0.000 A 
ATOM      5  C   UNL     1       0.312  13.423  18.634  0.00  0.00    +0.000 A 
ATOM      6  N   UNL     1       0.907  12.213  18.591  0.00  0.00    +0.000 NA
ENDROOT
BRANCH   3   7
ATOM      7  C   UNL     1      -2.577  12.878  20.948  0.00  0.00    +0.000 A 
ATOM      8  C   UNL     1      -2.878  12.293  22.171  0.00  0.00    +0.000 A 
ATOM      9  C   UNL     1      -4.027  12.928  22.694  0.00  0.00    +0.000 A 
ATOM     10  C   UNL     1      -4.445  13.835  21.743  0.00  0.00    +0.000 A 
ATOM     11  N   UNL     1      -3.581  13.791  20.684  0.00  0.00    +0.000 N 
ATOM     12  C   UNL     1      -5.599  14.754  21.909  0.00  0.00    +0.000 C 
ATOM     13  C   UNL     1      -6.495  14.234  23.054  0.00  0.00    +0.000 C 
ATOM     14  N   UNL     1      -5.770  13.618  24.167  0.00  0.00    +0.000 N 
ATOM     15  C   UNL     1      -4.687  12.781  23.980  0.00  0.00    +0.000 C 
ATOM     16  O   UNL     1      -4.311  12.010  24.856  0.00  0.00    +0.000 OA
ATOM     17  H   UNL     1      -3.640  14.362  19.851  0.00  0.00    +0.000 HD
ATOM     18  H   UNL     1      -6.258  13.446  25.036  0.00  0.00    +0.000 HD
ENDBRANCH   3   7
BRANCH   1  22
ATOM     19  C   UNL     1       2.341   7.376  19.053  0.00  0.00    +0.000 A 
ATOM     20  C   UNL     1       1.761   7.779  20.257  0.00  0.00    +0.000 A 
ATOM     21  C   UNL     1       1.116   9.022  20.336  0.00  0.00    +0.000 A 
ATOM     22  C   UNL     1       1.036   9.895  19.228  0.00  0.00    +0.000 A 
ATOM     23  C   UNL     1       1.638   9.467  18.033  0.00  0.00    +0.000 A 
ATOM     24  C   UNL     1       2.279   8.227  17.945  0.00  0.00    +0.000 A 
BRANCH  19  26
ATOM     25  O   UNL     1       2.282   5.039  19.095  0.00  0.00    +0.000 OA
ATOM     26  C   UNL     1       2.954   6.037  18.854  0.00  0.00    +0.000 C 
ATOM     27  N   UNL     1       4.263   5.970  18.387  0.00  0.00    +0.000 N 
ATOM     28  H   UNL     1       4.685   6.798  17.987  0.00  0.00    +0.000 HD
BRANCH  27  29
ATOM     29  C   UNL     1       4.818   4.657  18.057  0.00  0.00    +0.000 C 
ATOM     30  C   UNL     1       4.486   4.264  16.610  0.00  0.00    +0.000 C 
ATOM     31  C   UNL     1       5.408   4.932  15.594  0.00  0.00    +0.000 C 
ATOM     32  C   UNL     1       6.862   4.600  15.897  0.00  0.00    +0.000 C 
ATOM     33  C   UNL     1       7.250   5.082  17.291  0.00  0.00    +0.000 C 
ATOM     34  C   UNL     1       6.316   4.549  18.376  0.00  0.00    +0.000 C 
ENDBRANCH  27  29
ENDBRANCH  19  26
ENDBRANCH   1  22
TORSDOF 4
ENDMDL
MODEL 7
REMARK VINA RESULT:      -9.0      1.926      2.306
REMARK  Name = 
REMARK  4 active torsions:
REMARK  status: ('A' for Active; 'I' for Inactive)
REMARK    1  A    between atoms: C_2  and  C_10
REMARK    2  A    between atoms: N_3  and  C_4
REMARK    3  A    between atoms: C_13  and  C_14
REMARK    4  A    between atoms: C_16  and  C_17
REMARK                            x       y       z     vdW  Elec       q    Type
REMARK                         _______ _______ _______ _____ _____    ______ ____
ROOT
ATOM      1  C   UNL     1       0.356  10.722  19.903  0.00  0.00    +0.000 A 
ATOM      2  C   UNL     1      -0.990  10.916  19.604  0.00  0.00    +0.000 A 
ATOM      3  C   UNL     1      -1.613  12.125  19.927  0.00  0.00    +0.000 A 
ATOM      4  C   UNL     1      -0.854  13.121  20.538  0.00  0.00    +0.000 A 
ATOM      5  C   UNL     1       0.476  12.855  20.810  0.00  0.00    +0.000 A 
ATOM      6  N   UNL     1       1.088  11.690  20.511  0.00  0.00    +0.000 NA
ENDROOT
BRANCH   3   7
ATOM      7  C   UNL     1      -3.049  12.285  19.697  0.00  0.00    +0.000 A 
ATOM      8  C   UNL     1      -4.026  12.755  20.565  0.00  0.00    +0.000 A 
ATOM      9  C   UNL     1      -5.240  12.862  19.849  0.00  0.00    +0.000 A 
ATOM     10  C   UNL     1      -4.994  12.383  18.579  0.00  0.00    +0.000 A 
ATOM     11  N   UNL     1      -3.678  12.019  18.494  0.00  0.00    +0.000 N 
ATOM     12  C   UNL     1      -5.994  12.359  17.482  0.00  0.00    +0.000 C 
ATOM     13  C   UNL     1      -7.407  12.506  18.087  0.00  0.00    +0.000 C 
ATOM     14  N   UNL     1      -7.486  13.393  19.249  0.00  0.00    +0.000 N 
ATOM     15  C   UNL     1      -6.528  13.405  20.246  0.00  0.00    +0.000 C 
ATOM     16  O   UNL     1      -6.760  13.871  21.355  0.00  0.00    +0.000 OA
ATOM     17  H   UNL     1      -3.222  11.648  17.672  0.00  0.00    +0.000 HD
ATOM     18  H   UNL     1      -8.393  13.705  19.568  0.00  0.00    +0.000 HD
ENDBRANCH   3   7
BRANCH   1  22
ATOM     19  C   UNL     1       2.455   7.032  19.104  0.00  0.00    +0.000 A 
ATOM     20  C   UNL     1       2.292   7.969  18.083  0.00  0.00    +0.000 A 
ATOM     21  C   UNL     1       1.605   9.165  18.340  0.00  0.00    +0.000 A 
ATOM     22  C   UNL     1       1.062   9.456  19.611  0.00  0.00    +0.000 A 
ATOM     23  C   UNL     1       1.234   8.490  20.616  0.00  0.00    +0.000 A 
ATOM     24  C   UNL     1       1.921   7.298  20.369  0.00  0.00    +0.000 A 
BRANCH  19  26
ATOM     25  O   UNL     1       2.883   4.772  19.526  0.00  0.00    +0.000 OA
ATOM     26  C   UNL     1       3.254   5.789  18.946  0.00  0.00    +0.000 C 
ATOM     27  N   UNL     1       4.384   5.824  18.136  0.00  0.00    +0.000 N 
ATOM     28  H   UNL     1       4.512   6.605  17.505  0.00  0.00    +0.000 HD
BRANCH  27  29
ATOM     29  C   UNL     1       5.088   4.570  17.867  0.00  0.00    +0.000 C 
ATOM     30  C   UNL     1       4.679   3.985  16.509  0.00  0.00    +0.000 C 
ATOM     31  C   UNL     1       5.391   4.658  15.340  0.00  0.00    +0.000 C 
ATOM     32  C   UNL     1       6.901   4.559  15.509  0.00  0.00    +0.000 C 
ATOM     33  C   UNL     1       7.347   5.234  16.801  0.00  0.00    +0.000 C 
ATOM     34  C   UNL     1       6.610   4.699  18.027  0.00  0.00    +0.000 C 
ENDBRANCH  27  29
ENDBRANCH  19  26
ENDBRANCH   1  22
TORSDOF 4
ENDMDL
MODEL 8
REMARK VINA RESULT:      -9.0      2.580     11.227
REMARK  Name = 
REMARK  4 active torsions:
REMARK  status: ('A' for Active; 'I' for Inactive)
REMARK    1  A    between atoms: C_2  and  C_10
REMARK    2  A    between atoms: N_3  and  C_4
REMARK    3  A    between atoms: C_13  and  C_14
REMARK    4  A    between atoms: C_16  and  C_17
REMARK                            x       y       z     vdW  Elec       q    Type
REMARK                         _______ _______ _______ _____ _____    ______ ____
ROOT
ATOM      1  C   UNL     1       0.721   9.860  19.834  0.00  0.00    +0.000 A 
ATOM      2  C   UNL     1       1.284   8.603  20.040  0.00  0.00    +0.000 A 
ATOM      3  C   UNL     1       2.135   8.051  19.078  0.00  0.00    +0.000 A 
ATOM      4  C   UNL     1       2.409   8.790  17.929  0.00  0.00    +0.000 A 
ATOM      5  C   UNL     1       1.809  10.029  17.791  0.00  0.00    +0.000 A 
ATOM      6  N   UNL     1       0.979  10.571  18.708  0.00  0.00    +0.000 NA
ENDROOT
BRANCH   3   7
ATOM      7  C   UNL     1       2.646   6.691  19.257  0.00  0.00    +0.000 A 
ATOM      8  C   UNL     1       3.785   6.107  18.718  0.00  0.00    +0.000 A 
ATOM      9  C   UNL     1       3.938   4.824  19.290  0.00  0.00    +0.000 A 
ATOM     10  C   UNL     1       2.846   4.624  20.110  0.00  0.00    +0.000 A 
ATOM     11  N   UNL     1       2.060   5.742  20.075  0.00  0.00    +0.000 N 
ATOM     12  C   UNL     1       2.634   3.415  20.945  0.00  0.00    +0.000 C 
ATOM     13  C   UNL     1       3.535   2.277  20.421  0.00  0.00    +0.000 C 
ATOM     14  N   UNL     1       4.842   2.711  19.924  0.00  0.00    +0.000 N 
ATOM     15  C   UNL     1       5.011   3.853  19.163  0.00  0.00    +0.000 C 
ATOM     16  O   UNL     1       6.008   4.024  18.472  0.00  0.00    +0.000 OA
ATOM     17  H   UNL     1       1.202   5.875  20.593  0.00  0.00    +0.000 HD
ATOM     18  H   UNL     1       5.562   2.019  19.763  0.00  0.00    +0.000 HD
ENDBRANCH   3   7
BRANCH   1  22
ATOM     19  C   UNL     1      -1.973  11.743  22.637  0.00  0.00    +0.000 A 
ATOM     20  C   UNL     1      -1.113  10.736  23.076  0.00  0.00    +0.000 A 
ATOM     21  C   UNL     1      -0.242  10.120  22.165  0.00  0.00    +0.000 A 
ATOM     22  C   UNL     1      -0.208  10.484  20.801  0.00  0.00    +0.000 A 
ATOM     23  C   UNL     1      -1.092  11.494  20.386  0.00  0.00    +0.000 A 
ATOM     24  C   UNL     1      -1.959  12.116  21.289  0.00  0.00    +0.000 A 
BRANCH  19  26
ATOM     25  O   UNL     1      -3.725  11.920  24.175  0.00  0.00    +0.000 OA
ATOM     26  C   UNL     1      -2.853  12.517  23.552  0.00  0.00    +0.000 C 
ATOM     27  N   UNL     1      -2.644  13.886  23.673  0.00  0.00    +0.000 N 
ATOM     28  H   UNL     1      -1.780  14.284  23.326  0.00  0.00    +0.000 HD
BRANCH  27  29
ATOM     29  C   UNL     1      -3.414  14.623  24.675  0.00  0.00    +0.000 C 
ATOM     30  C   UNL     1      -2.557  14.940  25.909  0.00  0.00    +0.000 C 
ATOM     31  C   UNL     1      -1.645  16.144  25.697  0.00  0.00    +0.000 C 
ATOM     32  C   UNL     1      -2.463  17.368  25.309  0.00  0.00    +0.000 C 
ATOM     33  C   UNL     1      -3.239  17.117  24.020  0.00  0.00    +0.000 C 
ATOM     34  C   UNL     1      -4.108  15.863  24.095  0.00  0.00    +0.000 C 
ENDBRANCH  27  29
ENDBRANCH  19  26
ENDBRANCH   1  22
TORSDOF 4
ENDMDL
MODEL 9
REMARK VINA RESULT:      -9.0      2.008     11.117
REMARK  Name = 
REMARK  4 active torsions:
REMARK  status: ('A' for Active; 'I' for Inactive)
REMARK    1  A    between atoms: C_2  and  C_10
REMARK    2  A    between atoms: N_3  and  C_4
REMARK    3  A    between atoms: C_13  and  C_14
REMARK    4  A    between atoms: C_16  and  C_17
REMARK                            x       y       z     vdW  Elec       q    Type
REMARK                         _______ _______ _______ _____ _____    ______ ____
ROOT
ATOM      1  C   UNL     1       0.756   9.703  19.794  0.00  0.00    +0.000 A 
ATOM      2  C   UNL     1       1.240   8.448  20.156  0.00  0.00    +0.000 A 
ATOM      3  C   UNL     1       2.132   7.774  19.317  0.00  0.00    +0.000 A 
ATOM      4  C   UNL     1       2.526   8.390  18.131  0.00  0.00    +0.000 A 
ATOM      5  C   UNL     1       1.998   9.635  17.836  0.00  0.00    +0.000 A 
ATOM      6  N   UNL     1       1.131  10.294  18.632  0.00  0.00    +0.000 NA
ENDROOT
BRANCH   3   7
ATOM      7  C   UNL     1       2.560   6.416  19.657  0.00  0.00    +0.000 A 
ATOM      8  C   UNL     1       2.111   5.589  20.678  0.00  0.00    +0.000 A 
ATOM      9  C   UNL     1       2.718   4.321  20.520  0.00  0.00    +0.000 A 
ATOM     10  C   UNL     1       3.583   4.428  19.450  0.00  0.00    +0.000 A 
ATOM     11  N   UNL     1       3.500   5.695  18.942  0.00  0.00    +0.000 N 
ATOM     12  C   UNL     1       4.392   3.307  18.910  0.00  0.00    +0.000 C 
ATOM     13  C   UNL     1       4.470   2.187  19.970  0.00  0.00    +0.000 C 
ATOM     14  N   UNL     1       3.253   2.011  20.764  0.00  0.00    +0.000 N 
ATOM     15  C   UNL     1       2.509   3.076  21.237  0.00  0.00    +0.000 C 
ATOM     16  O   UNL     1       1.719   2.947  22.165  0.00  0.00    +0.000 OA
ATOM     17  H   UNL     1       4.014   6.046  18.146  0.00  0.00    +0.000 HD
ATOM     18  H   UNL     1       3.147   1.176  21.324  0.00  0.00    +0.000 HD
ENDBRANCH   3   7
BRANCH   1  22
ATOM     19  C   UNL     1      -2.042  11.953  22.198  0.00  0.00    +0.000 A 
ATOM     20  C   UNL     1      -1.241  10.980  22.798  0.00  0.00    +0.000 A 
ATOM     21  C   UNL     1      -0.337  10.245  22.017  0.00  0.00    +0.000 A 
ATOM     22  C   UNL     1      -0.209  10.454  20.626  0.00  0.00    +0.000 A 
ATOM     23  C   UNL     1      -1.035  11.432  20.048  0.00  0.00    +0.000 A 
ATOM     24  C   UNL     1      -1.936  12.172  20.820  0.00  0.00    +0.000 A 
BRANCH  19  26
ATOM     25  O   UNL     1      -2.487  13.852  23.486  0.00  0.00    +0.000 OA
ATOM     26  C   UNL     1      -2.952  12.844  22.964  0.00  0.00    +0.000 C 
ATOM     27  N   UNL     1      -4.298  12.505  23.046  0.00  0.00    +0.000 N 
ATOM     28  H   UNL     1      -4.668  11.806  22.414  0.00  0.00    +0.000 HD
BRANCH  27  29
ATOM     29  C   UNL     1      -5.218  13.451  23.677  0.00  0.00    +0.000 C 
ATOM     30  C   UNL     1      -5.596  14.583  22.712  0.00  0.00    +0.000 C 
ATOM     31  C   UNL     1      -6.675  14.170  21.716  0.00  0.00    +0.000 C 
ATOM     32  C   UNL     1      -7.917  13.681  22.449  0.00  0.00    +0.000 C 
ATOM     33  C   UNL     1      -7.589  12.482  23.333  0.00  0.00    +0.000 C 
ATOM     34  C   UNL     1      -6.441  12.764  24.300  0.00  0.00    +0.000 C 
ENDBRANCH  27  29
ENDBRANCH  19  26
ENDBRANCH   1  22
TORSDOF 4
ENDMDL
