MODEL 1
REMARK VINA RESULT:      -8.4      0.000      0.000
REMARK  Name = 
REMARK  5 active torsions:
REMARK  status: ('A' for Active; 'I' for Inactive)
REMARK    1  A    between atoms: C_4  and  C_5
REMARK    2  A    between atoms: C_5  and  C_6
REMARK    3  A    between atoms: C_5  and  N_12
REMARK    4  A    between atoms: N_15  and  C_16
REMARK    5  A    between atoms: N_24  and  C_25
REMARK                            x       y       z     vdW  Elec       q    Type
REMARK                         _______ _______ _______ _____ _____    ______ ____
ROOT
ATOM      1  N   UNL     1      -2.095  12.983  19.658  0.00  0.00    +0.000 NA
ATOM      2  C   UNL     1      -0.911  13.214  20.506  0.00  0.00    +0.000 C 
ATOM      3  C   UNL     1      -0.007  11.986  20.859  0.00  0.00    +0.000 C 
ATOM      4  N   UNL     1       0.175  11.039  19.740  0.00  0.00    +0.000 N 
ATOM      5  C   UNL     1      -0.990  10.861  18.851  0.00  0.00    +0.000 C 
ATOM      6  C   UNL     1      -1.663  12.191  18.504  0.00  0.00    +0.000 C 
ENDROOT
BRANCH   4   7
ATOM      7  C   UNL     1       0.790   9.800  20.021  0.00  0.00    +0.000 A 
ATOM      8  N   UNL     1       0.568   9.246  21.256  0.00  0.00    +0.000 NA
ATOM      9  C   UNL     1       1.049   8.034  21.566  0.00  0.00    +0.000 A 
ATOM     10  N   UNL     1       1.723   7.209  20.771  0.00  0.00    +0.000 NA
ATOM     11  C   UNL     1       1.942   7.749  19.555  0.00  0.00    +0.000 A 
ATOM     12  C   UNL     1       1.563   9.019  19.133  0.00  0.00    +0.000 A 
ATOM     13  C   UNL     1       2.097   9.101  17.832  0.00  0.00    +0.000 A 
ATOM     14  N   UNL     1       2.809   8.027  17.473  0.00  0.00    +0.000 NA
ATOM     15  N   UNL     1       2.595   7.145  18.491  0.00  0.00    +0.000 N 
BRANCH  15  16
ATOM     16  C   UNL     1       2.977   5.780  18.364  0.00  0.00    +0.000 A 
ATOM     17  C   UNL     1       4.259   5.375  18.753  0.00  0.00    +0.000 A 
ATOM     18  C   UNL     1       4.644   4.037  18.603  0.00  0.00    +0.000 A 
ATOM     19  C   UNL     1       3.764   3.113  18.040  0.00  0.00    +0.000 A 
ATOM     20  C   UNL     1       2.496   3.517  17.627  0.00  0.00    +0.000 A 
ATOM     21  C   UNL     1       2.092   4.845  17.806  0.00  0.00    +0.000 A 
ENDBRANCH  15  16
ENDBRANCH   4   7
BRANCH   1  22
ATOM     22  C   UNL     1      -3.367  12.616  20.347  0.00  0.00    +0.000 C 
BRANCH  22  26
ATOM     23  C   UNL     1      -3.520  14.568  24.267  0.00  0.00    +0.000 A 
ATOM     24  C   UNL     1      -3.633  13.184  24.159  0.00  0.00    +0.000 A 
ATOM     25  C   UNL     1      -3.642  12.570  22.898  0.00  0.00    +0.000 A 
ATOM     26  C   UNL     1      -3.534  13.327  21.714  0.00  0.00    +0.000 A 
ATOM     27  C   UNL     1      -3.456  14.725  21.864  0.00  0.00    +0.000 A 
ATOM     28  C   UNL     1      -3.446  15.339  23.117  0.00  0.00    +0.000 A 
ENDBRANCH  22  26
BRANCH  22  29
ATOM     29  C   UNL     1      -4.623  12.489  19.467  0.00  0.00    +0.000 A 
ATOM     30  C   UNL     1      -4.807  11.482  18.510  0.00  0.00    +0.000 A 
ATOM     31  C   UNL     1      -6.033  11.277  17.878  0.00  0.00    +0.000 A 
ATOM     32  C   UNL     1      -7.105  12.117  18.150  0.00  0.00    +0.000 A 
ATOM     33  C   UNL     1      -6.932  13.186  19.023  0.00  0.00    +0.000 A 
ATOM     34  C   UNL     1      -5.705  13.372  19.671  0.00  0.00    +0.000 A 
ENDBRANCH  22  29
ENDBRANCH   1  22
TORSDOF 5
ENDMDL
MODEL 2
REMARK VINA RESULT:      -8.3      0.286      1.198
REMARK  Name = 
REMARK  5 active torsions:
REMARK  status: ('A' for Active; 'I' for Inactive)
REMARK    1  A    between atoms: C_4  and  C_5
REMARK    2  A    between atoms: C_5  and  C_6
REMARK    3  A    between atoms: C_5  and  N_12
REMARK    4  A    between atoms: N_15  and  C_16
REMARK    5  A    between atoms: N_24  and  C_25
REMARK                            x       y       z     vdW  Elec       q    Type
REMARK                         _______ _______ _______ _____ _____    ______ ____
ROOT
ATOM      1  N   UNL     1      -2.212  13.036  19.774  0.00  0.00    +0.000 NA
ATOM      2  C   UNL     1      -0.975  13.294  20.534  0.00  0.00    +0.000 C 
ATOM      3  C   UNL     1      -0.027  12.084  20.831  0.00  0.00    +0.000 C 
ATOM      4  N   UNL     1       0.092  11.131  19.709  0.00  0.00    +0.000 N 
ATOM      5  C   UNL     1      -1.129  10.926  18.906  0.00  0.00    +0.000 C 
ATOM      6  C   UNL     1      -1.848  12.241  18.597  0.00  0.00    +0.000 C 
ENDROOT
BRANCH   4   7
ATOM      7  C   UNL     1       0.747   9.906  19.956  0.00  0.00    +0.000 A 
ATOM      8  N   UNL     1       0.586   9.336  21.193  0.00  0.00    +0.000 NA
ATOM      9  C   UNL     1       1.107   8.133  21.474  0.00  0.00    +0.000 A 
ATOM     10  N   UNL     1       1.769   7.332  20.646  0.00  0.00    +0.000 NA
ATOM     11  C   UNL     1       1.928   7.886  19.428  0.00  0.00    +0.000 A 
ATOM     12  C   UNL     1       1.503   9.150  19.031  0.00  0.00    +0.000 A 
ATOM     13  C   UNL     1       1.985   9.256  17.712  0.00  0.00    +0.000 A 
ATOM     14  N   UNL     1       2.707   8.202  17.317  0.00  0.00    +0.000 NA
ATOM     15  N   UNL     1       2.554   7.307  18.334  0.00  0.00    +0.000 N 
BRANCH  15  16
ATOM     16  C   UNL     1       2.963   5.953  18.180  0.00  0.00    +0.000 A 
ATOM     17  C   UNL     1       2.018   4.970  17.859  0.00  0.00    +0.000 A 
ATOM     18  C   UNL     1       2.415   3.635  17.732  0.00  0.00    +0.000 A 
ATOM     19  C   UNL     1       3.744   3.274  17.954  0.00  0.00    +0.000 A 
ATOM     20  C   UNL     1       4.683   4.244  18.299  0.00  0.00    +0.000 A 
ATOM     21  C   UNL     1       4.300   5.586  18.393  0.00  0.00    +0.000 A 
ENDBRANCH  15  16
ENDBRANCH   4   7
BRANCH   1  22
ATOM     22  C   UNL     1      -3.425  12.654  20.554  0.00  0.00    +0.000 C 
BRANCH  22  26
ATOM     23  C   UNL     1      -3.903  14.624  24.438  0.00  0.00    +0.000 A 
ATOM     24  C   UNL     1      -3.720  15.375  23.280  0.00  0.00    +0.000 A 
ATOM     25  C   UNL     1      -3.510  14.738  22.048  0.00  0.00    +0.000 A 
ATOM     26  C   UNL     1      -3.481  13.333  21.946  0.00  0.00    +0.000 A 
ATOM     27  C   UNL     1      -3.636  12.610  23.144  0.00  0.00    +0.000 A 
ATOM     28  C   UNL     1      -3.846  13.240  24.371  0.00  0.00    +0.000 A 
ENDBRANCH  22  26
BRANCH  22  29
ATOM     29  C   UNL     1      -4.749  12.549  19.774  0.00  0.00    +0.000 A 
ATOM     30  C   UNL     1      -4.980  11.620  18.751  0.00  0.00    +0.000 A 
ATOM     31  C   UNL     1      -6.248  11.417  18.209  0.00  0.00    +0.000 A 
ATOM     32  C   UNL     1      -7.321  12.185  18.643  0.00  0.00    +0.000 A 
ATOM     33  C   UNL     1      -7.110  13.182  19.589  0.00  0.00    +0.000 A 
ATOM     34  C   UNL     1      -5.838  13.365  20.145  0.00  0.00    +0.000 A 
ENDBRANCH  22  29
ENDBRANCH   1  22
TORSDOF 5
ENDMDL
MODEL 3
REMARK VINA RESULT:      -8.2      3.114      5.523
REMARK  Name = 
REMARK  5 active torsions:
REMARK  status: ('A' for Active; 'I' for Inactive)
REMARK    1  A    between atoms: C_4  and  C_5
REMARK    2  A    between atoms: C_5  and  C_6
REMARK    3  A    between atoms: C_5  and  N_12
REMARK    4  A    between atoms: N_15  and  C_16
REMARK    5  A    between atoms: N_24  and  C_25
REMARK                            x       y       z     vdW  Elec       q    Type
REMARK                         _______ _______ _______ _____ _____    ______ ____
ROOT
ATOM      1  N   UNL     1      -0.169  14.201  19.659  0.00  0.00    +0.000 NA
ATOM      2  C   UNL     1      -0.600  13.290  18.584  0.00  0.00    +0.000 C 
ATOM      3  C   UNL     1      -0.069  11.817  18.608  0.00  0.00    +0.000 C 
ATOM      4  N   UNL     1      -0.000  11.231  19.963  0.00  0.00    +0.000 N 
ATOM      5  C   UNL     1       0.364  12.161  21.049  0.00  0.00    +0.000 C 
ATOM      6  C   UNL     1      -0.363  13.503  20.933  0.00  0.00    +0.000 C 
ENDROOT
BRANCH   4   7
ATOM      7  C   UNL     1       0.664   9.995  20.110  0.00  0.00    +0.000 A 
ATOM      8  N   UNL     1       0.510   9.328  21.298  0.00  0.00    +0.000 NA
ATOM      9  C   UNL     1       1.039   8.111  21.482  0.00  0.00    +0.000 A 
ATOM     10  N   UNL     1       1.706   7.382  20.592  0.00  0.00    +0.000 NA
ATOM     11  C   UNL     1       1.858   8.033  19.422  0.00  0.00    +0.000 A 
ATOM     12  C   UNL     1       1.424   9.321  19.128  0.00  0.00    +0.000 A 
ATOM     13  C   UNL     1       1.902   9.535  17.820  0.00  0.00    +0.000 A 
ATOM     14  N   UNL     1       2.631   8.521  17.341  0.00  0.00    +0.000 NA
ATOM     15  N   UNL     1       2.486   7.547  18.284  0.00  0.00    +0.000 N 
BRANCH  15  16
ATOM     16  C   UNL     1       2.904   6.213  18.022  0.00  0.00    +0.000 A 
ATOM     17  C   UNL     1       4.255   5.940  17.774  0.00  0.00    +0.000 A 
ATOM     18  C   UNL     1       4.663   4.632  17.490  0.00  0.00    +0.000 A 
ATOM     19  C   UNL     1       3.723   3.603  17.425  0.00  0.00    +0.000 A 
ATOM     20  C   UNL     1       2.374   3.873  17.645  0.00  0.00    +0.000 A 
ATOM     21  C   UNL     1       1.965   5.172  17.963  0.00  0.00    +0.000 A 
ENDBRANCH  15  16
ENDBRANCH   4   7
BRANCH   1  22
ATOM     22  C   UNL     1       1.095  14.964  19.441  0.00  0.00    +0.000 C 
BRANCH  22  26
ATOM     23  C   UNL     1       0.501  18.394  16.780  0.00  0.00    +0.000 A 
ATOM     24  C   UNL     1       1.778  17.888  17.011  0.00  0.00    +0.000 A 
ATOM     25  C   UNL     1       1.969  16.827  17.909  0.00  0.00    +0.000 A 
ATOM     26  C   UNL     1       0.884  16.245  18.595  0.00  0.00    +0.000 A 
ATOM     27  C   UNL     1      -0.385  16.806  18.360  0.00  0.00    +0.000 A 
ATOM     28  C   UNL     1      -0.578  17.861  17.468  0.00  0.00    +0.000 A 
ENDBRANCH  22  26
BRANCH  22  29
ATOM     29  C   UNL     1       2.060  15.067  20.636  0.00  0.00    +0.000 A 
ATOM     30  C   UNL     1       3.206  14.273  20.785  0.00  0.00    +0.000 A 
ATOM     31  C   UNL     1       4.161  14.530  21.768  0.00  0.00    +0.000 A 
ATOM     32  C   UNL     1       3.967  15.566  22.673  0.00  0.00    +0.000 A 
ATOM     33  C   UNL     1       2.795  16.314  22.615  0.00  0.00    +0.000 A 
ATOM     34  C   UNL     1       1.852  16.065  21.612  0.00  0.00    +0.000 A 
ENDBRANCH  22  29
ENDBRANCH   1  22
TORSDOF 5
ENDMDL
MODEL 4
REMARK VINA RESULT:      -8.2      0.364      1.177
REMARK  Name = 
REMARK  5 active torsions:
REMARK  status: ('A' for Active; 'I' for Inactive)
REMARK    1  A    between atoms: C_4  and  C_5
REMARK    2  A    between atoms: C_5  and  C_6
REMARK    3  A    between atoms: C_5  and  N_12
REMARK    4  A    between atoms: N_15  and  C_16
REMARK    5  A    between atoms: N_24  and  C_25
REMARK                            x       y       z     vdW  Elec       q    Type
REMARK                         _______ _______ _______ _____ _____    ______ ____
ROOT
ATOM      1  N   UNL     1      -2.334  13.001  19.824  0.00  0.00    +0.000 NA
ATOM      2  C   UNL     1      -1.125  13.257  20.628  0.00  0.00    +0.000 C 
ATOM      3  C   UNL     1      -0.159  12.058  20.910  0.00  0.00    +0.000 C 
ATOM      4  N   UNL     1       0.011  11.147  19.759  0.00  0.00    +0.000 N 
ATOM      5  C   UNL     1      -1.182  10.946  18.915  0.00  0.00    +0.000 C 
ATOM      6  C   UNL     1      -1.921  12.256  18.632  0.00  0.00    +0.000 C 
ENDROOT
BRANCH   4   7
ATOM      7  C   UNL     1       0.685   9.928  19.982  0.00  0.00    +0.000 A 
ATOM      8  N   UNL     1       0.526   9.326  21.204  0.00  0.00    +0.000 NA
ATOM      9  C   UNL     1       1.065   8.126  21.460  0.00  0.00    +0.000 A 
ATOM     10  N   UNL     1       1.746   7.356  20.619  0.00  0.00    +0.000 NA
ATOM     11  C   UNL     1       1.904   7.941  19.415  0.00  0.00    +0.000 A 
ATOM     12  C   UNL     1       1.460   9.207  19.045  0.00  0.00    +0.000 A 
ATOM     13  C   UNL     1       1.948   9.352  17.732  0.00  0.00    +0.000 A 
ATOM     14  N   UNL     1       2.691   8.320  17.317  0.00  0.00    +0.000 NA
ATOM     15  N   UNL     1       2.546   7.399  18.312  0.00  0.00    +0.000 N 
BRANCH  15  16
ATOM     16  C   UNL     1       2.979   6.056  18.129  0.00  0.00    +0.000 A 
ATOM     17  C   UNL     1       2.037   5.042  17.912  0.00  0.00    +0.000 A 
ATOM     18  C   UNL     1       2.461   3.717  17.758  0.00  0.00    +0.000 A 
ATOM     19  C   UNL     1       3.816   3.398  17.848  0.00  0.00    +0.000 A 
ATOM     20  C   UNL     1       4.754   4.400  18.090  0.00  0.00    +0.000 A 
ATOM     21  C   UNL     1       4.341   5.731  18.210  0.00  0.00    +0.000 A 
ENDBRANCH  15  16
ENDBRANCH   4   7
BRANCH   1  22
ATOM     22  C   UNL     1      -3.560  12.567  20.556  0.00  0.00    +0.000 C 
BRANCH  22  26
ATOM     23  C   UNL     1      -3.711  14.564  24.453  0.00  0.00    +0.000 A 
ATOM     24  C   UNL     1      -3.694  13.174  24.368  0.00  0.00    +0.000 A 
ATOM     25  C   UNL     1      -3.704  12.540  23.117  0.00  0.00    +0.000 A 
ATOM     26  C   UNL     1      -3.729  13.283  21.920  0.00  0.00    +0.000 A 
ATOM     27  C   UNL     1      -3.780  14.684  22.048  0.00  0.00    +0.000 A 
ATOM     28  C   UNL     1      -3.770  15.318  23.291  0.00  0.00    +0.000 A 
ENDBRANCH  22  26
BRANCH  22  29
ATOM     29  C   UNL     1      -4.832  12.355  19.715  0.00  0.00    +0.000 A 
ATOM     30  C   UNL     1      -6.113  12.748  20.125  0.00  0.00    +0.000 A 
ATOM     31  C   UNL     1      -7.206  12.726  19.260  0.00  0.00    +0.000 A 
ATOM     32  C   UNL     1      -7.057  12.253  17.963  0.00  0.00    +0.000 A 
ATOM     33  C   UNL     1      -5.821  11.765  17.551  0.00  0.00    +0.000 A 
ATOM     34  C   UNL     1      -4.723  11.812  18.417  0.00  0.00    +0.000 A 
ENDBRANCH  22  29
ENDBRANCH   1  22
TORSDOF 5
ENDMDL
MODEL 5
REMARK VINA RESULT:      -8.1      2.207      3.596
REMARK  Name = 
REMARK  5 active torsions:
REMARK  status: ('A' for Active; 'I' for Inactive)
REMARK    1  A    between atoms: C_4  and  C_5
REMARK    2  A    between atoms: C_5  and  C_6
REMARK    3  A    between atoms: C_5  and  N_12
REMARK    4  A    between atoms: N_15  and  C_16
REMARK    5  A    between atoms: N_24  and  C_25
REMARK                            x       y       z     vdW  Elec       q    Type
REMARK                         _______ _______ _______ _____ _____    ______ ____
ROOT
ATOM      1  N   UNL     1      -0.315  13.734  18.561  0.00  0.00    +0.000 NA
ATOM      2  C   UNL     1       1.085  13.401  18.241  0.00  0.00    +0.000 C 
ATOM      3  C   UNL     1       1.673  12.066  18.808  0.00  0.00    +0.000 C 
ATOM      4  N   UNL     1       0.719  10.938  18.786  0.00  0.00    +0.000 N 
ATOM      5  C   UNL     1      -0.693  11.283  19.038  0.00  0.00    +0.000 C 
ATOM      6  C   UNL     1      -1.125  12.544  18.286  0.00  0.00    +0.000 C 
ENDROOT
BRANCH   4   7
ATOM      7  C   UNL     1       1.082   9.758  19.469  0.00  0.00    +0.000 A 
ATOM      8  N   UNL     1       0.586   9.579  20.735  0.00  0.00    +0.000 NA
ATOM      9  C   UNL     1       0.816   8.447  21.415  0.00  0.00    +0.000 A 
ATOM     10  N   UNL     1       1.469   7.371  20.986  0.00  0.00    +0.000 NA
ATOM     11  C   UNL     1       1.956   7.542  19.741  0.00  0.00    +0.000 A 
ATOM     12  C   UNL     1       1.852   8.688  18.960  0.00  0.00    +0.000 A 
ATOM     13  C   UNL     1       2.588   8.363  17.804  0.00  0.00    +0.000 A 
ATOM     14  N   UNL     1       3.170   7.159  17.858  0.00  0.00    +0.000 NA
ATOM     15  N   UNL     1       2.665   6.608  18.999  0.00  0.00    +0.000 N 
BRANCH  15  16
ATOM     16  C   UNL     1       2.843   5.225  19.279  0.00  0.00    +0.000 A 
ATOM     17  C   UNL     1       4.135   4.693  19.375  0.00  0.00    +0.000 A 
ATOM     18  C   UNL     1       4.310   3.327  19.625  0.00  0.00    +0.000 A 
ATOM     19  C   UNL     1       3.203   2.489  19.749  0.00  0.00    +0.000 A 
ATOM     20  C   UNL     1       1.916   3.008  19.629  0.00  0.00    +0.000 A 
ATOM     21  C   UNL     1       1.732   4.378  19.414  0.00  0.00    +0.000 A 
ENDBRANCH  15  16
ENDBRANCH   4   7
BRANCH   1  22
ATOM     22  C   UNL     1      -0.565  14.500  19.817  0.00  0.00    +0.000 C 
BRANCH  22  26
ATOM     23  C   UNL     1      -1.992  18.523  18.830  0.00  0.00    +0.000 A 
ATOM     24  C   UNL     1      -0.986  17.923  18.077  0.00  0.00    +0.000 A 
ATOM     25  C   UNL     1      -0.492  16.659  18.433  0.00  0.00    +0.000 A 
ATOM     26  C   UNL     1      -0.997  15.964  19.550  0.00  0.00    +0.000 A 
ATOM     27  C   UNL     1      -1.989  16.619  20.305  0.00  0.00    +0.000 A 
ATOM     28  C   UNL     1      -2.482  17.876  19.954  0.00  0.00    +0.000 A 
ENDBRANCH  22  26
BRANCH  22  29
ATOM     29  C   UNL     1      -1.285  13.755  20.955  0.00  0.00    +0.000 A 
ATOM     30  C   UNL     1      -2.674  13.580  21.017  0.00  0.00    +0.000 A 
ATOM     31  C   UNL     1      -3.272  12.731  21.948  0.00  0.00    +0.000 A 
ATOM     32  C   UNL     1      -2.492  12.068  22.887  0.00  0.00    +0.000 A 
ATOM     33  C   UNL     1      -1.119  12.293  22.916  0.00  0.00    +0.000 A 
ATOM     34  C   UNL     1      -0.523  13.129  21.965  0.00  0.00    +0.000 A 
ENDBRANCH  22  29
ENDBRANCH   1  22
TORSDOF 5
ENDMDL
MODEL 6
REMARK VINA RESULT:      -7.9      3.036     11.209
REMARK  Name = 
REMARK  5 active torsions:
REMARK  status: ('A' for Active; 'I' for Inactive)
REMARK    1  A    between atoms: C_4  and  C_5
REMARK    2  A    between atoms: C_5  and  C_6
REMARK    3  A    between atoms: C_5  and  N_12
REMARK    4  A    between atoms: N_15  and  C_16
REMARK    5  A    between atoms: N_24  and  C_25
REMARK                            x       y       z     vdW  Elec       q    Type
REMARK                         _______ _______ _______ _____ _____    ______ ____
ROOT
ATOM      1  N   UNL     1       5.010   4.029  17.435  0.00  0.00    +0.000 NA
ATOM      2  C   UNL     1       4.789   4.204  18.882  0.00  0.00    +0.000 C 
ATOM      3  C   UNL     1       4.129   5.537  19.371  0.00  0.00    +0.000 C 
ATOM      4  N   UNL     1       3.050   6.026  18.488  0.00  0.00    +0.000 N 
ATOM      5  C   UNL     1       3.241   5.788  17.045  0.00  0.00    +0.000 C 
ATOM      6  C   UNL     1       3.761   4.379  16.753  0.00  0.00    +0.000 C 
ENDROOT
BRANCH   4   7
ATOM      7  C   UNL     1       2.545   7.322  18.725  0.00  0.00    +0.000 A 
ATOM      8  N   UNL     1       2.634   8.236  17.706  0.00  0.00    +0.000 NA
ATOM      9  C   UNL     1       2.101   9.460  17.826  0.00  0.00    +0.000 A 
ATOM     10  N   UNL     1       1.406   9.936  18.853  0.00  0.00    +0.000 NA
ATOM     11  C   UNL     1       1.313   9.041  19.856  0.00  0.00    +0.000 A 
ATOM     12  C   UNL     1       1.880   7.772  19.889  0.00  0.00    +0.000 A 
ATOM     13  C   UNL     1       1.549   7.300  21.174  0.00  0.00    +0.000 A 
ATOM     14  N   UNL     1       0.897   8.195  21.924  0.00  0.00    +0.000 NA
ATOM     15  N   UNL     1       0.641   9.216  21.057  0.00  0.00    +0.000 N 
BRANCH  15  16
ATOM     16  C   UNL     1      -0.265  10.256  21.405  0.00  0.00    +0.000 A 
ATOM     17  C   UNL     1      -0.673  10.410  22.736  0.00  0.00    +0.000 A 
ATOM     18  C   UNL     1      -1.583  11.418  23.075  0.00  0.00    +0.000 A 
ATOM     19  C   UNL     1      -2.108  12.250  22.087  0.00  0.00    +0.000 A 
ATOM     20  C   UNL     1      -1.725  12.085  20.757  0.00  0.00    +0.000 A 
ATOM     21  C   UNL     1      -0.789  11.103  20.417  0.00  0.00    +0.000 A 
ENDBRANCH  15  16
ENDBRANCH   4   7
BRANCH   1  22
ATOM     22  C   UNL     1       6.300   4.529  16.877  0.00  0.00    +0.000 C 
BRANCH  22  26
ATOM     23  C   UNL     1       6.708   4.063  12.539  0.00  0.00    +0.000 A 
ATOM     24  C   UNL     1       7.541   4.931  13.241  0.00  0.00    +0.000 A 
ATOM     25  C   UNL     1       7.368   5.121  14.620  0.00  0.00    +0.000 A 
ATOM     26  C   UNL     1       6.358   4.441  15.331  0.00  0.00    +0.000 A 
ATOM     27  C   UNL     1       5.516   3.599  14.580  0.00  0.00    +0.000 A 
ATOM     28  C   UNL     1       5.686   3.409  13.208  0.00  0.00    +0.000 A 
ENDBRANCH  22  26
BRANCH  22  29
ATOM     29  C   UNL     1       6.898   5.789  17.528  0.00  0.00    +0.000 A 
ATOM     30  C   UNL     1       7.832   5.759  18.572  0.00  0.00    +0.000 A 
ATOM     31  C   UNL     1       8.502   6.906  18.998  0.00  0.00    +0.000 A 
ATOM     32  C   UNL     1       8.212   8.135  18.422  0.00  0.00    +0.000 A 
ATOM     33  C   UNL     1       7.221   8.218  17.449  0.00  0.00    +0.000 A 
ATOM     34  C   UNL     1       6.569   7.060  17.010  0.00  0.00    +0.000 A 
ENDBRANCH  22  29
ENDBRANCH   1  22
TORSDOF 5
ENDMDL
MODEL 7
REMARK VINA RESULT:      -7.9      1.652      2.696
REMARK  Name = 
REMARK  5 active torsions:
REMARK  status: ('A' for Active; 'I' for Inactive)
REMARK    1  A    between atoms: C_4  and  C_5
REMARK    2  A    between atoms: C_5  and  C_6
REMARK    3  A    between atoms: C_5  and  N_12
REMARK    4  A    between atoms: N_15  and  C_16
REMARK    5  A    between atoms: N_24  and  C_25
REMARK                            x       y       z     vdW  Elec       q    Type
REMARK                         _______ _______ _______ _____ _____    ______ ____
ROOT
ATOM      1  N   UNL     1      -2.783  12.560  19.647  0.00  0.00    +0.000 NA
ATOM      2  C   UNL     1      -2.340  12.349  21.037  0.00  0.00    +0.000 C 
ATOM      3  C   UNL     1      -1.308  11.205  21.316  0.00  0.00    +0.000 C 
ATOM      4  N   UNL     1      -0.263  11.080  20.278  0.00  0.00    +0.000 N 
ATOM      5  C   UNL     1      -0.693  11.360  18.895  0.00  0.00    +0.000 C 
ATOM      6  C   UNL     1      -1.585  12.600  18.803  0.00  0.00    +0.000 C 
ENDROOT
BRANCH   4   7
ATOM      7  C   UNL     1       0.578   9.948  20.328  0.00  0.00    +0.000 A 
ATOM      8  N   UNL     1       0.662   9.270  21.517  0.00  0.00    +0.000 NA
ATOM      9  C   UNL     1       1.374   8.138  21.619  0.00  0.00    +0.000 A 
ATOM     10  N   UNL     1       2.022   7.507  20.646  0.00  0.00    +0.000 NA
ATOM     11  C   UNL     1       1.940   8.168  19.474  0.00  0.00    +0.000 A 
ATOM     12  C   UNL     1       1.300   9.383  19.252  0.00  0.00    +0.000 A 
ATOM     13  C   UNL     1       1.582   9.657  17.900  0.00  0.00    +0.000 A 
ATOM     14  N   UNL     1       2.381   8.752  17.323  0.00  0.00    +0.000 NA
ATOM     15  N   UNL     1       2.487   7.771  18.263  0.00  0.00    +0.000 N 
BRANCH  15  16
ATOM     16  C   UNL     1       3.051   6.506  17.935  0.00  0.00    +0.000 A 
ATOM     17  C   UNL     1       4.380   6.426  17.499  0.00  0.00    +0.000 A 
ATOM     18  C   UNL     1       4.926   5.185  17.151  0.00  0.00    +0.000 A 
ATOM     19  C   UNL     1       4.143   4.033  17.208  0.00  0.00    +0.000 A 
ATOM     20  C   UNL     1       2.813   4.111  17.616  0.00  0.00    +0.000 A 
ATOM     21  C   UNL     1       2.270   5.342  17.998  0.00  0.00    +0.000 A 
ENDBRANCH  15  16
ENDBRANCH   4   7
BRANCH   1  22
ATOM     22  C   UNL     1      -3.966  11.779  19.181  0.00  0.00    +0.000 C 
BRANCH  22  26
ATOM     23  C   UNL     1      -7.651  13.779  20.452  0.00  0.00    +0.000 A 
ATOM     24  C   UNL     1      -7.444  12.431  20.730  0.00  0.00    +0.000 A 
ATOM     25  C   UNL     1      -6.289  11.781  20.271  0.00  0.00    +0.000 A 
ATOM     26  C   UNL     1      -5.311  12.468  19.523  0.00  0.00    +0.000 A 
ATOM     27  C   UNL     1      -5.574  13.821  19.234  0.00  0.00    +0.000 A 
ATOM     28  C   UNL     1      -6.721  14.470  19.690  0.00  0.00    +0.000 A 
ENDBRANCH  22  26
BRANCH  22  29
ATOM     29  C   UNL     1      -3.856  11.107  17.801  0.00  0.00    +0.000 A 
ATOM     30  C   UNL     1      -4.306  11.691  16.610  0.00  0.00    +0.000 A 
ATOM     31  C   UNL     1      -4.009  11.148  15.361  0.00  0.00    +0.000 A 
ATOM     32  C   UNL     1      -3.292   9.962  15.271  0.00  0.00    +0.000 A 
ATOM     33  C   UNL     1      -2.912   9.303  16.436  0.00  0.00    +0.000 A 
ATOM     34  C   UNL     1      -3.194   9.866  17.685  0.00  0.00    +0.000 A 
ENDBRANCH  22  29
ENDBRANCH   1  22
TORSDOF 5
ENDMDL
MODEL 8
REMARK VINA RESULT:      -7.9      2.000     10.073
REMARK  Name = 
REMARK  5 active torsions:
REMARK  status: ('A' for Active; 'I' for Inactive)
REMARK    1  A    between atoms: C_4  and  C_5
REMARK    2  A    between atoms: C_5  and  C_6
REMARK    3  A    between atoms: C_5  and  N_12
REMARK    4  A    between atoms: N_15  and  C_16
REMARK    5  A    between atoms: N_24  and  C_25
REMARK                            x       y       z     vdW  Elec       q    Type
REMARK                         _______ _______ _______ _____ _____    ______ ____
ROOT
ATOM      1  N   UNL     1       2.733   7.441  19.131  0.00  0.00    +0.000 NA
ATOM      2  C   UNL     1       2.936   8.555  18.187  0.00  0.00    +0.000 C 
ATOM      3  C   UNL     1       1.675   9.339  17.689  0.00  0.00    +0.000 C 
ATOM      4  N   UNL     1       0.658   9.559  18.738  0.00  0.00    +0.000 N 
ATOM      5  C   UNL     1       0.505   8.472  19.725  0.00  0.00    +0.000 C 
ATOM      6  C   UNL     1       1.853   7.924  20.199  0.00  0.00    +0.000 C 
ENDROOT
BRANCH   4   7
ATOM      7  C   UNL     1      -0.598  10.061  18.339  0.00  0.00    +0.000 A 
ATOM      8  N   UNL     1      -1.131   9.586  17.168  0.00  0.00    +0.000 NA
ATOM      9  C   UNL     1      -2.356   9.951  16.767  0.00  0.00    +0.000 A 
ATOM     10  N   UNL     1      -3.213  10.733  17.414  0.00  0.00    +0.000 NA
ATOM     11  C   UNL     1      -2.696  11.201  18.568  0.00  0.00    +0.000 A 
ATOM     12  C   UNL     1      -1.418  10.959  19.060  0.00  0.00    +0.000 A 
ATOM     13  C   UNL     1      -1.369  11.735  20.234  0.00  0.00    +0.000 A 
ATOM     14  N   UNL     1      -2.473  12.461  20.446  0.00  0.00    +0.000 NA
ATOM     15  N   UNL     1      -3.335  12.022  19.484  0.00  0.00    +0.000 N 
BRANCH  15  16
ATOM     16  C   UNL     1      -4.714  12.369  19.531  0.00  0.00    +0.000 A 
ATOM     17  C   UNL     1      -5.344  12.561  20.767  0.00  0.00    +0.000 A 
ATOM     18  C   UNL     1      -6.707  12.876  20.814  0.00  0.00    +0.000 A 
ATOM     19  C   UNL     1      -7.446  12.971  19.635  0.00  0.00    +0.000 A 
ATOM     20  C   UNL     1      -6.830  12.756  18.404  0.00  0.00    +0.000 A 
ATOM     21  C   UNL     1      -5.461  12.475  18.348  0.00  0.00    +0.000 A 
ENDBRANCH  15  16
ENDBRANCH   4   7
BRANCH   1  22
ATOM     22  C   UNL     1       2.485   6.090  18.550  0.00  0.00    +0.000 C 
BRANCH  22  26
ATOM     23  C   UNL     1       5.764   4.906  15.896  0.00  0.00    +0.000 A 
ATOM     24  C   UNL     1       5.567   6.244  16.227  0.00  0.00    +0.000 A 
ATOM     25  C   UNL     1       4.481   6.624  17.030  0.00  0.00    +0.000 A 
ATOM     26  C   UNL     1       3.567   5.671  17.523  0.00  0.00    +0.000 A 
ATOM     27  C   UNL     1       3.781   4.334  17.139  0.00  0.00    +0.000 A 
ATOM     28  C   UNL     1       4.860   3.953  16.341  0.00  0.00    +0.000 A 
ENDBRANCH  22  26
BRANCH  22  29
ATOM     29  C   UNL     1       1.975   5.001  19.512  0.00  0.00    +0.000 A 
ATOM     30  C   UNL     1       1.017   4.040  19.166  0.00  0.00    +0.000 A 
ATOM     31  C   UNL     1       0.730   2.952  19.989  0.00  0.00    +0.000 A 
ATOM     32  C   UNL     1       1.362   2.824  21.219  0.00  0.00    +0.000 A 
ATOM     33  C   UNL     1       2.248   3.811  21.637  0.00  0.00    +0.000 A 
ATOM     34  C   UNL     1       2.548   4.888  20.797  0.00  0.00    +0.000 A 
ENDBRANCH  22  29
ENDBRANCH   1  22
TORSDOF 5
ENDMDL
MODEL 9
REMARK VINA RESULT:      -7.9      1.999     10.056
REMARK  Name = 
REMARK  5 active torsions:
REMARK  status: ('A' for Active; 'I' for Inactive)
REMARK    1  A    between atoms: C_4  and  C_5
REMARK    2  A    between atoms: C_5  and  C_6
REMARK    3  A    between atoms: C_5  and  N_12
REMARK    4  A    between atoms: N_15  and  C_16
REMARK    5  A    between atoms: N_24  and  C_25
REMARK                            x       y       z     vdW  Elec       q    Type
REMARK                         _______ _______ _______ _____ _____    ______ ____
ROOT
ATOM      1  N   UNL     1       2.752   7.512  19.144  0.00  0.00    +0.000 NA
ATOM      2  C   UNL     1       2.962   8.648  18.228  0.00  0.00    +0.000 C 
ATOM      3  C   UNL     1       1.702   9.419  17.708  0.00  0.00    +0.000 C 
ATOM      4  N   UNL     1       0.651   9.600  18.731  0.00  0.00    +0.000 N 
ATOM      5  C   UNL     1       0.489   8.492  19.692  0.00  0.00    +0.000 C 
ATOM      6  C   UNL     1       1.833   7.958  20.195  0.00  0.00    +0.000 C 
ENDROOT
BRANCH   4   7
ATOM      7  C   UNL     1      -0.602  10.088  18.305  0.00  0.00    +0.000 A 
ATOM      8  N   UNL     1      -1.105   9.605  17.124  0.00  0.00    +0.000 NA
ATOM      9  C   UNL     1      -2.325   9.956  16.696  0.00  0.00    +0.000 A 
ATOM     10  N   UNL     1      -3.204  10.730  17.324  0.00  0.00    +0.000 NA
ATOM     11  C   UNL     1      -2.716  11.205  18.487  0.00  0.00    +0.000 A 
ATOM     12  C   UNL     1      -1.446  10.978  19.007  0.00  0.00    +0.000 A 
ATOM     13  C   UNL     1      -1.431  11.757  20.180  0.00  0.00    +0.000 A 
ATOM     14  N   UNL     1      -2.547  12.471  20.367  0.00  0.00    +0.000 NA
ATOM     15  N   UNL     1      -3.383  12.021  19.389  0.00  0.00    +0.000 N 
BRANCH  15  16
ATOM     16  C   UNL     1      -4.767  12.353  19.406  0.00  0.00    +0.000 A 
ATOM     17  C   UNL     1      -5.557  12.112  18.275  0.00  0.00    +0.000 A 
ATOM     18  C   UNL     1      -6.912  12.461  18.283  0.00  0.00    +0.000 A 
ATOM     19  C   UNL     1      -7.471  13.077  19.403  0.00  0.00    +0.000 A 
ATOM     20  C   UNL     1      -6.683  13.343  20.521  0.00  0.00    +0.000 A 
ATOM     21  C   UNL     1      -5.337  12.964  20.533  0.00  0.00    +0.000 A 
ENDBRANCH  15  16
ENDBRANCH   4   7
BRANCH   1  22
ATOM     22  C   UNL     1       2.545   6.168  18.530  0.00  0.00    +0.000 C 
BRANCH  22  26
ATOM     23  C   UNL     1       5.524   4.978  15.546  0.00  0.00    +0.000 A 
ATOM     24  C   UNL     1       4.916   4.026  16.360  0.00  0.00    +0.000 A 
ATOM     25  C   UNL     1       4.006   4.418  17.353  0.00  0.00    +0.000 A 
ATOM     26  C   UNL     1       3.681   5.775  17.552  0.00  0.00    +0.000 A 
ATOM     27  C   UNL     1       4.342   6.709  16.732  0.00  0.00    +0.000 A 
ATOM     28  C   UNL     1       5.247   6.322  15.744  0.00  0.00    +0.000 A 
ENDBRANCH  22  26
BRANCH  22  29
ATOM     29  C   UNL     1       1.999   5.060  19.448  0.00  0.00    +0.000 A 
ATOM     30  C   UNL     1       1.052   4.109  19.046  0.00  0.00    +0.000 A 
ATOM     31  C   UNL     1       0.733   3.004  19.833  0.00  0.00    +0.000 A 
ATOM     32  C   UNL     1       1.320   2.847  21.082  0.00  0.00    +0.000 A 
ATOM     33  C   UNL     1       2.192   3.822  21.555  0.00  0.00    +0.000 A 
ATOM     34  C   UNL     1       2.525   4.917  20.750  0.00  0.00    +0.000 A 
ENDBRANCH  22  29
ENDBRANCH   1  22
TORSDOF 5
ENDMDL
