MODEL 1
REMARK VINA RESULT:      -7.6      0.000      0.000
REMARK  Name = 
REMARK  5 active torsions:
REMARK  status: ('A' for Active; 'I' for Inactive)
REMARK    1  A    between atoms: C_1  and  N_2
REMARK    2  A    between atoms: C_10  and  S_11
REMARK    3  A    between atoms: S_11  and  C_12
REMARK    4  A    between atoms: C_12  and  C_13
REMARK    5  A    between atoms: N_21  and  C_22
REMARK                            x       y       z     vdW  Elec       q    Type
REMARK                         _______ _______ _______ _____ _____    ______ ____
ROOT
ATOM      1  C   UNL     1       4.596  16.375  18.077  0.00  0.00    +0.000 C 
ATOM      2  N   UNL     1       3.828  17.013  19.149  0.00  0.00    +0.000 NA
ATOM      3  C   UNL     1       2.419  17.242  18.742  0.00  0.00    +0.000 C 
ATOM      4  C   UNL     1       1.611  15.953  18.461  0.00  0.00    +0.000 C 
ATOM      5  C   UNL     1       1.902  14.900  19.495  0.00  0.00    +0.000 A 
ATOM      6  C   UNL     1       2.956  15.043  20.375  0.00  0.00    +0.000 A 
ATOM      7  S   UNL     1       3.076  13.730  21.458  0.00  0.00    +0.000 S 
ATOM      8  C   UNL     1       1.746  12.930  20.734  0.00  0.00    +0.000 A 
ATOM      9  N   UNL     1       1.313  11.716  21.165  0.00  0.00    +0.000 NA
ATOM     10  C   UNL     1       0.321  11.213  20.487  0.00  0.00    +0.000 A 
ATOM     11  N   UNL     1      -0.277  11.830  19.368  0.00  0.00    +0.000 N 
ATOM     12  C   UNL     1       0.157  13.090  18.917  0.00  0.00    +0.000 A 
ATOM     13  O   UNL     1      -0.313  13.704  17.958  0.00  0.00    +0.000 OA
ATOM     14  C   UNL     1       1.243  13.650  19.681  0.00  0.00    +0.000 A 
ATOM     15  C   UNL     1       3.885  16.224  20.407  0.00  0.00    +0.000 C 
ENDROOT
BRANCH  11  16
ATOM     16  C   UNL     1      -1.337  11.242  18.610  0.00  0.00    +0.000 A 
ATOM     17  C   UNL     1      -1.049  10.292  17.616  0.00  0.00    +0.000 A 
ATOM     18  C   UNL     1      -2.079   9.714  16.870  0.00  0.00    +0.000 A 
ATOM     19  C   UNL     1      -3.397  10.093  17.099  0.00  0.00    +0.000 A 
ATOM     20  C   UNL     1      -3.688  11.074  18.051  0.00  0.00    +0.000 A 
ATOM     21  C   UNL     1      -2.662  11.646  18.804  0.00  0.00    +0.000 A 
ENDBRANCH  11  16
BRANCH  10  22
ATOM     22  S   UNL     1      -0.197   9.574  20.901  0.00  0.00    +0.000 S 
BRANCH  22  23
ATOM     23  C   UNL     1       1.356   8.644  21.005  0.00  0.00    +0.000 C 
BRANCH  23  24
ATOM     24  C   UNL     1       1.838   8.062  19.679  0.00  0.00    +0.000 C 
ATOM     25  O   UNL     1       1.894   8.733  18.648  0.00  0.00    +0.000 OA
ATOM     26  N   UNL     1       2.281   6.733  19.717  0.00  0.00    +0.000 N 
ATOM     27  C   UNL     1       2.939   6.153  18.547  0.00  0.00    +0.000 C 
ATOM     28  C   UNL     1       2.112   5.012  17.966  0.00  0.00    +0.000 C 
ATOM     29  C   UNL     1       1.777   3.969  19.036  0.00  0.00    +0.000 C 
ATOM     30  C   UNL     1       1.148   4.622  20.266  0.00  0.00    +0.000 C 
ATOM     31  C   UNL     1       2.012   5.772  20.791  0.00  0.00    +0.000 C 
ENDBRANCH  23  24
ENDBRANCH  22  23
ENDBRANCH  10  22
TORSDOF 4
ENDMDL
MODEL 2
REMARK VINA RESULT:      -7.1      3.425      6.766
REMARK  Name = 
REMARK  5 active torsions:
REMARK  status: ('A' for Active; 'I' for Inactive)
REMARK    1  A    between atoms: C_1  and  N_2
REMARK    2  A    between atoms: C_10  and  S_11
REMARK    3  A    between atoms: S_11  and  C_12
REMARK    4  A    between atoms: C_12  and  C_13
REMARK    5  A    between atoms: N_21  and  C_22
REMARK                            x       y       z     vdW  Elec       q    Type
REMARK                         _______ _______ _______ _____ _____    ______ ____
ROOT
ATOM      1  C   UNL     1      -1.919  11.797  19.674  0.00  0.00    +0.000 C 
ATOM      2  N   UNL     1      -0.716  12.258  20.372  0.00  0.00    +0.000 NA
ATOM      3  C   UNL     1      -0.463  11.460  21.597  0.00  0.00    +0.000 C 
ATOM      4  C   UNL     1      -0.161   9.965  21.342  0.00  0.00    +0.000 C 
ATOM      5  C   UNL     1       0.762   9.795  20.167  0.00  0.00    +0.000 A 
ATOM      6  C   UNL     1       1.035  10.852  19.322  0.00  0.00    +0.000 A 
ATOM      7  S   UNL     1       2.116  10.420  18.075  0.00  0.00    +0.000 S 
ATOM      8  C   UNL     1       2.199   8.800  18.622  0.00  0.00    +0.000 A 
ATOM      9  N   UNL     1       2.945   7.859  17.984  0.00  0.00    +0.000 NA
ATOM     10  C   UNL     1       2.872   6.662  18.491  0.00  0.00    +0.000 A 
ATOM     11  N   UNL     1       2.075   6.310  19.600  0.00  0.00    +0.000 N 
ATOM     12  C   UNL     1       1.304   7.274  20.274  0.00  0.00    +0.000 A 
ATOM     13  O   UNL     1       0.590   7.058  21.254  0.00  0.00    +0.000 OA
ATOM     14  C   UNL     1       1.402   8.602  19.720  0.00  0.00    +0.000 A 
ATOM     15  C   UNL     1       0.474  12.237  19.482  0.00  0.00    +0.000 C 
ENDROOT
BRANCH  11  16
ATOM     16  C   UNL     1       1.975   4.980  20.115  0.00  0.00    +0.000 A 
ATOM     17  C   UNL     1       1.018   4.093  19.594  0.00  0.00    +0.000 A 
ATOM     18  C   UNL     1       0.913   2.793  20.093  0.00  0.00    +0.000 A 
ATOM     19  C   UNL     1       1.748   2.377  21.124  0.00  0.00    +0.000 A 
ATOM     20  C   UNL     1       2.668   3.268  21.683  0.00  0.00    +0.000 A 
ATOM     21  C   UNL     1       2.782   4.565  21.180  0.00  0.00    +0.000 A 
ENDBRANCH  11  16
BRANCH  10  22
ATOM     22  S   UNL     1       3.702   5.363  17.625  0.00  0.00    +0.000 S 
BRANCH  22  23
ATOM     23  C   UNL     1       5.456   5.667  17.969  0.00  0.00    +0.000 C 
BRANCH  23  24
ATOM     24  C   UNL     1       6.289   6.033  16.743  0.00  0.00    +0.000 C 
ATOM     25  O   UNL     1       6.677   7.183  16.531  0.00  0.00    +0.000 OA
ATOM     26  N   UNL     1       6.649   4.969  15.905  0.00  0.00    +0.000 N 
ATOM     27  C   UNL     1       7.603   5.191  14.819  0.00  0.00    +0.000 C 
ATOM     28  C   UNL     1       6.944   4.978  13.462  0.00  0.00    +0.000 C 
ATOM     29  C   UNL     1       6.264   3.608  13.384  0.00  0.00    +0.000 C 
ATOM     30  C   UNL     1       5.323   3.390  14.568  0.00  0.00    +0.000 C 
ATOM     31  C   UNL     1       6.034   3.638  15.901  0.00  0.00    +0.000 C 
ENDBRANCH  23  24
ENDBRANCH  22  23
ENDBRANCH  10  22
TORSDOF 4
ENDMDL
MODEL 3
REMARK VINA RESULT:      -6.9      3.610      7.267
REMARK  Name = 
REMARK  5 active torsions:
REMARK  status: ('A' for Active; 'I' for Inactive)
REMARK    1  A    between atoms: C_1  and  N_2
REMARK    2  A    between atoms: C_10  and  S_11
REMARK    3  A    between atoms: S_11  and  C_12
REMARK    4  A    between atoms: C_12  and  C_13
REMARK    5  A    between atoms: N_21  and  C_22
REMARK                            x       y       z     vdW  Elec       q    Type
REMARK                         _______ _______ _______ _____ _____    ______ ____
ROOT
ATOM      1  C   UNL     1       1.427  11.650  20.103  0.00  0.00    +0.000 C 
ATOM      2  N   UNL     1       0.284  10.807  19.744  0.00  0.00    +0.000 NA
ATOM      3  C   UNL     1       0.281  10.487  18.295  0.00  0.00    +0.000 C 
ATOM      4  C   UNL     1       1.490   9.649  17.817  0.00  0.00    +0.000 C 
ATOM      5  C   UNL     1       1.807   8.553  18.797  0.00  0.00    +0.000 A 
ATOM      6  C   UNL     1       1.229   8.536  20.051  0.00  0.00    +0.000 A 
ATOM      7  S   UNL     1       1.730   7.191  20.974  0.00  0.00    +0.000 S 
ATOM      8  C   UNL     1       2.762   6.638  19.725  0.00  0.00    +0.000 A 
ATOM      9  N   UNL     1       3.526   5.522  19.860  0.00  0.00    +0.000 NA
ATOM     10  C   UNL     1       4.294   5.253  18.843  0.00  0.00    +0.000 A 
ATOM     11  N   UNL     1       4.381   6.042  17.677  0.00  0.00    +0.000 N 
ATOM     12  C   UNL     1       3.590   7.194  17.520  0.00  0.00    +0.000 A 
ATOM     13  O   UNL     1       3.594   7.933  16.534  0.00  0.00    +0.000 OA
ATOM     14  C   UNL     1       2.730   7.478  18.641  0.00  0.00    +0.000 A 
ATOM     15  C   UNL     1       0.251   9.560  20.552  0.00  0.00    +0.000 C 
ENDROOT
BRANCH  11  16
ATOM     16  C   UNL     1       5.262   5.753  16.588  0.00  0.00    +0.000 A 
ATOM     17  C   UNL     1       4.821   4.960  15.517  0.00  0.00    +0.000 A 
ATOM     18  C   UNL     1       5.676   4.673  14.450  0.00  0.00    +0.000 A 
ATOM     19  C   UNL     1       6.979   5.160  14.456  0.00  0.00    +0.000 A 
ATOM     20  C   UNL     1       7.442   5.907  15.543  0.00  0.00    +0.000 A 
ATOM     21  C   UNL     1       6.586   6.204  16.605  0.00  0.00    +0.000 A 
ENDBRANCH  11  16
BRANCH  10  22
ATOM     22  S   UNL     1       5.419   3.900  19.011  0.00  0.00    +0.000 S 
BRANCH  22  23
ATOM     23  C   UNL     1       4.634   2.566  18.066  0.00  0.00    +0.000 C 
BRANCH  23  24
ATOM     24  C   UNL     1       3.108   2.611  18.053  0.00  0.00    +0.000 C 
ATOM     25  O   UNL     1       2.469   2.947  17.055  0.00  0.00    +0.000 OA
ATOM     26  N   UNL     1       2.471   2.177  19.224  0.00  0.00    +0.000 N 
ATOM     27  C   UNL     1       1.020   2.001  19.238  0.00  0.00    +0.000 C 
ATOM     28  C   UNL     1       0.361   2.978  20.204  0.00  0.00    +0.000 C 
ATOM     29  C   UNL     1       0.983   2.884  21.599  0.00  0.00    +0.000 C 
ATOM     30  C   UNL     1       2.505   3.012  21.535  0.00  0.00    +0.000 C 
ATOM     31  C   UNL     1       3.108   2.021  20.535  0.00  0.00    +0.000 C 
ENDBRANCH  23  24
ENDBRANCH  22  23
ENDBRANCH  10  22
TORSDOF 4
ENDMDL
MODEL 4
REMARK VINA RESULT:      -6.7      5.650      9.654
REMARK  Name = 
REMARK  5 active torsions:
REMARK  status: ('A' for Active; 'I' for Inactive)
REMARK    1  A    between atoms: C_1  and  N_2
REMARK    2  A    between atoms: C_10  and  S_11
REMARK    3  A    between atoms: S_11  and  C_12
REMARK    4  A    between atoms: C_12  and  C_13
REMARK    5  A    between atoms: N_21  and  C_22
REMARK                            x       y       z     vdW  Elec       q    Type
REMARK                         _______ _______ _______ _____ _____    ______ ____
ROOT
ATOM      1  C   UNL     1       5.538  11.146  25.980  0.00  0.00    +0.000 C 
ATOM      2  N   UNL     1       6.170  12.371  26.475  0.00  0.00    +0.000 NA
ATOM      3  C   UNL     1       7.641  12.336  26.283  0.00  0.00    +0.000 C 
ATOM      4  C   UNL     1       8.099  12.286  24.807  0.00  0.00    +0.000 C 
ATOM      5  C   UNL     1       7.282  13.222  23.958  0.00  0.00    +0.000 A 
ATOM      6  C   UNL     1       6.130  13.801  24.450  0.00  0.00    +0.000 A 
ATOM      7  S   UNL     1       5.388  14.832  23.310  0.00  0.00    +0.000 S 
ATOM      8  C   UNL     1       6.574  14.481  22.127  0.00  0.00    +0.000 A 
ATOM      9  N   UNL     1       6.533  15.022  20.880  0.00  0.00    +0.000 NA
ATOM     10  C   UNL     1       7.477  14.626  20.077  0.00  0.00    +0.000 A 
ATOM     11  N   UNL     1       8.477  13.691  20.417  0.00  0.00    +0.000 N 
ATOM     12  C   UNL     1       8.537  13.130  21.705  0.00  0.00    +0.000 A 
ATOM     13  O   UNL     1       9.378  12.317  22.090  0.00  0.00    +0.000 OA
ATOM     14  C   UNL     1       7.499  13.584  22.597  0.00  0.00    +0.000 A 
ATOM     15  C   UNL     1       5.590  13.581  25.835  0.00  0.00    +0.000 C 
ENDROOT
BRANCH  11  16
ATOM     16  C   UNL     1       9.481  13.236  19.506  0.00  0.00    +0.000 A 
ATOM     17  C   UNL     1       9.248  12.102  18.710  0.00  0.00    +0.000 A 
ATOM     18  C   UNL     1      10.225  11.651  17.819  0.00  0.00    +0.000 A 
ATOM     19  C   UNL     1      11.442  12.316  17.730  0.00  0.00    +0.000 A 
ATOM     20  C   UNL     1      11.702  13.414  18.555  0.00  0.00    +0.000 A 
ATOM     21  C   UNL     1      10.724  13.873  19.439  0.00  0.00    +0.000 A 
ENDBRANCH  11  16
BRANCH  10  22
ATOM     22  S   UNL     1       7.399  15.177  18.398  0.00  0.00    +0.000 S 
BRANCH  22  23
ATOM     23  C   UNL     1       5.710  14.760  17.886  0.00  0.00    +0.000 C 
BRANCH  23  24
ATOM     24  C   UNL     1       4.663  15.816  18.228  0.00  0.00    +0.000 C 
ATOM     25  O   UNL     1       4.961  16.993  18.442  0.00  0.00    +0.000 OA
ATOM     26  N   UNL     1       3.330  15.386  18.217  0.00  0.00    +0.000 N 
ATOM     27  C   UNL     1       2.250  16.363  18.341  0.00  0.00    +0.000 C 
ATOM     28  C   UNL     1       1.463  16.148  19.629  0.00  0.00    +0.000 C 
ATOM     29  C   UNL     1       0.971  14.702  19.743  0.00  0.00    +0.000 C 
ATOM     30  C   UNL     1       2.118  13.711  19.547  0.00  0.00    +0.000 C 
ATOM     31  C   UNL     1       2.882  13.990  18.250  0.00  0.00    +0.000 C 
ENDBRANCH  23  24
ENDBRANCH  22  23
ENDBRANCH  10  22
TORSDOF 4
ENDMDL
MODEL 5
REMARK VINA RESULT:      -6.6      3.044      7.746
REMARK  Name = 
REMARK  5 active torsions:
REMARK  status: ('A' for Active; 'I' for Inactive)
REMARK    1  A    between atoms: C_1  and  N_2
REMARK    2  A    between atoms: C_10  and  S_11
REMARK    3  A    between atoms: S_11  and  C_12
REMARK    4  A    between atoms: C_12  and  C_13
REMARK    5  A    between atoms: N_21  and  C_22
REMARK                            x       y       z     vdW  Elec       q    Type
REMARK                         _______ _______ _______ _____ _____    ______ ____
ROOT
ATOM      1  C   UNL     1       4.187   4.056  16.023  0.00  0.00    +0.000 C 
ATOM      2  N   UNL     1       5.252   4.610  16.863  0.00  0.00    +0.000 NA
ATOM      3  C   UNL     1       5.529   6.027  16.521  0.00  0.00    +0.000 C 
ATOM      4  C   UNL     1       4.351   6.995  16.779  0.00  0.00    +0.000 C 
ATOM      5  C   UNL     1       3.678   6.686  18.088  0.00  0.00    +0.000 A 
ATOM      6  C   UNL     1       3.956   5.519  18.770  0.00  0.00    +0.000 A 
ATOM      7  S   UNL     1       3.083   5.401  20.232  0.00  0.00    +0.000 S 
ATOM      8  C   UNL     1       2.285   6.889  19.948  0.00  0.00    +0.000 A 
ATOM      9  N   UNL     1       1.362   7.389  20.812  0.00  0.00    +0.000 NA
ATOM     10  C   UNL     1       0.807   8.507  20.438  0.00  0.00    +0.000 A 
ATOM     11  N   UNL     1       1.090   9.175  19.228  0.00  0.00    +0.000 N 
ATOM     12  C   UNL     1       2.048   8.672  18.329  0.00  0.00    +0.000 A 
ATOM     13  O   UNL     1       2.364   9.194  17.259  0.00  0.00    +0.000 OA
ATOM     14  C   UNL     1       2.671   7.444  18.755  0.00  0.00    +0.000 A 
ATOM     15  C   UNL     1       4.933   4.475  18.308  0.00  0.00    +0.000 C 
ENDROOT
BRANCH  11  16
ATOM     16  C   UNL     1       0.438  10.379  18.816  0.00  0.00    +0.000 A 
ATOM     17  C   UNL     1      -0.863  10.332  18.291  0.00  0.00    +0.000 A 
ATOM     18  C   UNL     1      -1.506  11.504  17.886  0.00  0.00    +0.000 A 
ATOM     19  C   UNL     1      -0.847  12.724  17.984  0.00  0.00    +0.000 A 
ATOM     20  C   UNL     1       0.467  12.775  18.457  0.00  0.00    +0.000 A 
ATOM     21  C   UNL     1       1.107  11.606  18.873  0.00  0.00    +0.000 A 
ENDBRANCH  11  16
BRANCH  10  22
ATOM     22  S   UNL     1      -0.504   9.137  21.443  0.00  0.00    +0.000 S 
BRANCH  22  23
ATOM     23  C   UNL     1       0.096  10.768  21.963  0.00  0.00    +0.000 C 
BRANCH  23  24
ATOM     24  C   UNL     1      -0.931  11.613  22.711  0.00  0.00    +0.000 C 
ATOM     25  O   UNL     1      -1.910  11.117  23.270  0.00  0.00    +0.000 OA
ATOM     26  N   UNL     1      -0.658  12.986  22.787  0.00  0.00    +0.000 N 
ATOM     27  C   UNL     1      -1.477  13.843  23.643  0.00  0.00    +0.000 C 
ATOM     28  C   UNL     1      -2.250  14.863  22.815  0.00  0.00    +0.000 C 
ATOM     29  C   UNL     1      -1.314  15.659  21.901  0.00  0.00    +0.000 C 
ATOM     30  C   UNL     1      -0.433  14.728  21.067  0.00  0.00    +0.000 C 
ATOM     31  C   UNL     1       0.301  13.714  21.950  0.00  0.00    +0.000 C 
ENDBRANCH  23  24
ENDBRANCH  22  23
ENDBRANCH  10  22
TORSDOF 4
ENDMDL
MODEL 6
REMARK VINA RESULT:      -6.6      2.982      7.880
REMARK  Name = 
REMARK  5 active torsions:
REMARK  status: ('A' for Active; 'I' for Inactive)
REMARK    1  A    between atoms: C_1  and  N_2
REMARK    2  A    between atoms: C_10  and  S_11
REMARK    3  A    between atoms: S_11  and  C_12
REMARK    4  A    between atoms: C_12  and  C_13
REMARK    5  A    between atoms: N_21  and  C_22
REMARK                            x       y       z     vdW  Elec       q    Type
REMARK                         _______ _______ _______ _____ _____    ______ ____
ROOT
ATOM      1  C   UNL     1       3.757   3.729  16.707  0.00  0.00    +0.000 C 
ATOM      2  N   UNL     1       4.826   4.261  17.556  0.00  0.00    +0.000 NA
ATOM      3  C   UNL     1       5.221   5.628  17.136  0.00  0.00    +0.000 C 
ATOM      4  C   UNL     1       4.108   6.693  17.276  0.00  0.00    +0.000 C 
ATOM      5  C   UNL     1       3.362   6.524  18.571  0.00  0.00    +0.000 A 
ATOM      6  C   UNL     1       3.525   5.389  19.340  0.00  0.00    +0.000 A 
ATOM      7  S   UNL     1       2.587   5.433  20.765  0.00  0.00    +0.000 S 
ATOM      8  C   UNL     1       1.914   6.951  20.349  0.00  0.00    +0.000 A 
ATOM      9  N   UNL     1       0.996   7.574  21.136  0.00  0.00    +0.000 NA
ATOM     10  C   UNL     1       0.542   8.700  20.666  0.00  0.00    +0.000 A 
ATOM     11  N   UNL     1       0.921   9.262  19.429  0.00  0.00    +0.000 N 
ATOM     12  C   UNL     1       1.875   8.633  18.609  0.00  0.00    +0.000 A 
ATOM     13  O   UNL     1       2.272   9.056  17.522  0.00  0.00    +0.000 OA
ATOM     14  C   UNL     1       2.388   7.395  19.141  0.00  0.00    +0.000 A 
ATOM     15  C   UNL     1       4.440   4.249  18.991  0.00  0.00    +0.000 C 
ENDROOT
BRANCH  11  16
ATOM     16  C   UNL     1       0.378  10.479  18.910  0.00  0.00    +0.000 A 
ATOM     17  C   UNL     1       1.134  11.662  18.952  0.00  0.00    +0.000 A 
ATOM     18  C   UNL     1       0.610  12.855  18.449  0.00  0.00    +0.000 A 
ATOM     19  C   UNL     1      -0.675  12.877  17.918  0.00  0.00    +0.000 A 
ATOM     20  C   UNL     1      -1.453  11.717  17.919  0.00  0.00    +0.000 A 
ATOM     21  C   UNL     1      -0.928  10.521  18.413  0.00  0.00    +0.000 A 
ENDBRANCH  11  16
BRANCH  10  22
ATOM     22  S   UNL     1      -0.759   9.489  21.567  0.00  0.00    +0.000 S 
BRANCH  22  23
ATOM     23  C   UNL     1      -0.045  11.087  22.044  0.00  0.00    +0.000 C 
BRANCH  23  24
ATOM     24  C   UNL     1      -1.001  12.009  22.797  0.00  0.00    +0.000 C 
ATOM     25  O   UNL     1      -1.995  11.586  23.388  0.00  0.00    +0.000 OA
ATOM     26  N   UNL     1      -0.642  13.364  22.836  0.00  0.00    +0.000 N 
ATOM     27  C   UNL     1      -1.386  14.287  23.691  0.00  0.00    +0.000 C 
ATOM     28  C   UNL     1      -2.114  15.336  22.859  0.00  0.00    +0.000 C 
ATOM     29  C   UNL     1      -1.153  16.053  21.907  0.00  0.00    +0.000 C 
ATOM     30  C   UNL     1      -0.350  15.053  21.075  0.00  0.00    +0.000 C 
ATOM     31  C   UNL     1       0.340  14.014  21.963  0.00  0.00    +0.000 C 
ENDBRANCH  23  24
ENDBRANCH  22  23
ENDBRANCH  10  22
TORSDOF 4
ENDMDL
MODEL 7
REMARK VINA RESULT:      -6.5      6.323      8.692
REMARK  Name = 
REMARK  5 active torsions:
REMARK  status: ('A' for Active; 'I' for Inactive)
REMARK    1  A    between atoms: C_1  and  N_2
REMARK    2  A    between atoms: C_10  and  S_11
REMARK    3  A    between atoms: S_11  and  C_12
REMARK    4  A    between atoms: C_12  and  C_13
REMARK    5  A    between atoms: N_21  and  C_22
REMARK                            x       y       z     vdW  Elec       q    Type
REMARK                         _______ _______ _______ _____ _____    ______ ____
ROOT
ATOM      1  C   UNL     1      11.610  11.426  18.800  0.00  0.00    +0.000 C 
ATOM      2  N   UNL     1      12.077  12.681  18.204  0.00  0.00    +0.000 NA
ATOM      3  C   UNL     1      11.212  13.097  17.073  0.00  0.00    +0.000 C 
ATOM      4  C   UNL     1       9.752  13.425  17.464  0.00  0.00    +0.000 C 
ATOM      5  C   UNL     1       9.702  14.218  18.742  0.00  0.00    +0.000 A 
ATOM      6  C   UNL     1      10.823  14.355  19.534  0.00  0.00    +0.000 A 
ATOM      7  S   UNL     1      10.523  15.307  20.919  0.00  0.00    +0.000 S 
ATOM      8  C   UNL     1       8.876  15.510  20.499  0.00  0.00    +0.000 A 
ATOM      9  N   UNL     1       8.014  16.215  21.279  0.00  0.00    +0.000 NA
ATOM     10  C   UNL     1       6.783  16.243  20.853  0.00  0.00    +0.000 A 
ATOM     11  N   UNL     1       6.324  15.587  19.692  0.00  0.00    +0.000 N 
ATOM     12  C   UNL     1       7.206  14.861  18.872  0.00  0.00    +0.000 A 
ATOM     13  O   UNL     1       6.894  14.269  17.838  0.00  0.00    +0.000 OA
ATOM     14  C   UNL     1       8.570  14.847  19.338  0.00  0.00    +0.000 A 
ATOM     15  C   UNL     1      12.168  13.764  19.217  0.00  0.00    +0.000 C 
ENDROOT
BRANCH  11  16
ATOM     16  C   UNL     1       4.959  15.594  19.264  0.00  0.00    +0.000 A 
ATOM     17  C   UNL     1       4.073  14.605  19.721  0.00  0.00    +0.000 A 
ATOM     18  C   UNL     1       2.739  14.605  19.307  0.00  0.00    +0.000 A 
ATOM     19  C   UNL     1       2.288  15.578  18.423  0.00  0.00    +0.000 A 
ATOM     20  C   UNL     1       3.175  16.535  17.923  0.00  0.00    +0.000 A 
ATOM     21  C   UNL     1       4.506  16.544  18.342  0.00  0.00    +0.000 A 
ENDBRANCH  11  16
BRANCH  10  22
ATOM     22  S   UNL     1       5.582  17.019  21.893  0.00  0.00    +0.000 S 
BRANCH  22  23
ATOM     23  C   UNL     1       5.743  16.139  23.470  0.00  0.00    +0.000 C 
BRANCH  23  24
ATOM     24  C   UNL     1       5.417  14.649  23.401  0.00  0.00    +0.000 C 
ATOM     25  O   UNL     1       4.289  14.234  23.129  0.00  0.00    +0.000 OA
ATOM     26  N   UNL     1       6.495  13.775  23.597  0.00  0.00    +0.000 N 
ATOM     27  C   UNL     1       6.322  12.343  23.359  0.00  0.00    +0.000 C 
ATOM     28  C   UNL     1       6.491  11.550  24.649  0.00  0.00    +0.000 C 
ATOM     29  C   UNL     1       7.820  11.881  25.333  0.00  0.00    +0.000 C 
ATOM     30  C   UNL     1       7.991  13.390  25.508  0.00  0.00    +0.000 C 
ATOM     31  C   UNL     1       7.790  14.133  24.185  0.00  0.00    +0.000 C 
ENDBRANCH  23  24
ENDBRANCH  22  23
ENDBRANCH  10  22
TORSDOF 4
ENDMDL
MODEL 8
REMARK VINA RESULT:      -6.5      4.428      8.130
REMARK  Name = 
REMARK  5 active torsions:
REMARK  status: ('A' for Active; 'I' for Inactive)
REMARK    1  A    between atoms: C_1  and  N_2
REMARK    2  A    between atoms: C_10  and  S_11
REMARK    3  A    between atoms: S_11  and  C_12
REMARK    4  A    between atoms: C_12  and  C_13
REMARK    5  A    between atoms: N_21  and  C_22
REMARK                            x       y       z     vdW  Elec       q    Type
REMARK                         _______ _______ _______ _____ _____    ______ ____
ROOT
ATOM      1  C   UNL     1       2.030  10.449  18.078  0.00  0.00    +0.000 C 
ATOM      2  N   UNL     1       1.084   9.408  18.489  0.00  0.00    +0.000 NA
ATOM      3  C   UNL     1       1.097   9.216  19.960  0.00  0.00    +0.000 C 
ATOM      4  C   UNL     1       0.630  10.444  20.776  0.00  0.00    +0.000 C 
ATOM      5  C   UNL     1      -0.574  11.085  20.141  0.00  0.00    +0.000 A 
ATOM      6  C   UNL     1      -0.976  10.733  18.869  0.00  0.00    +0.000 A 
ATOM      7  S   UNL     1      -2.371  11.582  18.374  0.00  0.00    +0.000 S 
ATOM      8  C   UNL     1      -2.429  12.467  19.838  0.00  0.00    +0.000 A 
ATOM      9  N   UNL     1      -3.381  13.407  20.077  0.00  0.00    +0.000 NA
ATOM     10  C   UNL     1      -3.268  14.029  21.216  0.00  0.00    +0.000 A 
ATOM     11  N   UNL     1      -2.241  13.798  22.154  0.00  0.00    +0.000 N 
ATOM     12  C   UNL     1      -1.254  12.823  21.924  0.00  0.00    +0.000 A 
ATOM     13  O   UNL     1      -0.330  12.549  22.691  0.00  0.00    +0.000 OA
ATOM     14  C   UNL     1      -1.393  12.126  20.670  0.00  0.00    +0.000 A 
ATOM     15  C   UNL     1      -0.293   9.703  18.014  0.00  0.00    +0.000 C 
ENDROOT
BRANCH  11  16
ATOM     16  C   UNL     1      -2.109  14.521  23.381  0.00  0.00    +0.000 A 
ATOM     17  C   UNL     1      -2.891  14.169  24.493  0.00  0.00    +0.000 A 
ATOM     18  C   UNL     1      -2.770  14.872  25.694  0.00  0.00    +0.000 A 
ATOM     19  C   UNL     1      -1.883  15.939  25.786  0.00  0.00    +0.000 A 
ATOM     20  C   UNL     1      -1.138  16.329  24.669  0.00  0.00    +0.000 A 
ATOM     21  C   UNL     1      -1.251  15.622  23.470  0.00  0.00    +0.000 A 
ENDBRANCH  11  16
BRANCH  10  22
ATOM     22  S   UNL     1      -4.386  15.363  21.526  0.00  0.00    +0.000 S 
BRANCH  22  23
ATOM     23  C   UNL     1      -5.797  14.564  22.338  0.00  0.00    +0.000 C 
BRANCH  23  24
ATOM     24  C   UNL     1      -5.965  13.083  22.008  0.00  0.00    +0.000 C 
ATOM     25  O   UNL     1      -5.458  12.194  22.694  0.00  0.00    +0.000 OA
ATOM     26  N   UNL     1      -6.790  12.788  20.914  0.00  0.00    +0.000 N 
ATOM     27  C   UNL     1      -7.165  11.402  20.640  0.00  0.00    +0.000 C 
ATOM     28  C   UNL     1      -6.596  10.935  19.306  0.00  0.00    +0.000 C 
ATOM     29  C   UNL     1      -6.984  11.889  18.173  0.00  0.00    +0.000 C 
ATOM     30  C   UNL     1      -6.632  13.335  18.523  0.00  0.00    +0.000 C 
ATOM     31  C   UNL     1      -7.212  13.739  19.880  0.00  0.00    +0.000 C 
ENDBRANCH  23  24
ENDBRANCH  22  23
ENDBRANCH  10  22
TORSDOF 4
ENDMDL
MODEL 9
REMARK VINA RESULT:      -6.5      5.440      9.133
REMARK  Name = 
REMARK  5 active torsions:
REMARK  status: ('A' for Active; 'I' for Inactive)
REMARK    1  A    between atoms: C_1  and  N_2
REMARK    2  A    between atoms: C_10  and  S_11
REMARK    3  A    between atoms: S_11  and  C_12
REMARK    4  A    between atoms: C_12  and  C_13
REMARK    5  A    between atoms: N_21  and  C_22
REMARK                            x       y       z     vdW  Elec       q    Type
REMARK                         _______ _______ _______ _____ _____    ______ ____
ROOT
ATOM      1  C   UNL     1       0.848  13.487  18.385  0.00  0.00    +0.000 C 
ATOM      2  N   UNL     1       0.600  14.766  19.057  0.00  0.00    +0.000 NA
ATOM      3  C   UNL     1       0.622  14.613  20.533  0.00  0.00    +0.000 C 
ATOM      4  C   UNL     1       1.985  14.176  21.117  0.00  0.00    +0.000 C 
ATOM      5  C   UNL     1       3.116  14.911  20.451  0.00  0.00    +0.000 A 
ATOM      6  C   UNL     1       2.904  15.649  19.304  0.00  0.00    +0.000 A 
ATOM      7  S   UNL     1       4.330  16.400  18.744  0.00  0.00    +0.000 S 
ATOM      8  C   UNL     1       5.262  15.710  20.004  0.00  0.00    +0.000 A 
ATOM      9  N   UNL     1       6.600  15.926  20.115  0.00  0.00    +0.000 NA
ATOM     10  C   UNL     1       7.179  15.298  21.097  0.00  0.00    +0.000 A 
ATOM     11  N   UNL     1       6.520  14.429  21.991  0.00  0.00    +0.000 N 
ATOM     12  C   UNL     1       5.135  14.203  21.893  0.00  0.00    +0.000 A 
ATOM     13  O   UNL     1       4.478  13.471  22.635  0.00  0.00    +0.000 OA
ATOM     14  C   UNL     1       4.494  14.913  20.815  0.00  0.00    +0.000 A 
ATOM     15  C   UNL     1       1.571  15.805  18.627  0.00  0.00    +0.000 C 
ENDROOT
BRANCH  11  16
ATOM     16  C   UNL     1       7.183  13.715  23.038  0.00  0.00    +0.000 A 
ATOM     17  C   UNL     1       7.369  14.317  24.293  0.00  0.00    +0.000 A 
ATOM     18  C   UNL     1       8.017  13.626  25.319  0.00  0.00    +0.000 A 
ATOM     19  C   UNL     1       8.497  12.341  25.094  0.00  0.00    +0.000 A 
ATOM     20  C   UNL     1       8.361  11.753  23.833  0.00  0.00    +0.000 A 
ATOM     21  C   UNL     1       7.705  12.437  22.808  0.00  0.00    +0.000 A 
ENDBRANCH  11  16
BRANCH  10  22
ATOM     22  S   UNL     1       8.940  15.419  21.211  0.00  0.00    +0.000 S 
BRANCH  22  23
ATOM     23  C   UNL     1       9.447  15.916  19.542  0.00  0.00    +0.000 C 
BRANCH  23  24
ATOM     24  C   UNL     1       9.405  14.796  18.505  0.00  0.00    +0.000 C 
ATOM     25  O   UNL     1       8.419  14.593  17.796  0.00  0.00    +0.000 OA
ATOM     26  N   UNL     1      10.584  14.053  18.356  0.00  0.00    +0.000 N 
ATOM     27  C   UNL     1      10.704  13.093  17.260  0.00  0.00    +0.000 C 
ATOM     28  C   UNL     1      10.831  11.670  17.792  0.00  0.00    +0.000 C 
ATOM     29  C   UNL     1      11.972  11.557  18.807  0.00  0.00    +0.000 C 
ATOM     30  C   UNL     1      11.845  12.616  19.902  0.00  0.00    +0.000 C 
ATOM     31  C   UNL     1      11.700  14.020  19.308  0.00  0.00    +0.000 C 
ENDBRANCH  23  24
ENDBRANCH  22  23
ENDBRANCH  10  22
TORSDOF 4
ENDMDL
