MODEL 1
REMARK VINA RESULT:      -8.9      0.000      0.000
REMARK  Name = 
REMARK  9 active torsions:
REMARK  status: ('A' for Active; 'I' for Inactive)
REMARK    1  A    between atoms: C_1  and  O_2
REMARK    2  A    between atoms: O_2  and  C_3
REMARK    3  A    between atoms: C_5  and  N_6
REMARK    4  A    between atoms: C_21  and  N_22
REMARK    5  A    between atoms: C_23  and  C_25
REMARK    6  A    between atoms: C_25  and  C_26
REMARK    7  A    between atoms: C_29  and  C_30
REMARK    8  A    between atoms: C_30  and  C_31
REMARK    9  A    between atoms: C_30  and  C_32
REMARK                            x       y       z     vdW  Elec       q    Type
REMARK                         _______ _______ _______ _____ _____    ______ ____
ROOT
ATOM      1  C   UNL     1       1.269   8.673  19.958  0.00  0.00    +0.000 A 
ATOM      2  C   UNL     1       2.160   7.589  19.984  0.00  0.00    +0.000 A 
ATOM      3  C   UNL     1       2.802   7.153  18.821  0.00  0.00    +0.000 A 
ATOM      4  C   UNL     1       2.607   7.872  17.644  0.00  0.00    +0.000 A 
ATOM      5  C   UNL     1       1.780   8.999  17.630  0.00  0.00    +0.000 A 
ATOM      6  C   UNL     1       1.090   9.418  18.772  0.00  0.00    +0.000 A 
ENDROOT
BRANCH   3   7
ATOM      7  N   UNL     1       3.669   6.017  18.830  0.00  0.00    +0.000 N 
ATOM      8  C   UNL     1       4.878   5.957  18.178  0.00  0.00    +0.000 A 
ATOM      9  C   UNL     1       5.501   4.770  18.432  0.00  0.00    +0.000 A 
ATOM     10  C   UNL     1       4.664   4.014  19.240  0.00  0.00    +0.000 A 
ATOM     11  N   UNL     1       4.878   2.774  19.719  0.00  0.00    +0.000 NA
ATOM     12  C   UNL     1       3.867   2.310  20.447  0.00  0.00    +0.000 A 
ATOM     13  N   UNL     1       2.709   2.928  20.719  0.00  0.00    +0.000 NA
ATOM     14  C   UNL     1       2.493   4.164  20.230  0.00  0.00    +0.000 A 
ATOM     15  N   UNL     1       1.231   4.674  20.497  0.00  0.00    +0.000 N 
ATOM     16  C   UNL     1       3.506   4.775  19.485  0.00  0.00    +0.000 A 
ATOM     17  C   UNL     1       6.843   4.695  17.830  0.00  0.00    +0.000 C 
ATOM     18  C   UNL     1       7.116   6.195  17.494  0.00  0.00    +0.000 C 
ATOM     19  C   UNL     1       5.721   6.900  17.402  0.00  0.00    +0.000 C 
ATOM     20  H   UNL     1       0.660   3.923  20.878  0.00  0.00    +0.000 HD
ATOM     21  H   UNL     1       0.816   5.151  19.705  0.00  0.00    +0.000 HD
ENDBRANCH   3   7
BRANCH   6  22
ATOM     22  N   UNL     1       0.261  10.569  18.772  0.00  0.00    +0.000 N 
ATOM     23  C   UNL     1      -0.965  10.700  18.134  0.00  0.00    +0.000 C 
ATOM     24  O   UNL     1      -1.614   9.788  17.622  0.00  0.00    +0.000 OA
ATOM     25  H   UNL     1       0.578  11.334  19.364  0.00  0.00    +0.000 HD
BRANCH  23  26
ATOM     26  C   UNL     1      -1.508  12.114  18.088  0.00  0.00    +0.000 C 
BRANCH  26  27
ATOM     27  C   UNL     1      -1.128  12.863  19.314  0.00  0.00    +0.000 A 
ATOM     28  C   UNL     1      -0.567  14.126  19.379  0.00  0.00    +0.000 A 
ATOM     29  S   UNL     1      -0.320  14.573  21.013  0.00  0.00    +0.000 S 
ATOM     30  C   UNL     1      -0.981  13.066  21.513  0.00  0.00    +0.000 A 
ATOM     31  N   UNL     1      -1.346  12.259  20.538  0.00  0.00    +0.000 NA
BRANCH  30  32
ATOM     32  C   UNL     1      -1.140  12.744  22.974  0.00  0.00    +0.000 C 
ATOM     33  C   UNL     1      -2.145  13.706  23.610  0.00  0.00    +0.000 C 
ATOM     34  C   UNL     1      -1.590  11.296  23.158  0.00  0.00    +0.000 C 
ENDBRANCH  30  32
ENDBRANCH  26  27
ENDBRANCH  23  26
ENDBRANCH   6  22
BRANCH   1  36
ATOM     35  C   UNL     1       1.318   9.128  22.280  0.00  0.00    +0.000 C 
ATOM     36  O   UNL     1       0.554   9.072  21.070  0.00  0.00    +0.000 OA
ENDBRANCH   1  36
TORSDOF 6
ENDMDL
MODEL 2
REMARK VINA RESULT:      -8.9      1.214      1.330
REMARK  Name = 
REMARK  9 active torsions:
REMARK  status: ('A' for Active; 'I' for Inactive)
REMARK    1  A    between atoms: C_1  and  O_2
REMARK    2  A    between atoms: O_2  and  C_3
REMARK    3  A    between atoms: C_5  and  N_6
REMARK    4  A    between atoms: C_21  and  N_22
REMARK    5  A    between atoms: C_23  and  C_25
REMARK    6  A    between atoms: C_25  and  C_26
REMARK    7  A    between atoms: C_29  and  C_30
REMARK    8  A    between atoms: C_30  and  C_31
REMARK    9  A    between atoms: C_30  and  C_32
REMARK                            x       y       z     vdW  Elec       q    Type
REMARK                         _______ _______ _______ _____ _____    ______ ____
ROOT
ATOM      1  C   UNL     1       1.274   8.762  20.141  0.00  0.00    +0.000 A 
ATOM      2  C   UNL     1       2.174   7.685  20.102  0.00  0.00    +0.000 A 
ATOM      3  C   UNL     1       2.683   7.213  18.889  0.00  0.00    +0.000 A 
ATOM      4  C   UNL     1       2.346   7.887  17.718  0.00  0.00    +0.000 A 
ATOM      5  C   UNL     1       1.510   9.006  17.759  0.00  0.00    +0.000 A 
ATOM      6  C   UNL     1       0.951   9.462  18.959  0.00  0.00    +0.000 A 
ENDROOT
BRANCH   3   7
ATOM      7  N   UNL     1       3.558   6.084  18.837  0.00  0.00    +0.000 N 
ATOM      8  C   UNL     1       4.732   6.043  18.123  0.00  0.00    +0.000 A 
ATOM      9  C   UNL     1       5.377   4.858  18.329  0.00  0.00    +0.000 A 
ATOM     10  C   UNL     1       4.589   4.084  19.169  0.00  0.00    +0.000 A 
ATOM     11  N   UNL     1       4.838   2.840  19.619  0.00  0.00    +0.000 NA
ATOM     12  C   UNL     1       3.869   2.358  20.392  0.00  0.00    +0.000 A 
ATOM     13  N   UNL     1       2.722   2.962  20.733  0.00  0.00    +0.000 NA
ATOM     14  C   UNL     1       2.471   4.203  20.272  0.00  0.00    +0.000 A 
ATOM     15  N   UNL     1       1.221   4.699  20.611  0.00  0.00    +0.000 N 
ATOM     16  C   UNL     1       3.439   4.833  19.483  0.00  0.00    +0.000 A 
ATOM     17  C   UNL     1       6.686   4.802  17.656  0.00  0.00    +0.000 C 
ATOM     18  C   UNL     1       6.930   6.309  17.327  0.00  0.00    +0.000 C 
ATOM     19  C   UNL     1       5.527   7.003  17.317  0.00  0.00    +0.000 C 
ATOM     20  H   UNL     1       0.677   3.938  21.011  0.00  0.00    +0.000 HD
ATOM     21  H   UNL     1       0.762   5.182  19.848  0.00  0.00    +0.000 HD
ENDBRANCH   3   7
BRANCH   6  22
ATOM     22  N   UNL     1       0.114  10.606  19.013  0.00  0.00    +0.000 N 
ATOM     23  C   UNL     1      -1.207  10.680  18.595  0.00  0.00    +0.000 C 
ATOM     24  O   UNL     1      -1.920   9.726  18.281  0.00  0.00    +0.000 OA
ATOM     25  H   UNL     1       0.517  11.417  19.477  0.00  0.00    +0.000 HD
BRANCH  23  26
ATOM     26  C   UNL     1      -1.775  12.084  18.533  0.00  0.00    +0.000 C 
BRANCH  26  27
ATOM     27  C   UNL     1      -2.625  12.359  19.720  0.00  0.00    +0.000 A 
ATOM     28  C   UNL     1      -3.985  12.613  19.730  0.00  0.00    +0.000 A 
ATOM     29  S   UNL     1      -4.522  12.858  21.337  0.00  0.00    +0.000 S 
ATOM     30  C   UNL     1      -2.918  12.604  21.900  0.00  0.00    +0.000 A 
ATOM     31  N   UNL     1      -2.021  12.373  20.963  0.00  0.00    +0.000 NA
BRANCH  30  32
ATOM     32  C   UNL     1      -2.609  12.624  23.372  0.00  0.00    +0.000 C 
ATOM     33  C   UNL     1      -1.822  13.889  23.719  0.00  0.00    +0.000 C 
ATOM     34  C   UNL     1      -3.896  12.548  24.192  0.00  0.00    +0.000 C 
ENDBRANCH  30  32
ENDBRANCH  26  27
ENDBRANCH  23  26
ENDBRANCH   6  22
BRANCH   1  36
ATOM     35  C   UNL     1      -0.431   8.413  21.746  0.00  0.00    +0.000 C 
ATOM     36  O   UNL     1       0.688   9.196  21.314  0.00  0.00    +0.000 OA
ENDBRANCH   1  36
TORSDOF 6
ENDMDL
MODEL 3
REMARK VINA RESULT:      -8.8      2.144      2.467
REMARK  Name = 
REMARK  9 active torsions:
REMARK  status: ('A' for Active; 'I' for Inactive)
REMARK    1  A    between atoms: C_1  and  O_2
REMARK    2  A    between atoms: O_2  and  C_3
REMARK    3  A    between atoms: C_5  and  N_6
REMARK    4  A    between atoms: C_21  and  N_22
REMARK    5  A    between atoms: C_23  and  C_25
REMARK    6  A    between atoms: C_25  and  C_26
REMARK    7  A    between atoms: C_29  and  C_30
REMARK    8  A    between atoms: C_30  and  C_31
REMARK    9  A    between atoms: C_30  and  C_32
REMARK                            x       y       z     vdW  Elec       q    Type
REMARK                         _______ _______ _______ _____ _____    ______ ____
ROOT
ATOM      1  C   UNL     1       1.303   8.785  20.094  0.00  0.00    +0.000 A 
ATOM      2  C   UNL     1       2.195   7.701  20.078  0.00  0.00    +0.000 A 
ATOM      3  C   UNL     1       2.690   7.189  18.875  0.00  0.00    +0.000 A 
ATOM      4  C   UNL     1       2.347   7.831  17.688  0.00  0.00    +0.000 A 
ATOM      5  C   UNL     1       1.519   8.956  17.703  0.00  0.00    +0.000 A 
ATOM      6  C   UNL     1       0.974   9.451  18.894  0.00  0.00    +0.000 A 
ENDROOT
BRANCH   3   7
ATOM      7  N   UNL     1       3.556   6.053  18.850  0.00  0.00    +0.000 N 
ATOM      8  C   UNL     1       4.745   5.997  18.162  0.00  0.00    +0.000 A 
ATOM      9  C   UNL     1       5.376   4.809  18.389  0.00  0.00    +0.000 A 
ATOM     10  C   UNL     1       4.563   4.047  19.216  0.00  0.00    +0.000 A 
ATOM     11  N   UNL     1       4.792   2.804  19.679  0.00  0.00    +0.000 NA
ATOM     12  C   UNL     1       3.802   2.334  20.434  0.00  0.00    +0.000 A 
ATOM     13  N   UNL     1       2.654   2.950  20.746  0.00  0.00    +0.000 NA
ATOM     14  C   UNL     1       2.423   4.189  20.272  0.00  0.00    +0.000 A 
ATOM     15  N   UNL     1       1.170   4.697  20.580  0.00  0.00    +0.000 N 
ATOM     16  C   UNL     1       3.413   4.806  19.501  0.00  0.00    +0.000 A 
ATOM     17  C   UNL     1       6.699   4.738  17.745  0.00  0.00    +0.000 C 
ATOM     18  C   UNL     1       6.962   6.241  17.412  0.00  0.00    +0.000 C 
ATOM     19  C   UNL     1       5.565   6.946  17.368  0.00  0.00    +0.000 C 
ATOM     20  H   UNL     1       0.611   3.944  20.973  0.00  0.00    +0.000 HD
ATOM     21  H   UNL     1       0.732   5.180  19.805  0.00  0.00    +0.000 HD
ENDBRANCH   3   7
BRANCH   6  22
ATOM     22  N   UNL     1       0.146  10.603  18.921  0.00  0.00    +0.000 N 
ATOM     23  C   UNL     1      -1.151  10.695  18.437  0.00  0.00    +0.000 C 
ATOM     24  O   UNL     1      -1.855   9.753  18.073  0.00  0.00    +0.000 OA
ATOM     25  H   UNL     1       0.532  11.404  19.417  0.00  0.00    +0.000 HD
BRANCH  23  26
ATOM     26  C   UNL     1      -1.702  12.105  18.366  0.00  0.00    +0.000 C 
BRANCH  26  27
ATOM     27  C   UNL     1      -2.858  12.265  19.286  0.00  0.00    +0.000 A 
ATOM     28  C   UNL     1      -2.822  12.693  20.601  0.00  0.00    +0.000 A 
ATOM     29  S   UNL     1      -4.407  12.728  21.248  0.00  0.00    +0.000 S 
ATOM     30  C   UNL     1      -5.023  12.180  19.739  0.00  0.00    +0.000 A 
ATOM     31  N   UNL     1      -4.118  11.958  18.808  0.00  0.00    +0.000 NA
BRANCH  30  32
ATOM     32  C   UNL     1      -6.502  12.008  19.530  0.00  0.00    +0.000 C 
ATOM     33  C   UNL     1      -6.759  10.845  18.570  0.00  0.00    +0.000 C 
ATOM     34  C   UNL     1      -7.208  11.769  20.865  0.00  0.00    +0.000 C 
ENDBRANCH  30  32
ENDBRANCH  26  27
ENDBRANCH  23  26
ENDBRANCH   6  22
BRANCH   1  36
ATOM     35  C   UNL     1      -0.363   8.472  21.745  0.00  0.00    +0.000 C 
ATOM     36  O   UNL     1       0.730   9.258  21.258  0.00  0.00    +0.000 OA
ENDBRANCH   1  36
TORSDOF 6
ENDMDL
MODEL 4
REMARK VINA RESULT:      -8.6      2.189      2.469
REMARK  Name = 
REMARK  9 active torsions:
REMARK  status: ('A' for Active; 'I' for Inactive)
REMARK    1  A    between atoms: C_1  and  O_2
REMARK    2  A    between atoms: O_2  and  C_3
REMARK    3  A    between atoms: C_5  and  N_6
REMARK    4  A    between atoms: C_21  and  N_22
REMARK    5  A    between atoms: C_23  and  C_25
REMARK    6  A    between atoms: C_25  and  C_26
REMARK    7  A    between atoms: C_29  and  C_30
REMARK    8  A    between atoms: C_30  and  C_31
REMARK    9  A    between atoms: C_30  and  C_32
REMARK                            x       y       z     vdW  Elec       q    Type
REMARK                         _______ _______ _______ _____ _____    ______ ____
ROOT
ATOM      1  C   UNL     1       1.227   8.497  20.016  0.00  0.00    +0.000 A 
ATOM      2  C   UNL     1       2.158   7.446  20.022  0.00  0.00    +0.000 A 
ATOM      3  C   UNL     1       2.834   7.073  18.856  0.00  0.00    +0.000 A 
ATOM      4  C   UNL     1       2.629   7.821  17.700  0.00  0.00    +0.000 A 
ATOM      5  C   UNL     1       1.760   8.915  17.707  0.00  0.00    +0.000 A 
ATOM      6  C   UNL     1       1.037   9.272  18.851  0.00  0.00    +0.000 A 
ENDROOT
BRANCH   3   7
ATOM      7  N   UNL     1       3.743   5.971  18.843  0.00  0.00    +0.000 N 
ATOM      8  C   UNL     1       4.956   5.971  18.196  0.00  0.00    +0.000 A 
ATOM      9  C   UNL     1       5.623   4.803  18.426  0.00  0.00    +0.000 A 
ATOM     10  C   UNL     1       4.812   3.998  19.213  0.00  0.00    +0.000 A 
ATOM     11  N   UNL     1       5.071   2.757  19.665  0.00  0.00    +0.000 NA
ATOM     12  C   UNL     1       4.076   2.238  20.377  0.00  0.00    +0.000 A 
ATOM     13  N   UNL     1       2.895   2.805  20.659  0.00  0.00    +0.000 NA
ATOM     14  C   UNL     1       2.633   4.042  20.197  0.00  0.00    +0.000 A 
ATOM     15  N   UNL     1       1.352   4.498  20.469  0.00  0.00    +0.000 N 
ATOM     16  C   UNL     1       3.625   4.709  19.469  0.00  0.00    +0.000 A 
ATOM     17  C   UNL     1       6.968   4.792  17.828  0.00  0.00    +0.000 C 
ATOM     18  C   UNL     1       7.186   6.310  17.528  0.00  0.00    +0.000 C 
ATOM     19  C   UNL     1       5.766   6.963  17.445  0.00  0.00    +0.000 C 
ATOM     20  H   UNL     1       0.809   3.718  20.830  0.00  0.00    +0.000 HD
ATOM     21  H   UNL     1       0.922   4.977  19.686  0.00  0.00    +0.000 HD
ENDBRANCH   3   7
BRANCH   6  22
ATOM     22  N   UNL     1       0.165  10.390  18.873  0.00  0.00    +0.000 N 
ATOM     23  C   UNL     1      -1.025  10.520  18.171  0.00  0.00    +0.000 C 
ATOM     24  O   UNL     1      -1.605   9.622  17.561  0.00  0.00    +0.000 OA
ATOM     25  H   UNL     1       0.416  11.124  19.533  0.00  0.00    +0.000 HD
BRANCH  23  26
ATOM     26  C   UNL     1      -1.619  11.914  18.182  0.00  0.00    +0.000 C 
BRANCH  26  27
ATOM     27  C   UNL     1      -3.104  11.852  18.173  0.00  0.00    +0.000 A 
ATOM     28  C   UNL     1      -3.916  11.486  17.114  0.00  0.00    +0.000 A 
ATOM     29  S   UNL     1      -5.560  11.555  17.588  0.00  0.00    +0.000 S 
ATOM     30  C   UNL     1      -5.075  12.056  19.159  0.00  0.00    +0.000 A 
ATOM     31  N   UNL     1      -3.776  12.191  19.332  0.00  0.00    +0.000 NA
BRANCH  30  32
ATOM     32  C   UNL     1      -6.095  12.284  20.241  0.00  0.00    +0.000 C 
ATOM     33  C   UNL     1      -6.985  11.049  20.384  0.00  0.00    +0.000 C 
ATOM     34  C   UNL     1      -5.407  12.608  21.567  0.00  0.00    +0.000 C 
ENDBRANCH  30  32
ENDBRANCH  26  27
ENDBRANCH  23  26
ENDBRANCH   6  22
BRANCH   1  36
ATOM     35  C   UNL     1       1.255   9.238  22.264  0.00  0.00    +0.000 C 
ATOM     36  O   UNL     1       0.481   8.833  21.128  0.00  0.00    +0.000 OA
ENDBRANCH   1  36
TORSDOF 6
ENDMDL
MODEL 5
REMARK VINA RESULT:      -8.6      1.268      2.308
REMARK  Name = 
REMARK  9 active torsions:
REMARK  status: ('A' for Active; 'I' for Inactive)
REMARK    1  A    between atoms: C_1  and  O_2
REMARK    2  A    between atoms: O_2  and  C_3
REMARK    3  A    between atoms: C_5  and  N_6
REMARK    4  A    between atoms: C_21  and  N_22
REMARK    5  A    between atoms: C_23  and  C_25
REMARK    6  A    between atoms: C_25  and  C_26
REMARK    7  A    between atoms: C_29  and  C_30
REMARK    8  A    between atoms: C_30  and  C_31
REMARK    9  A    between atoms: C_30  and  C_32
REMARK                            x       y       z     vdW  Elec       q    Type
REMARK                         _______ _______ _______ _____ _____    ______ ____
ROOT
ATOM      1  C   UNL     1       1.317   8.820  20.041  0.00  0.00    +0.000 A 
ATOM      2  C   UNL     1       2.199   7.728  20.040  0.00  0.00    +0.000 A 
ATOM      3  C   UNL     1       2.709   7.212  18.845  0.00  0.00    +0.000 A 
ATOM      4  C   UNL     1       2.393   7.859  17.653  0.00  0.00    +0.000 A 
ATOM      5  C   UNL     1       1.576   8.993  17.656  0.00  0.00    +0.000 A 
ATOM      6  C   UNL     1       1.015   9.492  18.837  0.00  0.00    +0.000 A 
ENDROOT
BRANCH   3   7
ATOM      7  N   UNL     1       3.565   6.068  18.833  0.00  0.00    +0.000 N 
ATOM      8  C   UNL     1       4.757   5.996  18.151  0.00  0.00    +0.000 A 
ATOM      9  C   UNL     1       5.375   4.803  18.390  0.00  0.00    +0.000 A 
ATOM     10  C   UNL     1       4.551   4.055  19.219  0.00  0.00    +0.000 A 
ATOM     11  N   UNL     1       4.765   2.814  19.693  0.00  0.00    +0.000 NA
ATOM     12  C   UNL     1       3.768   2.360  20.446  0.00  0.00    +0.000 A 
ATOM     13  N   UNL     1       2.623   2.988  20.747  0.00  0.00    +0.000 NA
ATOM     14  C   UNL     1       2.407   4.226  20.263  0.00  0.00    +0.000 A 
ATOM     15  N   UNL     1       1.157   4.749  20.561  0.00  0.00    +0.000 N 
ATOM     16  C   UNL     1       3.407   4.828  19.492  0.00  0.00    +0.000 A 
ATOM     17  C   UNL     1       6.700   4.715  17.754  0.00  0.00    +0.000 C 
ATOM     18  C   UNL     1       6.979   6.213  17.411  0.00  0.00    +0.000 C 
ATOM     19  C   UNL     1       5.590   6.931  17.354  0.00  0.00    +0.000 C 
ATOM     20  H   UNL     1       0.589   4.004  20.956  0.00  0.00    +0.000 HD
ATOM     21  H   UNL     1       0.727   5.229  19.780  0.00  0.00    +0.000 HD
ENDBRANCH   3   7
BRANCH   6  22
ATOM     22  N   UNL     1       0.198  10.651  18.852  0.00  0.00    +0.000 N 
ATOM     23  C   UNL     1      -1.139  10.720  18.486  0.00  0.00    +0.000 C 
ATOM     24  O   UNL     1      -1.877   9.761  18.264  0.00  0.00    +0.000 OA
ATOM     25  H   UNL     1       0.632  11.483  19.246  0.00  0.00    +0.000 HD
BRANCH  23  26
ATOM     26  C   UNL     1      -1.689  12.127  18.357  0.00  0.00    +0.000 C 
BRANCH  26  27
ATOM     27  C   UNL     1      -0.864  13.086  19.135  0.00  0.00    +0.000 A 
ATOM     28  C   UNL     1      -1.099  13.533  20.424  0.00  0.00    +0.000 A 
ATOM     29  S   UNL     1       0.134  14.621  20.900  0.00  0.00    +0.000 S 
ATOM     30  C   UNL     1       0.891  14.414  19.370  0.00  0.00    +0.000 A 
ATOM     31  N   UNL     1       0.267  13.609  18.536  0.00  0.00    +0.000 NA
BRANCH  30  32
ATOM     32  C   UNL     1       2.191  15.104  19.058  0.00  0.00    +0.000 C 
ATOM     33  C   UNL     1       3.064  14.195  18.191  0.00  0.00    +0.000 C 
ATOM     34  C   UNL     1       1.936  16.436  18.355  0.00  0.00    +0.000 C 
ENDBRANCH  30  32
ENDBRANCH  26  27
ENDBRANCH  23  26
ENDBRANCH   6  22
BRANCH   1  36
ATOM     35  C   UNL     1      -0.341   8.487  21.697  0.00  0.00    +0.000 C 
ATOM     36  O   UNL     1       0.729   9.296  21.196  0.00  0.00    +0.000 OA
ENDBRANCH   1  36
TORSDOF 6
ENDMDL
MODEL 6
REMARK VINA RESULT:      -8.6      3.311      8.951
REMARK  Name = 
REMARK  9 active torsions:
REMARK  status: ('A' for Active; 'I' for Inactive)
REMARK    1  A    between atoms: C_1  and  O_2
REMARK    2  A    between atoms: O_2  and  C_3
REMARK    3  A    between atoms: C_5  and  N_6
REMARK    4  A    between atoms: C_21  and  N_22
REMARK    5  A    between atoms: C_23  and  C_25
REMARK    6  A    between atoms: C_25  and  C_26
REMARK    7  A    between atoms: C_29  and  C_30
REMARK    8  A    between atoms: C_30  and  C_31
REMARK    9  A    between atoms: C_30  and  C_32
REMARK                            x       y       z     vdW  Elec       q    Type
REMARK                         _______ _______ _______ _____ _____    ______ ____
ROOT
ATOM      1  C   UNL     1       2.436   6.973  19.658  0.00  0.00    +0.000 A 
ATOM      2  C   UNL     1       1.803   8.083  20.240  0.00  0.00    +0.000 A 
ATOM      3  C   UNL     1       1.445   9.195  19.473  0.00  0.00    +0.000 A 
ATOM      4  C   UNL     1       1.651   9.147  18.096  0.00  0.00    +0.000 A 
ATOM      5  C   UNL     1       2.210   8.014  17.501  0.00  0.00    +0.000 A 
ATOM      6  C   UNL     1       2.622   6.912  18.261  0.00  0.00    +0.000 A 
ENDROOT
BRANCH   3   7
ATOM      7  N   UNL     1       0.849  10.350  20.067  0.00  0.00    +0.000 N 
ATOM      8  C   UNL     1      -0.004  10.316  21.144  0.00  0.00    +0.000 A 
ATOM      9  C   UNL     1      -0.349  11.582  21.523  0.00  0.00    +0.000 A 
ATOM     10  C   UNL     1       0.263  12.469  20.648  0.00  0.00    +0.000 A 
ATOM     11  N   UNL     1       0.183  13.813  20.647  0.00  0.00    +0.000 NA
ATOM     12  C   UNL     1       0.868  14.378  19.657  0.00  0.00    +0.000 A 
ATOM     13  N   UNL     1       1.580  13.762  18.703  0.00  0.00    +0.000 NA
ATOM     14  C   UNL     1       1.649  12.417  18.701  0.00  0.00    +0.000 A 
ATOM     15  N   UNL     1       2.335  11.880  17.622  0.00  0.00    +0.000 N 
ATOM     16  C   UNL     1       1.004  11.712  19.722  0.00  0.00    +0.000 A 
ATOM     17  C   UNL     1      -1.190  11.602  22.731  0.00  0.00    +0.000 C 
ATOM     18  C   UNL     1      -0.980  10.154  23.279  0.00  0.00    +0.000 C 
ATOM     19  C   UNL     1      -0.517   9.275  22.069  0.00  0.00    +0.000 C 
ATOM     20  H   UNL     1       2.509  12.626  16.954  0.00  0.00    +0.000 HD
ATOM     21  H   UNL     1       1.883  11.064  17.226  0.00  0.00    +0.000 HD
ENDBRANCH   3   7
BRANCH   6  22
ATOM     22  N   UNL     1       3.176   5.751  17.665  0.00  0.00    +0.000 N 
ATOM     23  C   UNL     1       2.530   4.539  17.466  0.00  0.00    +0.000 C 
ATOM     24  O   UNL     1       1.325   4.332  17.606  0.00  0.00    +0.000 OA
ATOM     25  H   UNL     1       4.114   5.863  17.285  0.00  0.00    +0.000 HD
BRANCH  23  26
ATOM     26  C   UNL     1       3.435   3.399  17.044  0.00  0.00    +0.000 C 
BRANCH  26  27
ATOM     27  C   UNL     1       4.793   3.903  16.711  0.00  0.00    +0.000 A 
ATOM     28  C   UNL     1       5.441   3.808  15.492  0.00  0.00    +0.000 A 
ATOM     29  S   UNL     1       6.983   4.546  15.591  0.00  0.00    +0.000 S 
ATOM     30  C   UNL     1       6.675   4.943  17.235  0.00  0.00    +0.000 A 
ATOM     31  N   UNL     1       5.512   4.539  17.705  0.00  0.00    +0.000 NA
BRANCH  30  32
ATOM     32  C   UNL     1       7.679   5.725  18.037  0.00  0.00    +0.000 C 
ATOM     33  C   UNL     1       7.619   7.202  17.645  0.00  0.00    +0.000 C 
ATOM     34  C   UNL     1       7.420   5.555  19.534  0.00  0.00    +0.000 C 
ENDBRANCH  30  32
ENDBRANCH  26  27
ENDBRANCH  23  26
ENDBRANCH   6  22
BRANCH   1  36
ATOM     35  C   UNL     1       1.837   5.097  20.972  0.00  0.00    +0.000 C 
ATOM     36  O   UNL     1       2.879   5.898  20.403  0.00  0.00    +0.000 OA
ENDBRANCH   1  36
TORSDOF 6
ENDMDL
MODEL 7
REMARK VINA RESULT:      -8.5      1.323      1.597
REMARK  Name = 
REMARK  9 active torsions:
REMARK  status: ('A' for Active; 'I' for Inactive)
REMARK    1  A    between atoms: C_1  and  O_2
REMARK    2  A    between atoms: O_2  and  C_3
REMARK    3  A    between atoms: C_5  and  N_6
REMARK    4  A    between atoms: C_21  and  N_22
REMARK    5  A    between atoms: C_23  and  C_25
REMARK    6  A    between atoms: C_25  and  C_26
REMARK    7  A    between atoms: C_29  and  C_30
REMARK    8  A    between atoms: C_30  and  C_31
REMARK    9  A    between atoms: C_30  and  C_32
REMARK                            x       y       z     vdW  Elec       q    Type
REMARK                         _______ _______ _______ _____ _____    ______ ____
ROOT
ATOM      1  C   UNL     1       1.251   8.638  19.997  0.00  0.00    +0.000 A 
ATOM      2  C   UNL     1       2.161   7.569  20.018  0.00  0.00    +0.000 A 
ATOM      3  C   UNL     1       2.788   7.130  18.849  0.00  0.00    +0.000 A 
ATOM      4  C   UNL     1       2.557   7.831  17.667  0.00  0.00    +0.000 A 
ATOM      5  C   UNL     1       1.711   8.942  17.655  0.00  0.00    +0.000 A 
ATOM      6  C   UNL     1       1.036   9.365  18.806  0.00  0.00    +0.000 A 
ENDROOT
BRANCH   3   7
ATOM      7  N   UNL     1       3.674   6.010  18.854  0.00  0.00    +0.000 N 
ATOM      8  C   UNL     1       4.894   5.980  18.220  0.00  0.00    +0.000 A 
ATOM      9  C   UNL     1       5.534   4.800  18.467  0.00  0.00    +0.000 A 
ATOM     10  C   UNL     1       4.698   4.018  19.251  0.00  0.00    +0.000 A 
ATOM     11  N   UNL     1       4.927   2.775  19.715  0.00  0.00    +0.000 NA
ATOM     12  C   UNL     1       3.913   2.283  20.421  0.00  0.00    +0.000 A 
ATOM     13  N   UNL     1       2.741   2.876  20.684  0.00  0.00    +0.000 NA
ATOM     14  C   UNL     1       2.510   4.115  20.210  0.00  0.00    +0.000 A 
ATOM     15  N   UNL     1       1.236   4.599  20.464  0.00  0.00    +0.000 N 
ATOM     16  C   UNL     1       3.523   4.755  19.489  0.00  0.00    +0.000 A 
ATOM     17  C   UNL     1       6.886   4.757  17.884  0.00  0.00    +0.000 C 
ATOM     18  C   UNL     1       7.138   6.267  17.574  0.00  0.00    +0.000 C 
ATOM     19  C   UNL     1       5.732   6.949  17.471  0.00  0.00    +0.000 C 
ATOM     20  H   UNL     1       0.672   3.834  20.825  0.00  0.00    +0.000 HD
ATOM     21  H   UNL     1       0.825   5.081  19.673  0.00  0.00    +0.000 HD
ENDBRANCH   3   7
BRANCH   6  22
ATOM     22  N   UNL     1       0.187  10.501  18.808  0.00  0.00    +0.000 N 
ATOM     23  C   UNL     1       0.581  11.823  18.965  0.00  0.00    +0.000 C 
ATOM     24  O   UNL     1       1.740  12.237  18.946  0.00  0.00    +0.000 OA
ATOM     25  H   UNL     1      -0.791  10.313  18.595  0.00  0.00    +0.000 HD
BRANCH  23  26
ATOM     26  C   UNL     1      -0.555  12.802  19.181  0.00  0.00    +0.000 C 
BRANCH  26  27
ATOM     27  C   UNL     1      -1.086  12.692  20.564  0.00  0.00    +0.000 A 
ATOM     28  C   UNL     1      -0.354  12.530  21.727  0.00  0.00    +0.000 A 
ATOM     29  S   UNL     1      -1.406  12.468  23.077  0.00  0.00    +0.000 S 
ATOM     30  C   UNL     1      -2.751  12.668  22.023  0.00  0.00    +0.000 A 
ATOM     31  N   UNL     1      -2.456  12.754  20.742  0.00  0.00    +0.000 NA
BRANCH  30  32
ATOM     32  C   UNL     1      -4.148  12.763  22.572  0.00  0.00    +0.000 C 
ATOM     33  C   UNL     1      -4.116  12.636  24.096  0.00  0.00    +0.000 C 
ATOM     34  C   UNL     1      -4.800  14.081  22.155  0.00  0.00    +0.000 C 
ENDBRANCH  30  32
ENDBRANCH  26  27
ENDBRANCH  23  26
ENDBRANCH   6  22
BRANCH   1  36
ATOM     35  C   UNL     1       1.348   9.171  22.301  0.00  0.00    +0.000 C 
ATOM     36  O   UNL     1       0.552   9.039  21.118  0.00  0.00    +0.000 OA
ENDBRANCH   1  36
TORSDOF 6
ENDMDL
MODEL 8
REMARK VINA RESULT:      -8.4      0.930      1.144
REMARK  Name = 
REMARK  9 active torsions:
REMARK  status: ('A' for Active; 'I' for Inactive)
REMARK    1  A    between atoms: C_1  and  O_2
REMARK    2  A    between atoms: O_2  and  C_3
REMARK    3  A    between atoms: C_5  and  N_6
REMARK    4  A    between atoms: C_21  and  N_22
REMARK    5  A    between atoms: C_23  and  C_25
REMARK    6  A    between atoms: C_25  and  C_26
REMARK    7  A    between atoms: C_29  and  C_30
REMARK    8  A    between atoms: C_30  and  C_31
REMARK    9  A    between atoms: C_30  and  C_32
REMARK                            x       y       z     vdW  Elec       q    Type
REMARK                         _______ _______ _______ _____ _____    ______ ____
ROOT
ATOM      1  C   UNL     1       1.344   8.837  19.992  0.00  0.00    +0.000 A 
ATOM      2  C   UNL     1       2.225   7.744  20.014  0.00  0.00    +0.000 A 
ATOM      3  C   UNL     1       2.732   7.199  18.831  0.00  0.00    +0.000 A 
ATOM      4  C   UNL     1       2.411   7.816  17.624  0.00  0.00    +0.000 A 
ATOM      5  C   UNL     1       1.596   8.950  17.601  0.00  0.00    +0.000 A 
ATOM      6  C   UNL     1       1.039   9.478  18.772  0.00  0.00    +0.000 A 
ENDROOT
BRANCH   3   7
ATOM      7  N   UNL     1       3.586   6.054  18.844  0.00  0.00    +0.000 N 
ATOM      8  C   UNL     1       4.791   5.975  18.186  0.00  0.00    +0.000 A 
ATOM      9  C   UNL     1       5.403   4.784  18.447  0.00  0.00    +0.000 A 
ATOM     10  C   UNL     1       4.563   4.044  19.266  0.00  0.00    +0.000 A 
ATOM     11  N   UNL     1       4.767   2.806  19.755  0.00  0.00    +0.000 NA
ATOM     12  C   UNL     1       3.755   2.359  20.493  0.00  0.00    +0.000 A 
ATOM     13  N   UNL     1       2.606   2.991  20.767  0.00  0.00    +0.000 NA
ATOM     14  C   UNL     1       2.400   4.224  20.268  0.00  0.00    +0.000 A 
ATOM     15  N   UNL     1       1.145   4.750  20.537  0.00  0.00    +0.000 N 
ATOM     16  C   UNL     1       3.414   4.819  19.511  0.00  0.00    +0.000 A 
ATOM     17  C   UNL     1       6.740   4.689  17.837  0.00  0.00    +0.000 C 
ATOM     18  C   UNL     1       7.027   6.184  17.487  0.00  0.00    +0.000 C 
ATOM     19  C   UNL     1       5.639   6.903  17.397  0.00  0.00    +0.000 C 
ATOM     20  H   UNL     1       0.569   4.009  20.928  0.00  0.00    +0.000 HD
ATOM     21  H   UNL     1       0.730   5.225  19.744  0.00  0.00    +0.000 HD
ENDBRANCH   3   7
BRANCH   6  22
ATOM     22  N   UNL     1       0.223  10.638  18.761  0.00  0.00    +0.000 N 
ATOM     23  C   UNL     1      -1.118  10.698  18.406  0.00  0.00    +0.000 C 
ATOM     24  O   UNL     1      -1.859   9.733  18.219  0.00  0.00    +0.000 OA
ATOM     25  H   UNL     1       0.661  11.481  19.125  0.00  0.00    +0.000 HD
BRANCH  23  26
ATOM     26  C   UNL     1      -1.668  12.100  18.240  0.00  0.00    +0.000 C 
BRANCH  26  27
ATOM     27  C   UNL     1      -1.815  12.765  19.560  0.00  0.00    +0.000 A 
ATOM     28  C   UNL     1      -0.991  13.737  20.100  0.00  0.00    +0.000 A 
ATOM     29  S   UNL     1      -1.573  14.208  21.640  0.00  0.00    +0.000 S 
ATOM     30  C   UNL     1      -2.875  13.097  21.475  0.00  0.00    +0.000 A 
ATOM     31  N   UNL     1      -2.880  12.394  20.361  0.00  0.00    +0.000 NA
BRANCH  30  32
ATOM     32  C   UNL     1      -3.930  12.988  22.541  0.00  0.00    +0.000 C 
ATOM     33  C   UNL     1      -3.364  12.254  23.758  0.00  0.00    +0.000 C 
ATOM     34  C   UNL     1      -4.439  14.373  22.937  0.00  0.00    +0.000 C 
ENDBRANCH  30  32
ENDBRANCH  26  27
ENDBRANCH  23  26
ENDBRANCH   6  22
BRANCH   1  36
ATOM     35  C   UNL     1      -0.324   8.559  21.647  0.00  0.00    +0.000 C 
ATOM     36  O   UNL     1       0.760   9.342  21.136  0.00  0.00    +0.000 OA
ENDBRANCH   1  36
TORSDOF 6
ENDMDL
MODEL 9
REMARK VINA RESULT:      -8.4      1.707      2.674
REMARK  Name = 
REMARK  9 active torsions:
REMARK  status: ('A' for Active; 'I' for Inactive)
REMARK    1  A    between atoms: C_1  and  O_2
REMARK    2  A    between atoms: O_2  and  C_3
REMARK    3  A    between atoms: C_5  and  N_6
REMARK    4  A    between atoms: C_21  and  N_22
REMARK    5  A    between atoms: C_23  and  C_25
REMARK    6  A    between atoms: C_25  and  C_26
REMARK    7  A    between atoms: C_29  and  C_30
REMARK    8  A    between atoms: C_30  and  C_31
REMARK    9  A    between atoms: C_30  and  C_32
REMARK                            x       y       z     vdW  Elec       q    Type
REMARK                         _______ _______ _______ _____ _____    ______ ____
ROOT
ATOM      1  C   UNL     1       1.389   8.795  20.257  0.00  0.00    +0.000 A 
ATOM      2  C   UNL     1       2.192   7.650  20.132  0.00  0.00    +0.000 A 
ATOM      3  C   UNL     1       2.651   7.221  18.883  0.00  0.00    +0.000 A 
ATOM      4  C   UNL     1       2.365   8.003  17.766  0.00  0.00    +0.000 A 
ATOM      5  C   UNL     1       1.630   9.184  17.895  0.00  0.00    +0.000 A 
ATOM      6  C   UNL     1       1.120   9.601  19.129  0.00  0.00    +0.000 A 
ENDROOT
BRANCH   3   7
ATOM      7  N   UNL     1       3.424   6.028  18.743  0.00  0.00    +0.000 N 
ATOM      8  C   UNL     1       4.575   5.931  17.998  0.00  0.00    +0.000 A 
ATOM      9  C   UNL     1       5.120   4.686  18.117  0.00  0.00    +0.000 A 
ATOM     10  C   UNL     1       4.285   3.931  18.929  0.00  0.00    +0.000 A 
ATOM     11  N   UNL     1       4.435   2.646  19.299  0.00  0.00    +0.000 NA
ATOM     12  C   UNL     1       3.444   2.201  20.067  0.00  0.00    +0.000 A 
ATOM     13  N   UNL     1       2.361   2.878  20.471  0.00  0.00    +0.000 NA
ATOM     14  C   UNL     1       2.208   4.161  20.091  0.00  0.00    +0.000 A 
ATOM     15  N   UNL     1       1.012   4.740  20.489  0.00  0.00    +0.000 N 
ATOM     16  C   UNL     1       3.211   4.754  19.316  0.00  0.00    +0.000 A 
ATOM     17  C   UNL     1       6.405   4.560  17.410  0.00  0.00    +0.000 C 
ATOM     18  C   UNL     1       6.771   6.058  17.164  0.00  0.00    +0.000 C 
ATOM     19  C   UNL     1       5.433   6.868  17.231  0.00  0.00    +0.000 C 
ATOM     20  H   UNL     1       0.413   4.005  20.857  0.00  0.00    +0.000 HD
ATOM     21  H   UNL     1       0.581   5.306  19.769  0.00  0.00    +0.000 HD
ENDBRANCH   3   7
BRANCH   6  22
ATOM     22  N   UNL     1       0.386  10.806  19.273  0.00  0.00    +0.000 N 
ATOM     23  C   UNL     1       0.863  12.091  19.054  0.00  0.00    +0.000 C 
ATOM     24  O   UNL     1       1.937  12.383  18.527  0.00  0.00    +0.000 OA
ATOM     25  H   UNL     1      -0.603  10.690  19.484  0.00  0.00    +0.000 HD
BRANCH  23  26
ATOM     26  C   UNL     1      -0.057  13.198  19.528  0.00  0.00    +0.000 C 
BRANCH  26  27
ATOM     27  C   UNL     1      -1.478  12.776  19.433  0.00  0.00    +0.000 A 
ATOM     28  C   UNL     1      -2.467  12.958  20.384  0.00  0.00    +0.000 A 
ATOM     29  S   UNL     1      -3.949  12.315  19.818  0.00  0.00    +0.000 S 
ATOM     30  C   UNL     1      -3.175  11.851  18.354  0.00  0.00    +0.000 A 
ATOM     31  N   UNL     1      -1.889  12.128  18.283  0.00  0.00    +0.000 NA
BRANCH  30  32
ATOM     32  C   UNL     1      -3.957  11.202  17.245  0.00  0.00    +0.000 C 
ATOM     33  C   UNL     1      -3.383   9.815  16.950  0.00  0.00    +0.000 C 
ATOM     34  C   UNL     1      -5.436  11.105  17.617  0.00  0.00    +0.000 C 
ENDBRANCH  30  32
ENDBRANCH  26  27
ENDBRANCH  23  26
ENDBRANCH   6  22
BRANCH   1  36
ATOM     35  C   UNL     1      -0.339   8.495  21.846  0.00  0.00    +0.000 C 
ATOM     36  O   UNL     1       0.850   9.195  21.463  0.00  0.00    +0.000 OA
ENDBRANCH   1  36
TORSDOF 6
ENDMDL
