MODEL 1
REMARK VINA RESULT:      -7.3      0.000      0.000
REMARK  Name = 
REMARK  10 active torsions:
REMARK  status: ('A' for Active; 'I' for Inactive)
REMARK    1  A    between atoms: C_1  and  O_2
REMARK    2  A    between atoms: O_2  and  C_3
REMARK    3  A    between atoms: C_6  and  C_7
REMARK    4  A    between atoms: C_8  and  C_9
REMARK    5  A    between atoms: C_11  and  O_12
REMARK    6  A    between atoms: O_12  and  C_13
REMARK    7  A    between atoms: C_15  and  O_16
REMARK    8  A    between atoms: O_16  and  C_17
REMARK    9  A    between atoms: C_18  and  C_19
REMARK   10  A    between atoms: C_30  and  O_31
REMARK                            x       y       z     vdW  Elec       q    Type
REMARK                         _______ _______ _______ _____ _____    ______ ____
ROOT
ATOM      1  C   UNL     1      -2.803  12.934  23.103  0.00  0.00    +0.000 A 
ATOM      2  C   UNL     1      -2.364  13.692  24.207  0.00  0.00    +0.000 A 
ATOM      3  C   UNL     1      -3.051  14.824  24.614  0.00  0.00    +0.000 A 
ATOM      4  C   UNL     1      -4.181  15.203  23.902  0.00  0.00    +0.000 A 
ATOM      5  C   UNL     1      -4.658  14.456  22.801  0.00  0.00    +0.000 A 
ATOM      6  C   UNL     1      -3.947  13.325  22.346  0.00  0.00    +0.000 A 
ENDROOT
BRANCH   6   7
ATOM      7  C   UNL     1      -4.180  12.584  21.072  0.00  0.00    +0.000 A 
ATOM      8  O   UNL     1      -3.107  12.630  20.172  0.00  0.00    +0.000 OA
ATOM      9  C   UNL     1      -3.295  12.034  18.940  0.00  0.00    +0.000 A 
ATOM     10  C   UNL     1      -2.172  11.762  18.160  0.00  0.00    +0.000 A 
ATOM     11  C   UNL     1      -2.328  11.166  16.899  0.00  0.00    +0.000 A 
ATOM     12  C   UNL     1      -3.602  10.871  16.410  0.00  0.00    +0.000 A 
ATOM     13 CL   UNL     1      -3.784  10.129  14.869  0.00  0.00    +0.000 Cl
ATOM     14  C   UNL     1      -4.729  11.151  17.176  0.00  0.00    +0.000 A 
ATOM     15  C   UNL     1      -4.554  11.710  18.442  0.00  0.00    +0.000 A 
ATOM     16  C   UNL     1      -5.704  11.887  19.326  0.00  0.00    +0.000 A 
ATOM     17  O   UNL     1      -6.863  11.832  18.924  0.00  0.00    +0.000 OA
ATOM     18  C   UNL     1      -5.400  12.127  20.763  0.00  0.00    +0.000 A 
BRANCH  18  19
ATOM     19  O   UNL     1      -6.424  11.918  21.669  0.00  0.00    +0.000 OA
ATOM     20  H   UNL     1      -7.211  12.342  21.268  0.00  0.00    +0.000 HD
ENDBRANCH  18  19
ENDBRANCH   6   7
BRANCH   1  22
ATOM     21  C   UNL     1      -0.809  11.816  22.238  0.00  0.00    +0.000 C 
ATOM     22  C   UNL     1      -2.006  11.720  22.850  0.00  0.00    +0.000 C 
BRANCH  21  26
ATOM     23  C   UNL     1       1.371   8.510  20.570  0.00  0.00    +0.000 A 
ATOM     24  C   UNL     1       1.050   9.627  19.802  0.00  0.00    +0.000 A 
ATOM     25  C   UNL     1       0.368  10.710  20.371  0.00  0.00    +0.000 A 
ATOM     26  C   UNL     1      -0.032  10.682  21.713  0.00  0.00    +0.000 A 
ATOM     27  C   UNL     1       0.302   9.558  22.479  0.00  0.00    +0.000 A 
ATOM     28  C   UNL     1       0.992   8.475  21.912  0.00  0.00    +0.000 A 
BRANCH  23  30
ATOM     29  C   UNL     1       1.840   6.201  20.449  0.00  0.00    +0.000 C 
ATOM     30  O   UNL     1       2.013   7.504  19.906  0.00  0.00    +0.000 OA
ENDBRANCH  23  30
ENDBRANCH  21  26
ENDBRANCH   1  22
BRANCH   3  31
ATOM     31  O   UNL     1      -2.537  15.474  25.700  0.00  0.00    +0.000 OA
ATOM     32  C   UNL     1      -1.147  15.779  25.627  0.00  0.00    +0.000 C 
ENDBRANCH   3  31
BRANCH   5  33
ATOM     33  O   UNL     1      -5.804  15.021  22.310  0.00  0.00    +0.000 OA
ATOM     34  C   UNL     1      -6.679  15.680  23.206  0.00  0.00    +0.000 C 
ENDBRANCH   5  33
TORSDOF 7
ENDMDL
MODEL 2
REMARK VINA RESULT:      -7.3      1.221      1.574
REMARK  Name = 
REMARK  10 active torsions:
REMARK  status: ('A' for Active; 'I' for Inactive)
REMARK    1  A    between atoms: C_1  and  O_2
REMARK    2  A    between atoms: O_2  and  C_3
REMARK    3  A    between atoms: C_6  and  C_7
REMARK    4  A    between atoms: C_8  and  C_9
REMARK    5  A    between atoms: C_11  and  O_12
REMARK    6  A    between atoms: O_12  and  C_13
REMARK    7  A    between atoms: C_15  and  O_16
REMARK    8  A    between atoms: O_16  and  C_17
REMARK    9  A    between atoms: C_18  and  C_19
REMARK   10  A    between atoms: C_30  and  O_31
REMARK                            x       y       z     vdW  Elec       q    Type
REMARK                         _______ _______ _______ _____ _____    ______ ____
ROOT
ATOM      1  C   UNL     1      -4.244  13.521  22.842  0.00  0.00    +0.000 A 
ATOM      2  C   UNL     1      -4.167  14.469  23.882  0.00  0.00    +0.000 A 
ATOM      3  C   UNL     1      -5.043  15.541  23.936  0.00  0.00    +0.000 A 
ATOM      4  C   UNL     1      -5.996  15.667  22.934  0.00  0.00    +0.000 A 
ATOM      5  C   UNL     1      -6.111  14.725  21.888  0.00  0.00    +0.000 A 
ATOM      6  C   UNL     1      -5.200  13.650  21.793  0.00  0.00    +0.000 A 
ENDROOT
BRANCH   6   7
ATOM      7  C   UNL     1      -5.038  12.725  20.634  0.00  0.00    +0.000 A 
ATOM      8  O   UNL     1      -3.806  12.831  19.976  0.00  0.00    +0.000 OA
ATOM      9  C   UNL     1      -3.630  12.060  18.844  0.00  0.00    +0.000 A 
ATOM     10  C   UNL     1      -2.333  11.880  18.363  0.00  0.00    +0.000 A 
ATOM     11  C   UNL     1      -2.120  11.110  17.210  0.00  0.00    +0.000 A 
ATOM     12  C   UNL     1      -3.199  10.548  16.526  0.00  0.00    +0.000 A 
ATOM     13 CL   UNL     1      -2.927   9.595  15.120  0.00  0.00    +0.000 Cl
ATOM     14  C   UNL     1      -4.496  10.733  16.990  0.00  0.00    +0.000 A 
ATOM     15  C   UNL     1      -4.689  11.471  18.159  0.00  0.00    +0.000 A 
ATOM     16  C   UNL     1      -6.021  11.567  18.750  0.00  0.00    +0.000 A 
ATOM     17  O   UNL     1      -7.042  11.269  18.135  0.00  0.00    +0.000 OA
ATOM     18  C   UNL     1      -6.084  12.035  20.161  0.00  0.00    +0.000 A 
BRANCH  18  19
ATOM     19  O   UNL     1      -7.249  11.778  20.861  0.00  0.00    +0.000 OA
ATOM     20  H   UNL     1      -7.444  10.831  20.697  0.00  0.00    +0.000 HD
ENDBRANCH  18  19
ENDBRANCH   6   7
BRANCH   1  22
ATOM     21  C   UNL     1      -2.016  12.553  22.562  0.00  0.00    +0.000 C 
ATOM     22  C   UNL     1      -3.291  12.404  22.974  0.00  0.00    +0.000 C 
BRANCH  21  26
ATOM     23  C   UNL     1       0.802   9.366  21.965  0.00  0.00    +0.000 A 
ATOM     24  C   UNL     1       0.743  10.451  21.096  0.00  0.00    +0.000 A 
ATOM     25  C   UNL     1      -0.159  11.498  21.324  0.00  0.00    +0.000 A 
ATOM     26  C   UNL     1      -1.040  11.462  22.413  0.00  0.00    +0.000 A 
ATOM     27  C   UNL     1      -0.968  10.369  23.286  0.00  0.00    +0.000 A 
ATOM     28  C   UNL     1      -0.059   9.324  23.062  0.00  0.00    +0.000 A 
BRANCH  23  30
ATOM     29  C   UNL     1       1.699   7.995  20.266  0.00  0.00    +0.000 C 
ATOM     30  O   UNL     1       1.700   8.392  21.632  0.00  0.00    +0.000 OA
ENDBRANCH  23  30
ENDBRANCH  21  26
ENDBRANCH   1  22
BRANCH   3  31
ATOM     31  O   UNL     1      -4.878  16.392  24.993  0.00  0.00    +0.000 OA
ATOM     32  C   UNL     1      -3.632  17.082  25.032  0.00  0.00    +0.000 C 
ENDBRANCH   3  31
BRANCH   5  33
ATOM     33  O   UNL     1      -7.152  15.059  21.065  0.00  0.00    +0.000 OA
ATOM     34  C   UNL     1      -7.139  16.321  20.425  0.00  0.00    +0.000 C 
ENDBRANCH   5  33
TORSDOF 7
ENDMDL
MODEL 3
REMARK VINA RESULT:      -7.2      1.002      1.116
REMARK  Name = 
REMARK  10 active torsions:
REMARK  status: ('A' for Active; 'I' for Inactive)
REMARK    1  A    between atoms: C_1  and  O_2
REMARK    2  A    between atoms: O_2  and  C_3
REMARK    3  A    between atoms: C_6  and  C_7
REMARK    4  A    between atoms: C_8  and  C_9
REMARK    5  A    between atoms: C_11  and  O_12
REMARK    6  A    between atoms: O_12  and  C_13
REMARK    7  A    between atoms: C_15  and  O_16
REMARK    8  A    between atoms: O_16  and  C_17
REMARK    9  A    between atoms: C_18  and  C_19
REMARK   10  A    between atoms: C_30  and  O_31
REMARK                            x       y       z     vdW  Elec       q    Type
REMARK                         _______ _______ _______ _____ _____    ______ ____
ROOT
ATOM      1  C   UNL     1      -1.809  12.676  22.422  0.00  0.00    +0.000 A 
ATOM      2  C   UNL     1      -1.155  13.366  23.463  0.00  0.00    +0.000 A 
ATOM      3  C   UNL     1      -1.669  14.550  23.967  0.00  0.00    +0.000 A 
ATOM      4  C   UNL     1      -2.843  15.048  23.417  0.00  0.00    +0.000 A 
ATOM      5  C   UNL     1      -3.531  14.373  22.385  0.00  0.00    +0.000 A 
ATOM      6  C   UNL     1      -3.000  13.189  21.830  0.00  0.00    +0.000 A 
ENDROOT
BRANCH   6   7
ATOM      7  C   UNL     1      -3.472  12.500  20.594  0.00  0.00    +0.000 A 
ATOM      8  O   UNL     1      -2.506  12.398  19.584  0.00  0.00    +0.000 OA
ATOM      9  C   UNL     1      -2.908  11.845  18.383  0.00  0.00    +0.000 A 
ATOM     10  C   UNL     1      -1.925  11.422  17.490  0.00  0.00    +0.000 A 
ATOM     11  C   UNL     1      -2.299  10.864  16.257  0.00  0.00    +0.000 A 
ATOM     12  C   UNL     1      -3.647  10.760  15.909  0.00  0.00    +0.000 A 
ATOM     13 CL   UNL     1      -4.097  10.064  14.402  0.00  0.00    +0.000 Cl
ATOM     14  C   UNL     1      -4.634  11.192  16.789  0.00  0.00    +0.000 A 
ATOM     15  C   UNL     1      -4.247  11.710  18.025  0.00  0.00    +0.000 A 
ATOM     16  C   UNL     1      -5.258  12.043  19.026  0.00  0.00    +0.000 A 
ATOM     17  O   UNL     1      -6.449  12.158  18.750  0.00  0.00    +0.000 OA
ATOM     18  C   UNL     1      -4.771  12.224  20.420  0.00  0.00    +0.000 A 
BRANCH  18  19
ATOM     19  O   UNL     1      -5.711  12.157  21.432  0.00  0.00    +0.000 OA
ATOM     20  H   UNL     1      -5.196  12.202  22.264  0.00  0.00    +0.000 HD
ENDBRANCH  18  19
ENDBRANCH   6   7
BRANCH   1  22
ATOM     21  C   UNL     1       0.046  11.392  21.481  0.00  0.00    +0.000 C 
ATOM     22  C   UNL     1      -1.174  11.398  22.055  0.00  0.00    +0.000 C 
BRANCH  21  26
ATOM     23  C   UNL     1       1.802   7.998  19.517  0.00  0.00    +0.000 A 
ATOM     24  C   UNL     1       1.511   9.167  18.819  0.00  0.00    +0.000 A 
ATOM     25  C   UNL     1       0.969  10.276  19.482  0.00  0.00    +0.000 A 
ATOM     26  C   UNL     1       0.681  10.224  20.852  0.00  0.00    +0.000 A 
ATOM     27  C   UNL     1       0.985   9.046  21.547  0.00  0.00    +0.000 A 
ATOM     28  C   UNL     1       1.535   7.937  20.885  0.00  0.00    +0.000 A 
BRANCH  23  30
ATOM     29  C   UNL     1       2.984   5.956  19.489  0.00  0.00    +0.000 C 
ATOM     30  O   UNL     1       2.302   6.973  18.766  0.00  0.00    +0.000 OA
ENDBRANCH  23  30
ENDBRANCH  21  26
ENDBRANCH   1  22
BRANCH   3  31
ATOM     31  O   UNL     1      -0.954  15.127  24.979  0.00  0.00    +0.000 OA
ATOM     32  C   UNL     1      -1.649  16.119  25.729  0.00  0.00    +0.000 C 
ENDBRANCH   3  31
BRANCH   5  33
ATOM     33  O   UNL     1      -4.673  15.053  22.057  0.00  0.00    +0.000 OA
ATOM     34  C   UNL     1      -4.920  16.307  22.666  0.00  0.00    +0.000 C 
ENDBRANCH   5  33
TORSDOF 7
ENDMDL
MODEL 4
REMARK VINA RESULT:      -7.1      5.405     11.831
REMARK  Name = 
REMARK  10 active torsions:
REMARK  status: ('A' for Active; 'I' for Inactive)
REMARK    1  A    between atoms: C_1  and  O_2
REMARK    2  A    between atoms: O_2  and  C_3
REMARK    3  A    between atoms: C_6  and  C_7
REMARK    4  A    between atoms: C_8  and  C_9
REMARK    5  A    between atoms: C_11  and  O_12
REMARK    6  A    between atoms: O_12  and  C_13
REMARK    7  A    between atoms: C_15  and  O_16
REMARK    8  A    between atoms: O_16  and  C_17
REMARK    9  A    between atoms: C_18  and  C_19
REMARK   10  A    between atoms: C_30  and  O_31
REMARK                            x       y       z     vdW  Elec       q    Type
REMARK                         _______ _______ _______ _____ _____    ______ ____
ROOT
ATOM      1  C   UNL     1       2.887   4.643  19.810  0.00  0.00    +0.000 A 
ATOM      2  C   UNL     1       1.881   4.224  20.703  0.00  0.00    +0.000 A 
ATOM      3  C   UNL     1       1.982   3.016  21.374  0.00  0.00    +0.000 A 
ATOM      4  C   UNL     1       3.096   2.220  21.140  0.00  0.00    +0.000 A 
ATOM      5  C   UNL     1       4.130   2.620  20.264  0.00  0.00    +0.000 A 
ATOM      6  C   UNL     1       4.024   3.827  19.539  0.00  0.00    +0.000 A 
ENDROOT
BRANCH   6   7
ATOM      7  C   UNL     1       4.899   4.265  18.413  0.00  0.00    +0.000 A 
ATOM      8  O   UNL     1       4.451   3.871  17.145  0.00  0.00    +0.000 OA
ATOM      9  C   UNL     1       5.264   4.175  16.070  0.00  0.00    +0.000 A 
ATOM     10  C   UNL     1       4.715   4.109  14.790  0.00  0.00    +0.000 A 
ATOM     11  C   UNL     1       5.516   4.402  13.675  0.00  0.00    +0.000 A 
ATOM     12  C   UNL     1       6.862   4.729  13.838  0.00  0.00    +0.000 A 
ATOM     13 CL   UNL     1       7.833   5.098  12.467  0.00  0.00    +0.000 Cl
ATOM     14  C   UNL     1       7.421   4.783  15.111  0.00  0.00    +0.000 A 
ATOM     15  C   UNL     1       6.603   4.526  16.212  0.00  0.00    +0.000 A 
ATOM     16  C   UNL     1       7.121   4.710  17.565  0.00  0.00    +0.000 A 
ATOM     17  O   UNL     1       8.321   4.813  17.806  0.00  0.00    +0.000 OA
ATOM     18  C   UNL     1       6.110   4.785  18.653  0.00  0.00    +0.000 A 
BRANCH  18  19
ATOM     19  O   UNL     1       6.516   5.330  19.858  0.00  0.00    +0.000 OA
ATOM     20  H   UNL     1       6.682   6.277  19.667  0.00  0.00    +0.000 HD
ENDBRANCH  18  19
ENDBRANCH   6   7
BRANCH   1  22
ATOM     21  C   UNL     1       2.274   7.000  20.035  0.00  0.00    +0.000 C 
ATOM     22  C   UNL     1       2.664   5.984  19.238  0.00  0.00    +0.000 C 
BRANCH  21  26
ATOM     23  C   UNL     1       0.711  10.783  18.732  0.00  0.00    +0.000 A 
ATOM     24  C   UNL     1       0.459  10.299  20.013  0.00  0.00    +0.000 A 
ATOM     25  C   UNL     1       1.004   9.079  20.432  0.00  0.00    +0.000 A 
ATOM     26  C   UNL     1       1.788   8.306  19.565  0.00  0.00    +0.000 A 
ATOM     27  C   UNL     1       2.042   8.806  18.282  0.00  0.00    +0.000 A 
ATOM     28  C   UNL     1       1.503  10.032  17.863  0.00  0.00    +0.000 A 
BRANCH  23  30
ATOM     29  C   UNL     1      -0.092  12.862  19.511  0.00  0.00    +0.000 C 
ATOM     30  O   UNL     1       0.108  11.969  18.422  0.00  0.00    +0.000 OA
ENDBRANCH  23  30
ENDBRANCH  21  26
ENDBRANCH   1  22
BRANCH   3  31
ATOM     31  O   UNL     1       0.950   2.716  22.219  0.00  0.00    +0.000 OA
ATOM     32  C   UNL     1       1.044   1.454  22.872  0.00  0.00    +0.000 C 
ENDBRANCH   3  31
BRANCH   5  33
ATOM     33  O   UNL     1       5.123   1.678  20.248  0.00  0.00    +0.000 OA
ATOM     34  C   UNL     1       5.418   0.975  21.441  0.00  0.00    +0.000 C 
ENDBRANCH   5  33
TORSDOF 7
ENDMDL
MODEL 5
REMARK VINA RESULT:      -6.8      4.580      6.572
REMARK  Name = 
REMARK  10 active torsions:
REMARK  status: ('A' for Active; 'I' for Inactive)
REMARK    1  A    between atoms: C_1  and  O_2
REMARK    2  A    between atoms: O_2  and  C_3
REMARK    3  A    between atoms: C_6  and  C_7
REMARK    4  A    between atoms: C_8  and  C_9
REMARK    5  A    between atoms: C_11  and  O_12
REMARK    6  A    between atoms: O_12  and  C_13
REMARK    7  A    between atoms: C_15  and  O_16
REMARK    8  A    between atoms: O_16  and  C_17
REMARK    9  A    between atoms: C_18  and  C_19
REMARK   10  A    between atoms: C_30  and  O_31
REMARK                            x       y       z     vdW  Elec       q    Type
REMARK                         _______ _______ _______ _____ _____    ______ ____
ROOT
ATOM      1  C   UNL     1      -0.293  12.341  21.548  0.00  0.00    +0.000 A 
ATOM      2  C   UNL     1      -1.365  11.736  22.233  0.00  0.00    +0.000 A 
ATOM      3  C   UNL     1      -2.099  12.441  23.174  0.00  0.00    +0.000 A 
ATOM      4  C   UNL     1      -1.748  13.759  23.433  0.00  0.00    +0.000 A 
ATOM      5  C   UNL     1      -0.690  14.400  22.751  0.00  0.00    +0.000 A 
ATOM      6  C   UNL     1       0.096  13.685  21.822  0.00  0.00    +0.000 A 
ENDROOT
BRANCH   6   7
ATOM      7  C   UNL     1       1.378  14.139  21.209  0.00  0.00    +0.000 A 
ATOM      8  O   UNL     1       2.494  14.020  22.047  0.00  0.00    +0.000 OA
ATOM      9  C   UNL     1       3.696  14.504  21.565  0.00  0.00    +0.000 A 
ATOM     10  C   UNL     1       4.869  14.111  22.206  0.00  0.00    +0.000 A 
ATOM     11  C   UNL     1       6.106  14.591  21.749  0.00  0.00    +0.000 A 
ATOM     12  C   UNL     1       6.165  15.481  20.676  0.00  0.00    +0.000 A 
ATOM     13 CL   UNL     1       7.686  16.055  20.114  0.00  0.00    +0.000 Cl
ATOM     14  C   UNL     1       4.998  15.890  20.039  0.00  0.00    +0.000 A 
ATOM     15  C   UNL     1       3.779  15.375  20.482  0.00  0.00    +0.000 A 
ATOM     16  C   UNL     1       2.551  15.673  19.750  0.00  0.00    +0.000 A 
ATOM     17  O   UNL     1       2.477  16.577  18.922  0.00  0.00    +0.000 OA
ATOM     18  C   UNL     1       1.380  14.805  20.047  0.00  0.00    +0.000 A 
BRANCH  18  19
ATOM     19  O   UNL     1       0.347  14.800  19.127  0.00  0.00    +0.000 OA
ATOM     20  H   UNL     1      -0.354  15.358  19.525  0.00  0.00    +0.000 HD
ENDBRANCH  18  19
ENDBRANCH   6   7
BRANCH   1  22
ATOM     21  C   UNL     1       0.272  10.138  20.650  0.00  0.00    +0.000 C 
ATOM     22  C   UNL     1       0.333  11.479  20.528  0.00  0.00    +0.000 C 
BRANCH  21  26
ATOM     23  C   UNL     1       2.643   7.317  18.441  0.00  0.00    +0.000 A 
ATOM     24  C   UNL     1       2.327   7.105  19.781  0.00  0.00    +0.000 A 
ATOM     25  C   UNL     1       1.526   8.018  20.477  0.00  0.00    +0.000 A 
ATOM     26  C   UNL     1       1.049   9.177  19.851  0.00  0.00    +0.000 A 
ATOM     27  C   UNL     1       1.365   9.378  18.502  0.00  0.00    +0.000 A 
ATOM     28  C   UNL     1       2.162   8.460  17.801  0.00  0.00    +0.000 A 
BRANCH  23  30
ATOM     29  C   UNL     1       4.182   5.559  18.777  0.00  0.00    +0.000 C 
ATOM     30  O   UNL     1       3.452   6.376  17.870  0.00  0.00    +0.000 OA
ENDBRANCH  23  30
ENDBRANCH  21  26
ENDBRANCH   1  22
BRANCH   3  31
ATOM     31  O   UNL     1      -3.120  11.754  23.769  0.00  0.00    +0.000 OA
ATOM     32  C   UNL     1      -4.101  12.560  24.416  0.00  0.00    +0.000 C 
ENDBRANCH   3  31
BRANCH   5  33
ATOM     33  O   UNL     1      -0.583  15.701  23.163  0.00  0.00    +0.000 OA
ATOM     34  C   UNL     1      -1.040  16.729  22.304  0.00  0.00    +0.000 C 
ENDBRANCH   5  33
TORSDOF 7
ENDMDL
MODEL 6
REMARK VINA RESULT:      -6.8      4.386      6.371
REMARK  Name = 
REMARK  10 active torsions:
REMARK  status: ('A' for Active; 'I' for Inactive)
REMARK    1  A    between atoms: C_1  and  O_2
REMARK    2  A    between atoms: O_2  and  C_3
REMARK    3  A    between atoms: C_6  and  C_7
REMARK    4  A    between atoms: C_8  and  C_9
REMARK    5  A    between atoms: C_11  and  O_12
REMARK    6  A    between atoms: O_12  and  C_13
REMARK    7  A    between atoms: C_15  and  O_16
REMARK    8  A    between atoms: O_16  and  C_17
REMARK    9  A    between atoms: C_18  and  C_19
REMARK   10  A    between atoms: C_30  and  O_31
REMARK                            x       y       z     vdW  Elec       q    Type
REMARK                         _______ _______ _______ _____ _____    ______ ____
ROOT
ATOM      1  C   UNL     1      -0.134  11.773  21.784  0.00  0.00    +0.000 A 
ATOM      2  C   UNL     1      -1.250  11.356  22.538  0.00  0.00    +0.000 A 
ATOM      3  C   UNL     1      -2.240  12.253  22.903  0.00  0.00    +0.000 A 
ATOM      4  C   UNL     1      -2.105  13.580  22.516  0.00  0.00    +0.000 A 
ATOM      5  C   UNL     1      -1.009  14.027  21.746  0.00  0.00    +0.000 A 
ATOM      6  C   UNL     1       0.031  13.136  21.401  0.00  0.00    +0.000 A 
ENDROOT
BRANCH   6   7
ATOM      7  C   UNL     1       1.352  13.501  20.811  0.00  0.00    +0.000 A 
ATOM      8  O   UNL     1       2.347  13.790  21.754  0.00  0.00    +0.000 OA
ATOM      9  C   UNL     1       3.568  14.217  21.267  0.00  0.00    +0.000 A 
ATOM     10  C   UNL     1       4.665  14.190  22.126  0.00  0.00    +0.000 A 
ATOM     11  C   UNL     1       5.918  14.625  21.667  0.00  0.00    +0.000 A 
ATOM     12  C   UNL     1       6.064  15.111  20.367  0.00  0.00    +0.000 A 
ATOM     13 CL   UNL     1       7.606  15.631  19.809  0.00  0.00    +0.000 Cl
ATOM     14  C   UNL     1       4.972  15.154  19.508  0.00  0.00    +0.000 A 
ATOM     15  C   UNL     1       3.741  14.684  19.967  0.00  0.00    +0.000 A 
ATOM     16  C   UNL     1       2.609  14.584  19.050  0.00  0.00    +0.000 A 
ATOM     17  O   UNL     1       2.589  15.149  17.960  0.00  0.00    +0.000 OA
ATOM     18  C   UNL     1       1.469  13.740  19.498  0.00  0.00    +0.000 A 
BRANCH  18  19
ATOM     19  O   UNL     1       0.576  13.317  18.530  0.00  0.00    +0.000 OA
ATOM     20  H   UNL     1       0.597  14.013  17.841  0.00  0.00    +0.000 HD
ENDBRANCH  18  19
ENDBRANCH   6   7
BRANCH   1  22
ATOM     21  C   UNL     1       0.683  10.093  20.207  0.00  0.00    +0.000 C 
ATOM     22  C   UNL     1       0.786  10.682  21.415  0.00  0.00    +0.000 C 
BRANCH  21  26
ATOM     23  C   UNL     1       2.594   6.474  18.900  0.00  0.00    +0.000 A 
ATOM     24  C   UNL     1       2.457   7.567  18.049  0.00  0.00    +0.000 A 
ATOM     25  C   UNL     1       1.861   8.751  18.502  0.00  0.00    +0.000 A 
ATOM     26  C   UNL     1       1.364   8.851  19.808  0.00  0.00    +0.000 A 
ATOM     27  C   UNL     1       1.514   7.749  20.659  0.00  0.00    +0.000 A 
ATOM     28  C   UNL     1       2.117   6.565  20.208  0.00  0.00    +0.000 A 
BRANCH  23  30
ATOM     29  C   UNL     1       4.087   5.608  17.290  0.00  0.00    +0.000 C 
ATOM     30  O   UNL     1       3.166   5.364  18.346  0.00  0.00    +0.000 OA
ENDBRANCH  23  30
ENDBRANCH  21  26
ENDBRANCH   1  22
BRANCH   3  31
ATOM     31  O   UNL     1      -3.277  11.734  23.627  0.00  0.00    +0.000 OA
ATOM     32  C   UNL     1      -3.961  12.661  24.463  0.00  0.00    +0.000 C 
ENDBRANCH   3  31
BRANCH   5  33
ATOM     33  O   UNL     1      -1.142  15.360  21.467  0.00  0.00    +0.000 OA
ATOM     34  C   UNL     1      -2.054  16.130  22.229  0.00  0.00    +0.000 C 
ENDBRANCH   5  33
TORSDOF 7
ENDMDL
MODEL 7
REMARK VINA RESULT:      -6.7      4.130      5.813
REMARK  Name = 
REMARK  10 active torsions:
REMARK  status: ('A' for Active; 'I' for Inactive)
REMARK    1  A    between atoms: C_1  and  O_2
REMARK    2  A    between atoms: O_2  and  C_3
REMARK    3  A    between atoms: C_6  and  C_7
REMARK    4  A    between atoms: C_8  and  C_9
REMARK    5  A    between atoms: C_11  and  O_12
REMARK    6  A    between atoms: O_12  and  C_13
REMARK    7  A    between atoms: C_15  and  O_16
REMARK    8  A    between atoms: O_16  and  C_17
REMARK    9  A    between atoms: C_18  and  C_19
REMARK   10  A    between atoms: C_30  and  O_31
REMARK                            x       y       z     vdW  Elec       q    Type
REMARK                         _______ _______ _______ _____ _____    ______ ____
ROOT
ATOM      1  C   UNL     1      -0.833  12.185  22.096  0.00  0.00    +0.000 A 
ATOM      2  C   UNL     1      -1.838  11.676  22.944  0.00  0.00    +0.000 A 
ATOM      3  C   UNL     1      -2.873  12.483  23.389  0.00  0.00    +0.000 A 
ATOM      4  C   UNL     1      -2.893  13.813  22.987  0.00  0.00    +0.000 A 
ATOM      5  C   UNL     1      -1.911  14.349  22.125  0.00  0.00    +0.000 A 
ATOM      6  C   UNL     1      -0.826  13.553  21.697  0.00  0.00    +0.000 A 
ENDROOT
BRANCH   6   7
ATOM      7  C   UNL     1       0.401  14.030  20.995  0.00  0.00    +0.000 A 
ATOM      8  O   UNL     1       1.527  14.156  21.820  0.00  0.00    +0.000 OA
ATOM      9  C   UNL     1       2.671  14.674  21.245  0.00  0.00    +0.000 A 
ATOM     10  C   UNL     1       3.881  14.505  21.917  0.00  0.00    +0.000 A 
ATOM     11  C   UNL     1       5.061  15.027  21.365  0.00  0.00    +0.000 A 
ATOM     12  C   UNL     1       5.026  15.739  20.165  0.00  0.00    +0.000 A 
ATOM     13 CL   UNL     1       6.479  16.364  19.490  0.00  0.00    +0.000 Cl
ATOM     14  C   UNL     1       3.822  15.924  19.495  0.00  0.00    +0.000 A 
ATOM     15  C   UNL     1       2.663  15.367  20.038  0.00  0.00    +0.000 A 
ATOM     16  C   UNL     1       1.408  15.423  19.291  0.00  0.00    +0.000 A 
ATOM     17  O   UNL     1       1.240  16.173  18.334  0.00  0.00    +0.000 OA
ATOM     18  C   UNL     1       0.331  14.501  19.743  0.00  0.00    +0.000 A 
BRANCH  18  19
ATOM     19  O   UNL     1      -0.699  14.249  18.856  0.00  0.00    +0.000 OA
ATOM     20  H   UNL     1      -0.363  14.541  17.983  0.00  0.00    +0.000 HD
ENDBRANCH  18  19
ENDBRANCH   6   7
BRANCH   1  22
ATOM     21  C   UNL     1       0.077  10.668  20.409  0.00  0.00    +0.000 C 
ATOM     22  C   UNL     1       0.149  11.178  21.654  0.00  0.00    +0.000 C 
BRANCH  21  26
ATOM     23  C   UNL     1       2.354   7.253  19.140  0.00  0.00    +0.000 A 
ATOM     24  C   UNL     1       1.837   7.340  20.430  0.00  0.00    +0.000 A 
ATOM     25  C   UNL     1       1.069   8.445  20.817  0.00  0.00    +0.000 A 
ATOM     26  C   UNL     1       0.828   9.499  19.926  0.00  0.00    +0.000 A 
ATOM     27  C   UNL     1       1.346   9.400  18.629  0.00  0.00    +0.000 A 
ATOM     28  C   UNL     1       2.109   8.289  18.238  0.00  0.00    +0.000 A 
BRANCH  23  30
ATOM     29  C   UNL     1       4.009   6.255  17.786  0.00  0.00    +0.000 C 
ATOM     30  O   UNL     1       3.109   6.145  18.881  0.00  0.00    +0.000 OA
ENDBRANCH  23  30
ENDBRANCH  21  26
ENDBRANCH   1  22
BRANCH   3  31
ATOM     31  O   UNL     1      -3.792  11.880  24.199  0.00  0.00    +0.000 OA
ATOM     32  C   UNL     1      -4.978  12.631  24.441  0.00  0.00    +0.000 C 
ENDBRANCH   3  31
BRANCH   5  33
ATOM     33  O   UNL     1      -2.188  15.662  21.855  0.00  0.00    +0.000 OA
ATOM     34  C   UNL     1      -3.487  16.156  22.125  0.00  0.00    +0.000 C 
ENDBRANCH   5  33
TORSDOF 7
ENDMDL
MODEL 8
REMARK VINA RESULT:      -6.6      3.136      7.443
REMARK  Name = 
REMARK  10 active torsions:
REMARK  status: ('A' for Active; 'I' for Inactive)
REMARK    1  A    between atoms: C_1  and  O_2
REMARK    2  A    between atoms: O_2  and  C_3
REMARK    3  A    between atoms: C_6  and  C_7
REMARK    4  A    between atoms: C_8  and  C_9
REMARK    5  A    between atoms: C_11  and  O_12
REMARK    6  A    between atoms: O_12  and  C_13
REMARK    7  A    between atoms: C_15  and  O_16
REMARK    8  A    between atoms: O_16  and  C_17
REMARK    9  A    between atoms: C_18  and  C_19
REMARK   10  A    between atoms: C_30  and  O_31
REMARK                            x       y       z     vdW  Elec       q    Type
REMARK                         _______ _______ _______ _____ _____    ______ ____
ROOT
ATOM      1  C   UNL     1      -3.536  12.224  19.365  0.00  0.00    +0.000 A 
ATOM      2  C   UNL     1      -4.922  12.157  19.119  0.00  0.00    +0.000 A 
ATOM      3  C   UNL     1      -5.411  11.672  17.917  0.00  0.00    +0.000 A 
ATOM      4  C   UNL     1      -4.501  11.258  16.953  0.00  0.00    +0.000 A 
ATOM      5  C   UNL     1      -3.106  11.296  17.174  0.00  0.00    +0.000 A 
ATOM      6  C   UNL     1      -2.589  11.828  18.376  0.00  0.00    +0.000 A 
ENDROOT
BRANCH   6   7
ATOM      7  C   UNL     1      -1.162  12.157  18.658  0.00  0.00    +0.000 A 
ATOM      8  O   UNL     1      -0.830  13.505  18.468  0.00  0.00    +0.000 OA
ATOM      9  C   UNL     1       0.497  13.854  18.633  0.00  0.00    +0.000 A 
ATOM     10  C   UNL     1       0.809  15.204  18.784  0.00  0.00    +0.000 A 
ATOM     11  C   UNL     1       2.148  15.594  18.944  0.00  0.00    +0.000 A 
ATOM     12  C   UNL     1       3.168  14.643  18.922  0.00  0.00    +0.000 A 
ATOM     13 CL   UNL     1       4.805  15.128  19.130  0.00  0.00    +0.000 Cl
ATOM     14  C   UNL     1       2.867  13.295  18.757  0.00  0.00    +0.000 A 
ATOM     15  C   UNL     1       1.528  12.919  18.637  0.00  0.00    +0.000 A 
ATOM     16  C   UNL     1       1.168  11.504  18.603  0.00  0.00    +0.000 A 
ATOM     17  O   UNL     1       1.990  10.616  18.394  0.00  0.00    +0.000 OA
ATOM     18  C   UNL     1      -0.263  11.183  18.851  0.00  0.00    +0.000 A 
BRANCH  18  19
ATOM     19  O   UNL     1      -0.567   9.880  19.203  0.00  0.00    +0.000 OA
ATOM     20  H   UNL     1       0.288   9.400  19.173  0.00  0.00    +0.000 HD
ENDBRANCH  18  19
ENDBRANCH   6   7
BRANCH   1  22
ATOM     21  C   UNL     1      -3.883  13.699  21.284  0.00  0.00    +0.000 C 
ATOM     22  C   UNL     1      -3.186  12.693  20.719  0.00  0.00    +0.000 C 
BRANCH  21  26
ATOM     23  C   UNL     1      -2.616  15.855  24.778  0.00  0.00    +0.000 A 
ATOM     24  C   UNL     1      -2.589  16.442  23.516  0.00  0.00    +0.000 A 
ATOM     25  C   UNL     1      -3.036  15.736  22.392  0.00  0.00    +0.000 A 
ATOM     26  C   UNL     1      -3.493  14.417  22.508  0.00  0.00    +0.000 A 
ATOM     27  C   UNL     1      -3.524  13.837  23.783  0.00  0.00    +0.000 A 
ATOM     28  C   UNL     1      -3.083  14.547  24.910  0.00  0.00    +0.000 A 
BRANCH  23  30
ATOM     29  C   UNL     1      -0.989  16.110  26.468  0.00  0.00    +0.000 C 
ATOM     30  O   UNL     1      -2.132  16.625  25.797  0.00  0.00    +0.000 OA
ENDBRANCH  23  30
ENDBRANCH  21  26
ENDBRANCH   1  22
BRANCH   3  31
ATOM     31  O   UNL     1      -6.771  11.648  17.793  0.00  0.00    +0.000 OA
ATOM     32  C   UNL     1      -7.489  12.320  18.824  0.00  0.00    +0.000 C 
ENDBRANCH   3  31
BRANCH   5  33
ATOM     33  O   UNL     1      -2.443  10.796  16.087  0.00  0.00    +0.000 OA
ATOM     34  C   UNL     1      -3.193  10.379  14.961  0.00  0.00    +0.000 C 
ENDBRANCH   5  33
TORSDOF 7
ENDMDL
MODEL 9
REMARK VINA RESULT:      -6.6      3.618      5.982
REMARK  Name = 
REMARK  10 active torsions:
REMARK  status: ('A' for Active; 'I' for Inactive)
REMARK    1  A    between atoms: C_1  and  O_2
REMARK    2  A    between atoms: O_2  and  C_3
REMARK    3  A    between atoms: C_6  and  C_7
REMARK    4  A    between atoms: C_8  and  C_9
REMARK    5  A    between atoms: C_11  and  O_12
REMARK    6  A    between atoms: O_12  and  C_13
REMARK    7  A    between atoms: C_15  and  O_16
REMARK    8  A    between atoms: O_16  and  C_17
REMARK    9  A    between atoms: C_18  and  C_19
REMARK   10  A    between atoms: C_30  and  O_31
REMARK                            x       y       z     vdW  Elec       q    Type
REMARK                         _______ _______ _______ _____ _____    ______ ____
ROOT
ATOM      1  C   UNL     1      -3.544  13.178  21.465  0.00  0.00    +0.000 A 
ATOM      2  C   UNL     1      -4.722  12.589  21.965  0.00  0.00    +0.000 A 
ATOM      3  C   UNL     1      -5.269  13.000  23.170  0.00  0.00    +0.000 A 
ATOM      4  C   UNL     1      -4.623  14.003  23.881  0.00  0.00    +0.000 A 
ATOM      5  C   UNL     1      -3.450  14.626  23.399  0.00  0.00    +0.000 A 
ATOM      6  C   UNL     1      -2.855  14.190  22.195  0.00  0.00    +0.000 A 
ENDROOT
BRANCH   6   7
ATOM      7  C   UNL     1      -1.507  14.572  21.683  0.00  0.00    +0.000 A 
ATOM      8  O   UNL     1      -1.531  15.389  20.545  0.00  0.00    +0.000 OA
ATOM      9  C   UNL     1      -0.313  15.706  19.975  0.00  0.00    +0.000 A 
ATOM     10  C   UNL     1      -0.265  16.764  19.068  0.00  0.00    +0.000 A 
ATOM     11  C   UNL     1       0.954  17.107  18.463  0.00  0.00    +0.000 A 
ATOM     12  C   UNL     1       2.110  16.377  18.741  0.00  0.00    +0.000 A 
ATOM     13 CL   UNL     1       3.603  16.812  18.005  0.00  0.00    +0.000 Cl
ATOM     14  C   UNL     1       2.069  15.312  19.634  0.00  0.00    +0.000 A 
ATOM     15  C   UNL     1       0.858  15.006  20.255  0.00  0.00    +0.000 A 
ATOM     16  C   UNL     1       0.809  13.986  21.299  0.00  0.00    +0.000 A 
ATOM     17  O   UNL     1       1.717  13.178  21.478  0.00  0.00    +0.000 OA
ATOM     18  C   UNL     1      -0.404  13.982  22.161  0.00  0.00    +0.000 A 
BRANCH  18  19
ATOM     19  O   UNL     1      -0.321  13.310  23.367  0.00  0.00    +0.000 OA
ATOM     20  H   UNL     1       0.600  13.446  23.673  0.00  0.00    +0.000 HD
ENDBRANCH  18  19
ENDBRANCH   6   7
BRANCH   1  22
ATOM     21  C   UNL     1      -4.073  12.267  19.259  0.00  0.00    +0.000 C 
ATOM     22  C   UNL     1      -3.138  12.680  20.138  0.00  0.00    +0.000 C 
BRANCH  21  26
ATOM     23  C   UNL     1      -3.120  10.160  15.638  0.00  0.00    +0.000 A 
ATOM     24  C   UNL     1      -2.309  10.065  16.766  0.00  0.00    +0.000 A 
ATOM     25  C   UNL     1      -2.652  10.732  17.948  0.00  0.00    +0.000 A 
ATOM     26  C   UNL     1      -3.801  11.531  18.014  0.00  0.00    +0.000 A 
ATOM     27  C   UNL     1      -4.614  11.615  16.877  0.00  0.00    +0.000 A 
ATOM     28  C   UNL     1      -4.275  10.941  15.694  0.00  0.00    +0.000 A 
BRANCH  23  30
ATOM     29  C   UNL     1      -3.334   9.808  13.314  0.00  0.00    +0.000 C 
ATOM     30  O   UNL     1      -2.676   9.490  14.534  0.00  0.00    +0.000 OA
ENDBRANCH  23  30
ENDBRANCH  21  26
ENDBRANCH   1  22
BRANCH   3  31
ATOM     31  O   UNL     1      -6.416  12.363  23.552  0.00  0.00    +0.000 OA
ATOM     32  C   UNL     1      -7.419  13.200  24.120  0.00  0.00    +0.000 C 
ENDBRANCH   3  31
BRANCH   5  33
ATOM     33  O   UNL     1      -3.046  15.604  24.267  0.00  0.00    +0.000 OA
ATOM     34  C   UNL     1      -2.446  15.225  25.492  0.00  0.00    +0.000 C 
ENDBRANCH   5  33
TORSDOF 7
ENDMDL
