MODEL 1
REMARK VINA RESULT:      -7.4      0.000      0.000
REMARK  Name = 
REMARK  6 active torsions:
REMARK  status: ('A' for Active; 'I' for Inactive)
REMARK    1  A    between atoms: C_1  and  O_2
REMARK    2  A    between atoms: O_2  and  C_3
REMARK    3  A    between atoms: C_8  and  C_9
REMARK    4  A    between atoms: C_14  and  C_15
REMARK    5  A    between atoms: C_18  and  N_19
REMARK    6  A    between atoms: C_20  and  C_22
REMARK                            x       y       z     vdW  Elec       q    Type
REMARK                         _______ _______ _______ _____ _____    ______ ____
ROOT
ATOM      1  C   UNL     1       3.735   7.044  17.593  0.00  0.00    +0.000 A 
ATOM      2  N   UNL     1       3.442   8.290  17.056  0.00  0.00    +0.000 NA
ATOM      3  C   UNL     1       2.582   8.849  17.874  0.00  0.00    +0.000 A 
ATOM      4  C   UNL     1       1.938  10.118  17.820  0.00  0.00    +0.000 A 
ATOM      5  C   UNL     1       1.044  10.460  18.769  0.00  0.00    +0.000 A 
ATOM      6  C   UNL     1       0.699   9.548  19.854  0.00  0.00    +0.000 A 
ATOM      7  C   UNL     1      -0.320   9.965  20.866  0.00  0.00    +0.000 C 
ATOM      8  C   UNL     1       1.324   8.355  19.909  0.00  0.00    +0.000 A 
ATOM      9  N   UNL     1       2.280   8.018  18.944  0.00  0.00    +0.000 N 
ATOM     10  C   UNL     1       3.031   6.859  18.775  0.00  0.00    +0.000 A 
ENDROOT
BRANCH   1  16
ATOM     11  C   UNL     1       6.130   6.564  16.792  0.00  0.00    +0.000 A 
ATOM     12  C   UNL     1       7.028   5.598  16.289  0.00  0.00    +0.000 A 
ATOM     13  C   UNL     1       6.593   4.339  15.882  0.00  0.00    +0.000 A 
ATOM     14  C   UNL     1       5.248   4.019  15.968  0.00  0.00    +0.000 A 
ATOM     15  C   UNL     1       4.358   4.946  16.510  0.00  0.00    +0.000 A 
ATOM     16  C   UNL     1       4.775   6.220  16.964  0.00  0.00    +0.000 A 
BRANCH  11  18
ATOM     17  C   UNL     1       7.866   7.821  17.781  0.00  0.00    +0.000 C 
ATOM     18  O   UNL     1       6.574   7.811  17.164  0.00  0.00    +0.000 OA
ENDBRANCH  11  18
ENDBRANCH   1  16
BRANCH  10  19
ATOM     19  N   UNL     1       2.954   5.773  19.634  0.00  0.00    +0.000 N 
ATOM     20  C   UNL     1       2.149   4.679  19.337  0.00  0.00    +0.000 C 
ATOM     21  O   UNL     1       1.463   4.582  18.322  0.00  0.00    +0.000 OA
ATOM     22  H   UNL     1       3.128   5.949  20.618  0.00  0.00    +0.000 HD
BRANCH  20  23
ATOM     23  C   UNL     1       2.165   3.658  20.364  0.00  0.00    +0.000 A 
ATOM     24  C   UNL     1       1.157   3.178  21.183  0.00  0.00    +0.000 A 
ATOM     25  C   UNL     1       1.715   2.137  21.958  0.00  0.00    +0.000 A 
ATOM     26  C   UNL     1       3.034   2.044  21.578  0.00  0.00    +0.000 A 
ATOM     27  O   UNL     1       3.318   2.960  20.618  0.00  0.00    +0.000 OA
ENDBRANCH  20  23
ENDBRANCH  10  19
TORSDOF 4
ENDMDL
MODEL 2
REMARK VINA RESULT:      -7.4      3.247      6.141
REMARK  Name = 
REMARK  6 active torsions:
REMARK  status: ('A' for Active; 'I' for Inactive)
REMARK    1  A    between atoms: C_1  and  O_2
REMARK    2  A    between atoms: O_2  and  C_3
REMARK    3  A    between atoms: C_8  and  C_9
REMARK    4  A    between atoms: C_14  and  C_15
REMARK    5  A    between atoms: C_18  and  N_19
REMARK    6  A    between atoms: C_20  and  C_22
REMARK                            x       y       z     vdW  Elec       q    Type
REMARK                         _______ _______ _______ _____ _____    ______ ____
ROOT
ATOM      1  C   UNL     1       6.964   5.413  15.834  0.00  0.00    +0.000 A 
ATOM      2  N   UNL     1       7.760   5.472  14.698  0.00  0.00    +0.000 NA
ATOM      3  C   UNL     1       7.095   4.855  13.751  0.00  0.00    +0.000 A 
ATOM      4  C   UNL     1       7.429   4.608  12.390  0.00  0.00    +0.000 A 
ATOM      5  C   UNL     1       6.590   3.903  11.607  0.00  0.00    +0.000 A 
ATOM      6  C   UNL     1       5.339   3.360  12.127  0.00  0.00    +0.000 A 
ATOM      7  C   UNL     1       4.455   2.560  11.223  0.00  0.00    +0.000 C 
ATOM      8  C   UNL     1       5.020   3.610  13.412  0.00  0.00    +0.000 A 
ATOM      9  N   UNL     1       5.875   4.377  14.211  0.00  0.00    +0.000 N 
ATOM     10  C   UNL     1       5.780   4.746  15.550  0.00  0.00    +0.000 A 
ENDROOT
BRANCH   1  16
ATOM     11  C   UNL     1       7.538   5.592  18.334  0.00  0.00    +0.000 A 
ATOM     12  C   UNL     1       8.085   6.395  19.358  0.00  0.00    +0.000 A 
ATOM     13  C   UNL     1       8.400   7.735  19.145  0.00  0.00    +0.000 A 
ATOM     14  C   UNL     1       8.175   8.301  17.901  0.00  0.00    +0.000 A 
ATOM     15  C   UNL     1       7.683   7.507  16.866  0.00  0.00    +0.000 A 
ATOM     16  C   UNL     1       7.385   6.134  17.042  0.00  0.00    +0.000 A 
BRANCH  11  18
ATOM     17  C   UNL     1       6.056   4.096  19.399  0.00  0.00    +0.000 C 
ATOM     18  O   UNL     1       7.208   4.279  18.570  0.00  0.00    +0.000 OA
ENDBRANCH  11  18
ENDBRANCH   1  16
BRANCH  10  19
ATOM     19  N   UNL     1       4.709   4.397  16.359  0.00  0.00    +0.000 N 
ATOM     20  C   UNL     1       3.948   5.369  17.000  0.00  0.00    +0.000 C 
ATOM     21  O   UNL     1       4.150   6.577  16.905  0.00  0.00    +0.000 OA
ATOM     22  H   UNL     1       4.745   3.487  16.807  0.00  0.00    +0.000 HD
BRANCH  20  23
ATOM     23  C   UNL     1       2.897   4.820  17.831  0.00  0.00    +0.000 A 
ATOM     24  C   UNL     1       1.950   3.845  17.570  0.00  0.00    +0.000 A 
ATOM     25  C   UNL     1       1.210   3.658  18.759  0.00  0.00    +0.000 A 
ATOM     26  C   UNL     1       1.738   4.536  19.678  0.00  0.00    +0.000 A 
ATOM     27  O   UNL     1       2.755   5.245  19.127  0.00  0.00    +0.000 OA
ENDBRANCH  20  23
ENDBRANCH  10  19
TORSDOF 4
ENDMDL
MODEL 3
REMARK VINA RESULT:      -7.4      1.102      1.235
REMARK  Name = 
REMARK  6 active torsions:
REMARK  status: ('A' for Active; 'I' for Inactive)
REMARK    1  A    between atoms: C_1  and  O_2
REMARK    2  A    between atoms: O_2  and  C_3
REMARK    3  A    between atoms: C_8  and  C_9
REMARK    4  A    between atoms: C_14  and  C_15
REMARK    5  A    between atoms: C_18  and  N_19
REMARK    6  A    between atoms: C_20  and  C_22
REMARK                            x       y       z     vdW  Elec       q    Type
REMARK                         _______ _______ _______ _____ _____    ______ ____
ROOT
ATOM      1  C   UNL     1       3.877   6.988  17.587  0.00  0.00    +0.000 A 
ATOM      2  N   UNL     1       3.609   8.240  17.051  0.00  0.00    +0.000 NA
ATOM      3  C   UNL     1       2.718   8.793  17.838  0.00  0.00    +0.000 A 
ATOM      4  C   UNL     1       2.078  10.063  17.771  0.00  0.00    +0.000 A 
ATOM      5  C   UNL     1       1.148  10.399  18.686  0.00  0.00    +0.000 A 
ATOM      6  C   UNL     1       0.757   9.477  19.747  0.00  0.00    +0.000 A 
ATOM      7  C   UNL     1      -0.302   9.887  20.721  0.00  0.00    +0.000 C 
ATOM      8  C   UNL     1       1.376   8.282  19.816  0.00  0.00    +0.000 A 
ATOM      9  N   UNL     1       2.371   7.953  18.888  0.00  0.00    +0.000 N 
ATOM     10  C   UNL     1       3.125   6.793  18.738  0.00  0.00    +0.000 A 
ENDROOT
BRANCH   1  16
ATOM     11  C   UNL     1       5.962   5.487  17.684  0.00  0.00    +0.000 A 
ATOM     12  C   UNL     1       6.825   4.629  16.969  0.00  0.00    +0.000 A 
ATOM     13  C   UNL     1       6.745   4.502  15.584  0.00  0.00    +0.000 A 
ATOM     14  C   UNL     1       5.798   5.232  14.884  0.00  0.00    +0.000 A 
ATOM     15  C   UNL     1       4.906   6.044  15.583  0.00  0.00    +0.000 A 
ATOM     16  C   UNL     1       4.941   6.168  16.993  0.00  0.00    +0.000 A 
BRANCH  11  18
ATOM     17  C   UNL     1       7.421   5.677  19.530  0.00  0.00    +0.000 C 
ATOM     18  O   UNL     1       6.074   5.620  19.048  0.00  0.00    +0.000 OA
ENDBRANCH  11  18
ENDBRANCH   1  16
BRANCH  10  19
ATOM     19  N   UNL     1       3.012   5.699  19.582  0.00  0.00    +0.000 N 
ATOM     20  C   UNL     1       2.255   4.590  19.221  0.00  0.00    +0.000 C 
ATOM     21  O   UNL     1       1.647   4.485  18.159  0.00  0.00    +0.000 OA
ATOM     22  H   UNL     1       3.110   5.872  20.578  0.00  0.00    +0.000 HD
BRANCH  20  23
ATOM     23  C   UNL     1       2.220   3.561  20.240  0.00  0.00    +0.000 A 
ATOM     24  C   UNL     1       3.183   2.653  20.647  0.00  0.00    +0.000 A 
ATOM     25  C   UNL     1       2.634   1.922  21.724  0.00  0.00    +0.000 A 
ATOM     26  C   UNL     1       1.362   2.416  21.910  0.00  0.00    +0.000 A 
ATOM     27  O   UNL     1       1.101   3.403  21.017  0.00  0.00    +0.000 OA
ENDBRANCH  20  23
ENDBRANCH  10  19
TORSDOF 4
ENDMDL
MODEL 4
REMARK VINA RESULT:      -7.2      1.564      5.087
REMARK  Name = 
REMARK  6 active torsions:
REMARK  status: ('A' for Active; 'I' for Inactive)
REMARK    1  A    between atoms: C_1  and  O_2
REMARK    2  A    between atoms: O_2  and  C_3
REMARK    3  A    between atoms: C_8  and  C_9
REMARK    4  A    between atoms: C_14  and  C_15
REMARK    5  A    between atoms: C_18  and  N_19
REMARK    6  A    between atoms: C_20  and  C_22
REMARK                            x       y       z     vdW  Elec       q    Type
REMARK                         _______ _______ _______ _____ _____    ______ ____
ROOT
ATOM      1  C   UNL     1       2.003   6.149  19.862  0.00  0.00    +0.000 A 
ATOM      2  N   UNL     1       1.271   7.036  20.640  0.00  0.00    +0.000 NA
ATOM      3  C   UNL     1       1.384   8.208  20.064  0.00  0.00    +0.000 A 
ATOM      4  C   UNL     1       0.849   9.477  20.426  0.00  0.00    +0.000 A 
ATOM      5  C   UNL     1       1.144  10.567  19.691  0.00  0.00    +0.000 A 
ATOM      6  C   UNL     1       2.023  10.487  18.529  0.00  0.00    +0.000 A 
ATOM      7  C   UNL     1       2.341  11.732  17.763  0.00  0.00    +0.000 C 
ATOM      8  C   UNL     1       2.513   9.281  18.182  0.00  0.00    +0.000 A 
ATOM      9  N   UNL     1       2.174   8.144  18.924  0.00  0.00    +0.000 N 
ATOM     10  C   UNL     1       2.564   6.816  18.782  0.00  0.00    +0.000 A 
ENDROOT
BRANCH   1  16
ATOM     11  C   UNL     1       1.775   3.656  19.274  0.00  0.00    +0.000 A 
ATOM     12  C   UNL     1       1.904   2.326  19.730  0.00  0.00    +0.000 A 
ATOM     13  C   UNL     1       2.132   2.033  21.072  0.00  0.00    +0.000 A 
ATOM     14  C   UNL     1       2.238   3.066  21.989  0.00  0.00    +0.000 A 
ATOM     15  C   UNL     1       2.163   4.386  21.545  0.00  0.00    +0.000 A 
ATOM     16  C   UNL     1       1.965   4.716  20.183  0.00  0.00    +0.000 A 
BRANCH  11  18
ATOM     17  C   UNL     1       2.356   3.211  17.031  0.00  0.00    +0.000 C 
ATOM     18  O   UNL     1       1.523   3.925  17.950  0.00  0.00    +0.000 OA
ENDBRANCH  11  18
ENDBRANCH   1  16
BRANCH  10  19
ATOM     19  N   UNL     1       3.406   6.376  17.772  0.00  0.00    +0.000 N 
ATOM     20  C   UNL     1       4.659   5.848  18.062  0.00  0.00    +0.000 C 
ATOM     21  O   UNL     1       5.110   5.725  19.198  0.00  0.00    +0.000 OA
ATOM     22  H   UNL     1       3.302   6.812  16.861  0.00  0.00    +0.000 HD
BRANCH  20  23
ATOM     23  C   UNL     1       5.413   5.476  16.883  0.00  0.00    +0.000 A 
ATOM     24  C   UNL     1       5.242   5.815  15.552  0.00  0.00    +0.000 A 
ATOM     25  C   UNL     1       6.304   5.220  14.834  0.00  0.00    +0.000 A 
ATOM     26  C   UNL     1       7.059   4.541  15.763  0.00  0.00    +0.000 A 
ATOM     27  O   UNL     1       6.529   4.686  17.003  0.00  0.00    +0.000 OA
ENDBRANCH  20  23
ENDBRANCH  10  19
TORSDOF 4
ENDMDL
MODEL 5
REMARK VINA RESULT:      -7.1      7.058     10.331
REMARK  Name = 
REMARK  6 active torsions:
REMARK  status: ('A' for Active; 'I' for Inactive)
REMARK    1  A    between atoms: C_1  and  O_2
REMARK    2  A    between atoms: O_2  and  C_3
REMARK    3  A    between atoms: C_8  and  C_9
REMARK    4  A    between atoms: C_14  and  C_15
REMARK    5  A    between atoms: C_18  and  N_19
REMARK    6  A    between atoms: C_20  and  C_22
REMARK                            x       y       z     vdW  Elec       q    Type
REMARK                         _______ _______ _______ _____ _____    ______ ____
ROOT
ATOM      1  C   UNL     1      -1.631  12.684  22.881  0.00  0.00    +0.000 A 
ATOM      2  N   UNL     1      -0.835  13.580  23.581  0.00  0.00    +0.000 NA
ATOM      3  C   UNL     1      -1.646  14.487  24.069  0.00  0.00    +0.000 A 
ATOM      4  C   UNL     1      -1.382  15.641  24.861  0.00  0.00    +0.000 A 
ATOM      5  C   UNL     1      -2.391  16.462  25.212  0.00  0.00    +0.000 A 
ATOM      6  C   UNL     1      -3.763  16.211  24.782  0.00  0.00    +0.000 A 
ATOM      7  C   UNL     1      -4.842  17.169  25.175  0.00  0.00    +0.000 C 
ATOM      8  C   UNL     1      -4.009  15.109  24.046  0.00  0.00    +0.000 A 
ATOM      9  N   UNL     1      -2.965  14.237  23.717  0.00  0.00    +0.000 N 
ATOM     10  C   UNL     1      -2.962  13.068  22.962  0.00  0.00    +0.000 A 
ENDROOT
BRANCH   1  16
ATOM     11  C   UNL     1      -0.592  11.286  20.989  0.00  0.00    +0.000 A 
ATOM     12  C   UNL     1       0.100  10.104  20.647  0.00  0.00    +0.000 A 
ATOM     13  C   UNL     1       0.298   9.081  21.571  0.00  0.00    +0.000 A 
ATOM     14  C   UNL     1      -0.193   9.218  22.859  0.00  0.00    +0.000 A 
ATOM     15  C   UNL     1      -0.835  10.401  23.224  0.00  0.00    +0.000 A 
ATOM     16  C   UNL     1      -1.021  11.472  22.318  0.00  0.00    +0.000 A 
BRANCH  11  18
ATOM     17  C   UNL     1      -0.479  11.900  18.713  0.00  0.00    +0.000 C 
ATOM     18  O   UNL     1      -0.802  12.274  20.056  0.00  0.00    +0.000 OA
ENDBRANCH  11  18
ENDBRANCH   1  16
BRANCH  10  19
ATOM     19  N   UNL     1      -4.106  12.529  22.392  0.00  0.00    +0.000 N 
ATOM     20  C   UNL     1      -4.471  12.837  21.086  0.00  0.00    +0.000 C 
ATOM     21  O   UNL     1      -3.831  13.584  20.349  0.00  0.00    +0.000 OA
ATOM     22  H   UNL     1      -4.862  12.278  23.022  0.00  0.00    +0.000 HD
BRANCH  20  23
ATOM     23  C   UNL     1      -5.711  12.215  20.673  0.00  0.00    +0.000 A 
ATOM     24  C   UNL     1      -6.240  11.994  19.413  0.00  0.00    +0.000 A 
ATOM     25  C   UNL     1      -7.453  11.290  19.590  0.00  0.00    +0.000 A 
ATOM     26  C   UNL     1      -7.603  11.128  20.949  0.00  0.00    +0.000 A 
ATOM     27  O   UNL     1      -6.559  11.686  21.612  0.00  0.00    +0.000 OA
ENDBRANCH  20  23
ENDBRANCH  10  19
TORSDOF 4
ENDMDL
MODEL 6
REMARK VINA RESULT:      -7.0      3.626      6.164
REMARK  Name = 
REMARK  6 active torsions:
REMARK  status: ('A' for Active; 'I' for Inactive)
REMARK    1  A    between atoms: C_1  and  O_2
REMARK    2  A    between atoms: O_2  and  C_3
REMARK    3  A    between atoms: C_8  and  C_9
REMARK    4  A    between atoms: C_14  and  C_15
REMARK    5  A    between atoms: C_18  and  N_19
REMARK    6  A    between atoms: C_20  and  C_22
REMARK                            x       y       z     vdW  Elec       q    Type
REMARK                         _______ _______ _______ _____ _____    ______ ____
ROOT
ATOM      1  C   UNL     1       6.886   5.443  15.793  0.00  0.00    +0.000 A 
ATOM      2  N   UNL     1       7.738   5.377  14.699  0.00  0.00    +0.000 NA
ATOM      3  C   UNL     1       7.061   4.790  13.742  0.00  0.00    +0.000 A 
ATOM      4  C   UNL     1       7.435   4.457  12.409  0.00  0.00    +0.000 A 
ATOM      5  C   UNL     1       6.568   3.804  11.610  0.00  0.00    +0.000 A 
ATOM      6  C   UNL     1       5.246   3.407  12.084  0.00  0.00    +0.000 A 
ATOM      7  C   UNL     1       4.332   2.659  11.165  0.00  0.00    +0.000 C 
ATOM      8  C   UNL     1       4.892   3.739  13.341  0.00  0.00    +0.000 A 
ATOM      9  N   UNL     1       5.780   4.451  14.155  0.00  0.00    +0.000 N 
ATOM     10  C   UNL     1       5.658   4.882  15.473  0.00  0.00    +0.000 A 
ENDROOT
BRANCH   1  16
ATOM     11  C   UNL     1       7.442   5.641  18.296  0.00  0.00    +0.000 A 
ATOM     12  C   UNL     1       8.004   6.442  19.314  0.00  0.00    +0.000 A 
ATOM     13  C   UNL     1       8.362   7.768  19.085  0.00  0.00    +0.000 A 
ATOM     14  C   UNL     1       8.167   8.323  17.830  0.00  0.00    +0.000 A 
ATOM     15  C   UNL     1       7.660   7.528  16.802  0.00  0.00    +0.000 A 
ATOM     16  C   UNL     1       7.318   6.168  16.995  0.00  0.00    +0.000 A 
BRANCH  11  18
ATOM     17  C   UNL     1       5.977   4.206  19.463  0.00  0.00    +0.000 C 
ATOM     18  O   UNL     1       7.069   4.342  18.548  0.00  0.00    +0.000 OA
ENDBRANCH  11  18
ENDBRANCH   1  16
BRANCH  10  19
ATOM     19  N   UNL     1       4.520   4.672  16.238  0.00  0.00    +0.000 N 
ATOM     20  C   UNL     1       4.242   3.423  16.782  0.00  0.00    +0.000 C 
ATOM     21  O   UNL     1       4.957   2.434  16.641  0.00  0.00    +0.000 OA
ATOM     22  H   UNL     1       3.720   5.269  16.050  0.00  0.00    +0.000 HD
BRANCH  20  23
ATOM     23  C   UNL     1       2.995   3.382  17.518  0.00  0.00    +0.000 A 
ATOM     24  C   UNL     1       2.073   4.375  17.798  0.00  0.00    +0.000 A 
ATOM     25  C   UNL     1       1.009   3.766  18.501  0.00  0.00    +0.000 A 
ATOM     26  C   UNL     1       1.344   2.436  18.621  0.00  0.00    +0.000 A 
ATOM     27  O   UNL     1       2.543   2.194  18.034  0.00  0.00    +0.000 OA
ENDBRANCH  20  23
ENDBRANCH  10  19
TORSDOF 4
ENDMDL
MODEL 7
REMARK VINA RESULT:      -6.7      2.103      5.430
REMARK  Name = 
REMARK  6 active torsions:
REMARK  status: ('A' for Active; 'I' for Inactive)
REMARK    1  A    between atoms: C_1  and  O_2
REMARK    2  A    between atoms: O_2  and  C_3
REMARK    3  A    between atoms: C_8  and  C_9
REMARK    4  A    between atoms: C_14  and  C_15
REMARK    5  A    between atoms: C_18  and  N_19
REMARK    6  A    between atoms: C_20  and  C_22
REMARK                            x       y       z     vdW  Elec       q    Type
REMARK                         _______ _______ _______ _____ _____    ______ ____
ROOT
ATOM      1  C   UNL     1       5.177   5.166  18.476  0.00  0.00    +0.000 A 
ATOM      2  N   UNL     1       5.432   3.813  18.651  0.00  0.00    +0.000 NA
ATOM      3  C   UNL     1       4.262   3.221  18.685  0.00  0.00    +0.000 A 
ATOM      4  C   UNL     1       3.920   1.848  18.848  0.00  0.00    +0.000 A 
ATOM      5  C   UNL     1       2.625   1.478  18.896  0.00  0.00    +0.000 A 
ATOM      6  C   UNL     1       1.549   2.459  18.803  0.00  0.00    +0.000 A 
ATOM      7  C   UNL     1       0.128   1.999  18.890  0.00  0.00    +0.000 C 
ATOM      8  C   UNL     1       1.879   3.755  18.634  0.00  0.00    +0.000 A 
ATOM      9  N   UNL     1       3.224   4.131  18.545  0.00  0.00    +0.000 N 
ATOM     10  C   UNL     1       3.809   5.385  18.397  0.00  0.00    +0.000 A 
ENDROOT
BRANCH   1  16
ATOM     11  C   UNL     1       6.446   7.021  17.227  0.00  0.00    +0.000 A 
ATOM     12  C   UNL     1       7.528   7.927  17.255  0.00  0.00    +0.000 A 
ATOM     13  C   UNL     1       8.505   7.865  18.245  0.00  0.00    +0.000 A 
ATOM     14  C   UNL     1       8.421   6.895  19.230  0.00  0.00    +0.000 A 
ATOM     15  C   UNL     1       7.330   6.027  19.244  0.00  0.00    +0.000 A 
ATOM     16  C   UNL     1       6.303   6.086  18.271  0.00  0.00    +0.000 A 
BRANCH  11  18
ATOM     17  C   UNL     1       5.580   6.010  15.278  0.00  0.00    +0.000 C 
ATOM     18  O   UNL     1       5.505   7.080  16.226  0.00  0.00    +0.000 OA
ENDBRANCH  11  18
ENDBRANCH   1  16
BRANCH  10  19
ATOM     19  N   UNL     1       3.075   6.556  18.277  0.00  0.00    +0.000 N 
ATOM     20  C   UNL     1       2.464   7.136  19.383  0.00  0.00    +0.000 C 
ATOM     21  O   UNL     1       2.524   6.680  20.523  0.00  0.00    +0.000 OA
ATOM     22  H   UNL     1       2.643   6.740  17.377  0.00  0.00    +0.000 HD
BRANCH  20  23
ATOM     23  C   UNL     1       1.711   8.331  19.064  0.00  0.00    +0.000 A 
ATOM     24  C   UNL     1       1.507   8.979  17.858  0.00  0.00    +0.000 A 
ATOM     25  C   UNL     1       0.638  10.065  18.114  0.00  0.00    +0.000 A 
ATOM     26  C   UNL     1       0.368  10.026  19.463  0.00  0.00    +0.000 A 
ATOM     27  O   UNL     1       1.013   8.985  20.047  0.00  0.00    +0.000 OA
ENDBRANCH  20  23
ENDBRANCH  10  19
TORSDOF 4
ENDMDL
MODEL 8
REMARK VINA RESULT:      -6.7      7.074      9.389
REMARK  Name = 
REMARK  6 active torsions:
REMARK  status: ('A' for Active; 'I' for Inactive)
REMARK    1  A    between atoms: C_1  and  O_2
REMARK    2  A    between atoms: O_2  and  C_3
REMARK    3  A    between atoms: C_8  and  C_9
REMARK    4  A    between atoms: C_14  and  C_15
REMARK    5  A    between atoms: C_18  and  N_19
REMARK    6  A    between atoms: C_20  and  C_22
REMARK                            x       y       z     vdW  Elec       q    Type
REMARK                         _______ _______ _______ _____ _____    ______ ____
ROOT
ATOM      1  C   UNL     1       0.019  13.178  20.883  0.00  0.00    +0.000 A 
ATOM      2  N   UNL     1       0.532  14.294  21.528  0.00  0.00    +0.000 NA
ATOM      3  C   UNL     1       0.380  15.299  20.699  0.00  0.00    +0.000 A 
ATOM      4  C   UNL     1       0.729  16.673  20.830  0.00  0.00    +0.000 A 
ATOM      5  C   UNL     1       0.511  17.524  19.809  0.00  0.00    +0.000 A 
ATOM      6  C   UNL     1      -0.064  17.068  18.547  0.00  0.00    +0.000 A 
ATOM      7  C   UNL     1      -0.260  18.048  17.434  0.00  0.00    +0.000 C 
ATOM      8  C   UNL     1      -0.407  15.770  18.435  0.00  0.00    +0.000 A 
ATOM      9  N   UNL     1      -0.215  14.897  19.511  0.00  0.00    +0.000 N 
ATOM     10  C   UNL     1      -0.462  13.533  19.630  0.00  0.00    +0.000 A 
ENDROOT
BRANCH   1  16
ATOM     11  C   UNL     1      -0.924  11.616  22.694  0.00  0.00    +0.000 A 
ATOM     12  C   UNL     1      -0.980  10.296  23.194  0.00  0.00    +0.000 A 
ATOM     13  C   UNL     1      -0.150   9.293  22.699  0.00  0.00    +0.000 A 
ATOM     14  C   UNL     1       0.754   9.588  21.692  0.00  0.00    +0.000 A 
ATOM     15  C   UNL     1       0.784  10.874  21.154  0.00  0.00    +0.000 A 
ATOM     16  C   UNL     1      -0.070  11.906  21.612  0.00  0.00    +0.000 A 
BRANCH  11  18
ATOM     17  C   UNL     1      -3.068  12.178  23.504  0.00  0.00    +0.000 C 
ATOM     18  O   UNL     1      -1.732  12.599  23.214  0.00  0.00    +0.000 OA
ENDBRANCH  11  18
ENDBRANCH   1  16
BRANCH  10  19
ATOM     19  N   UNL     1      -1.012  12.769  18.611  0.00  0.00    +0.000 N 
ATOM     20  C   UNL     1      -2.267  12.187  18.748  0.00  0.00    +0.000 C 
ATOM     21  O   UNL     1      -2.974  12.298  19.747  0.00  0.00    +0.000 OA
ATOM     22  H   UNL     1      -0.365  12.301  17.983  0.00  0.00    +0.000 HD
BRANCH  20  23
ATOM     23  C   UNL     1      -2.663  11.397  17.600  0.00  0.00    +0.000 A 
ATOM     24  C   UNL     1      -2.058  10.309  16.995  0.00  0.00    +0.000 A 
ATOM     25  C   UNL     1      -2.910   9.891  15.948  0.00  0.00    +0.000 A 
ATOM     26  C   UNL     1      -3.983  10.753  15.963  0.00  0.00    +0.000 A 
ATOM     27  O   UNL     1      -3.843  11.668  16.955  0.00  0.00    +0.000 OA
ENDBRANCH  20  23
ENDBRANCH  10  19
TORSDOF 4
ENDMDL
MODEL 9
REMARK VINA RESULT:      -6.7      4.831      8.135
REMARK  Name = 
REMARK  6 active torsions:
REMARK  status: ('A' for Active; 'I' for Inactive)
REMARK    1  A    between atoms: C_1  and  O_2
REMARK    2  A    between atoms: O_2  and  C_3
REMARK    3  A    between atoms: C_8  and  C_9
REMARK    4  A    between atoms: C_14  and  C_15
REMARK    5  A    between atoms: C_18  and  N_19
REMARK    6  A    between atoms: C_20  and  C_22
REMARK                            x       y       z     vdW  Elec       q    Type
REMARK                         _______ _______ _______ _____ _____    ______ ____
ROOT
ATOM      1  C   UNL     1       0.622  12.151  20.205  0.00  0.00    +0.000 A 
ATOM      2  N   UNL     1       1.225  13.123  20.992  0.00  0.00    +0.000 NA
ATOM      3  C   UNL     1       0.884  14.278  20.475  0.00  0.00    +0.000 A 
ATOM      4  C   UNL     1       1.216  15.606  20.866  0.00  0.00    +0.000 A 
ATOM      5  C   UNL     1       0.775  16.652  20.140  0.00  0.00    +0.000 A 
ATOM      6  C   UNL     1      -0.029  16.460  18.938  0.00  0.00    +0.000 A 
ATOM      7  C   UNL     1      -0.470  17.654  18.152  0.00  0.00    +0.000 C 
ATOM      8  C   UNL     1      -0.353  15.202  18.581  0.00  0.00    +0.000 A 
ATOM      9  N   UNL     1       0.073  14.120  19.359  0.00  0.00    +0.000 N 
ATOM     10  C   UNL     1      -0.109  12.750  19.189  0.00  0.00    +0.000 A 
ENDROOT
BRANCH   1  16
ATOM     11  C   UNL     1       1.093   9.657  19.794  0.00  0.00    +0.000 A 
ATOM     12  C   UNL     1       1.263   8.383  20.377  0.00  0.00    +0.000 A 
ATOM     13  C   UNL     1       0.987   8.154  21.723  0.00  0.00    +0.000 A 
ATOM     14  C   UNL     1       0.534   9.196  22.515  0.00  0.00    +0.000 A 
ATOM     15  C   UNL     1       0.410  10.471  21.964  0.00  0.00    +0.000 A 
ATOM     16  C   UNL     1       0.715  10.742  20.609  0.00  0.00    +0.000 A 
BRANCH  11  18
ATOM     17  C   UNL     1       2.132   8.834  17.841  0.00  0.00    +0.000 C 
ATOM     18  O   UNL     1       1.345   9.858  18.457  0.00  0.00    +0.000 OA
ENDBRANCH  11  18
ENDBRANCH   1  16
BRANCH  10  19
ATOM     19  N   UNL     1      -0.832  12.206  18.138  0.00  0.00    +0.000 N 
ATOM     20  C   UNL     1      -2.149  11.793  18.311  0.00  0.00    +0.000 C 
ATOM     21  O   UNL     1      -2.764  11.876  19.371  0.00  0.00    +0.000 OA
ATOM     22  H   UNL     1      -0.305  11.734  17.410  0.00  0.00    +0.000 HD
BRANCH  20  23
ATOM     23  C   UNL     1      -2.732  11.217  17.117  0.00  0.00    +0.000 A 
ATOM     24  C   UNL     1      -3.964  11.421  16.519  0.00  0.00    +0.000 A 
ATOM     25  C   UNL     1      -3.985  10.644  15.339  0.00  0.00    +0.000 A 
ATOM     26  C   UNL     1      -2.769  10.001  15.285  0.00  0.00    +0.000 A 
ATOM     27  O   UNL     1      -2.006  10.337  16.355  0.00  0.00    +0.000 OA
ENDBRANCH  20  23
ENDBRANCH  10  19
TORSDOF 4
ENDMDL
