MODEL 1
REMARK VINA RESULT:      -7.1      0.000      0.000
REMARK  Name = 
REMARK  9 active torsions:
REMARK  status: ('A' for Active; 'I' for Inactive)
REMARK    1  A    between atoms: C_1  and  C_2
REMARK    2  A    between atoms: C_5  and  N_6
REMARK    3  A    between atoms: N_9  and  C_10
REMARK    4  A    between atoms: C_10  and  C_11
REMARK    5  A    between atoms: C_11  and  O_12
REMARK    6  A    between atoms: O_12  and  C_13
REMARK    7  A    between atoms: C_13  and  C_14
REMARK    8  A    between atoms: C_13  and  C_20
REMARK    9  A    between atoms: C_14  and  C_15
REMARK                            x       y       z     vdW  Elec       q    Type
REMARK                         _______ _______ _______ _____ _____    ______ ____
ROOT
ATOM      1  C   UNL     1       3.063   6.676  18.171  0.00  0.00    +0.000 C 
ENDROOT
BRANCH   1   2
ATOM      2  C   UNL     1       2.297   5.456  18.684  0.00  0.00    +0.000 A 
ATOM      3  C   UNL     1       1.963   5.304  20.039  0.00  0.00    +0.000 A 
ATOM      4  C   UNL     1       1.285   4.168  20.490  0.00  0.00    +0.000 A 
ATOM      5  C   UNL     1       0.926   3.167  19.592  0.00  0.00    +0.000 A 
ATOM      6  C   UNL     1       1.236   3.304  18.243  0.00  0.00    +0.000 A 
ATOM      7  C   UNL     1       1.909   4.441  17.790  0.00  0.00    +0.000 A 
ENDBRANCH   1   2
BRANCH   1   8
ATOM      8  O   UNL     1       2.536   7.873  18.768  0.00  0.00    +0.000 OA
BRANCH   8   9
ATOM      9  C   UNL     1       2.054   8.896  17.899  0.00  0.00    +0.000 C 
BRANCH   9  10
ATOM     10  C   UNL     1       0.727   9.515  18.344  0.00  0.00    +0.000 C 
BRANCH  10  16
ATOM     11  C   UNL     1       0.503   8.502  21.294  0.00  0.00    +0.000 C 
ATOM     12  C   UNL     1       0.729   9.899  20.846  0.00  0.00    +0.000 A 
ATOM     13  N   UNL     1       0.864  10.919  21.679  0.00  0.00    +0.000 NA
ATOM     14  C   UNL     1       1.171  12.013  20.916  0.00  0.00    +0.000 A 
ATOM     15  C   UNL     1       1.202  11.652  19.597  0.00  0.00    +0.000 A 
ATOM     16  N   UNL     1       0.864  10.325  19.534  0.00  0.00    +0.000 N 
BRANCH  15  17
ATOM     17  N   UNL     1       1.540  12.451  18.485  0.00  0.00    +0.000 N 
ATOM     18  O   UNL     1       2.688  12.326  18.044  0.00  0.00    +0.000 OA
ATOM     19  O   UNL     1       0.654  13.191  18.042  0.00  0.00    +0.000 OA
ENDBRANCH  15  17
ENDBRANCH  10  16
ENDBRANCH   9  10
ENDBRANCH   8   9
ENDBRANCH   1   8
BRANCH   1  20
ATOM     20  C   UNL     1       4.598   6.526  18.316  0.00  0.00    +0.000 C 
BRANCH  20  21
ATOM     21  C   UNL     1       5.286   5.817  17.177  0.00  0.00    +0.000 A 
ATOM     22  C   UNL     1       5.021   5.847  15.821  0.00  0.00    +0.000 A 
ATOM     23  C   UNL     1       5.992   5.131  15.063  0.00  0.00    +0.000 A 
ATOM     24  C   UNL     1       6.931   4.529  15.868  0.00  0.00    +0.000 A 
ATOM     25  S   UNL     1       6.616   4.788  17.525  0.00  0.00    +0.000 S 
ENDBRANCH  20  21
ENDBRANCH   1  20
TORSDOF 8
ENDMDL
MODEL 2
REMARK VINA RESULT:      -7.1      4.246      7.205
REMARK  Name = 
REMARK  9 active torsions:
REMARK  status: ('A' for Active; 'I' for Inactive)
REMARK    1  A    between atoms: C_1  and  C_2
REMARK    2  A    between atoms: C_5  and  N_6
REMARK    3  A    between atoms: N_9  and  C_10
REMARK    4  A    between atoms: C_10  and  C_11
REMARK    5  A    between atoms: C_11  and  O_12
REMARK    6  A    between atoms: O_12  and  C_13
REMARK    7  A    between atoms: C_13  and  C_14
REMARK    8  A    between atoms: C_13  and  C_20
REMARK    9  A    between atoms: C_14  and  C_15
REMARK                            x       y       z     vdW  Elec       q    Type
REMARK                         _______ _______ _______ _____ _____    ______ ____
ROOT
ATOM      1  C   UNL     1       3.171   6.161  18.000  0.00  0.00    +0.000 C 
ENDROOT
BRANCH   1   2
ATOM      2  C   UNL     1       4.694   6.075  18.106  0.00  0.00    +0.000 A 
ATOM      3  C   UNL     1       5.329   5.351  19.129  0.00  0.00    +0.000 A 
ATOM      4  C   UNL     1       6.722   5.307  19.221  0.00  0.00    +0.000 A 
ATOM      5  C   UNL     1       7.505   5.983  18.289  0.00  0.00    +0.000 A 
ATOM      6  C   UNL     1       6.897   6.695  17.260  0.00  0.00    +0.000 A 
ATOM      7  C   UNL     1       5.504   6.735  17.164  0.00  0.00    +0.000 A 
ENDBRANCH   1   2
BRANCH   1   8
ATOM      8  O   UNL     1       2.632   4.884  17.619  0.00  0.00    +0.000 OA
BRANCH   8   9
ATOM      9  C   UNL     1       1.472   4.418  18.302  0.00  0.00    +0.000 C 
BRANCH   9  10
ATOM     10  C   UNL     1       1.516   2.930  18.660  0.00  0.00    +0.000 C 
BRANCH  10  16
ATOM     11  C   UNL     1       4.133   1.860  17.322  0.00  0.00    +0.000 C 
ATOM     12  C   UNL     1       3.887   2.050  18.774  0.00  0.00    +0.000 A 
ATOM     13  N   UNL     1       4.784   1.772  19.707  0.00  0.00    +0.000 NA
ATOM     14  C   UNL     1       4.250   2.180  20.900  0.00  0.00    +0.000 A 
ATOM     15  C   UNL     1       3.000   2.694  20.686  0.00  0.00    +0.000 A 
ATOM     16  N   UNL     1       2.735   2.562  19.348  0.00  0.00    +0.000 N 
BRANCH  15  17
ATOM     17  N   UNL     1       2.130   3.282  21.627  0.00  0.00    +0.000 N 
ATOM     18  O   UNL     1       1.404   2.511  22.264  0.00  0.00    +0.000 OA
ATOM     19  O   UNL     1       2.185   4.512  21.742  0.00  0.00    +0.000 OA
ENDBRANCH  15  17
ENDBRANCH  10  16
ENDBRANCH   9  10
ENDBRANCH   8   9
ENDBRANCH   1   8
BRANCH   1  20
ATOM     20  C   UNL     1       2.515   6.767  19.266  0.00  0.00    +0.000 C 
BRANCH  20  21
ATOM     21  C   UNL     1       1.953   8.155  19.098  0.00  0.00    +0.000 A 
ATOM     22  C   UNL     1       1.984   9.002  18.005  0.00  0.00    +0.000 A 
ATOM     23  C   UNL     1       1.219  10.186  18.215  0.00  0.00    +0.000 A 
ATOM     24  C   UNL     1       0.678  10.232  19.478  0.00  0.00    +0.000 A 
ATOM     25  S   UNL     1       1.129   8.881  20.419  0.00  0.00    +0.000 S 
ENDBRANCH  20  21
ENDBRANCH   1  20
TORSDOF 8
ENDMDL
MODEL 3
REMARK VINA RESULT:      -7.1      4.176      7.243
REMARK  Name = 
REMARK  9 active torsions:
REMARK  status: ('A' for Active; 'I' for Inactive)
REMARK    1  A    between atoms: C_1  and  C_2
REMARK    2  A    between atoms: C_5  and  N_6
REMARK    3  A    between atoms: N_9  and  C_10
REMARK    4  A    between atoms: C_10  and  C_11
REMARK    5  A    between atoms: C_11  and  O_12
REMARK    6  A    between atoms: O_12  and  C_13
REMARK    7  A    between atoms: C_13  and  C_14
REMARK    8  A    between atoms: C_13  and  C_20
REMARK    9  A    between atoms: C_14  and  C_15
REMARK                            x       y       z     vdW  Elec       q    Type
REMARK                         _______ _______ _______ _____ _____    ______ ____
ROOT
ATOM      1  C   UNL     1       3.300   5.590  17.721  0.00  0.00    +0.000 C 
ENDROOT
BRANCH   1   2
ATOM      2  C   UNL     1       4.742   5.210  17.387  0.00  0.00    +0.000 A 
ATOM      3  C   UNL     1       5.118   4.770  16.107  0.00  0.00    +0.000 A 
ATOM      4  C   UNL     1       6.438   4.403  15.831  0.00  0.00    +0.000 A 
ATOM      5  C   UNL     1       7.405   4.473  16.830  0.00  0.00    +0.000 A 
ATOM      6  C   UNL     1       7.056   4.918  18.101  0.00  0.00    +0.000 A 
ATOM      7  C   UNL     1       5.739   5.290  18.377  0.00  0.00    +0.000 A 
ENDBRANCH   1   2
BRANCH   1   8
ATOM      8  O   UNL     1       2.414   4.512  17.371  0.00  0.00    +0.000 OA
BRANCH   8   9
ATOM      9  C   UNL     1       1.403   4.148  18.307  0.00  0.00    +0.000 C 
BRANCH   9  10
ATOM     10  C   UNL     1       1.480   2.691  18.770  0.00  0.00    +0.000 C 
BRANCH  10  16
ATOM     11  C   UNL     1       4.091   1.554  17.476  0.00  0.00    +0.000 C 
ATOM     12  C   UNL     1       3.865   1.854  18.913  0.00  0.00    +0.000 A 
ATOM     13  N   UNL     1       4.781   1.663  19.850  0.00  0.00    +0.000 NA
ATOM     14  C   UNL     1       4.259   2.157  21.016  0.00  0.00    +0.000 A 
ATOM     15  C   UNL     1       2.999   2.635  20.783  0.00  0.00    +0.000 A 
ATOM     16  N   UNL     1       2.714   2.394  19.464  0.00  0.00    +0.000 N 
BRANCH  15  17
ATOM     17  N   UNL     1       2.135   3.284  21.690  0.00  0.00    +0.000 N 
ATOM     18  O   UNL     1       1.375   2.559  22.342  0.00  0.00    +0.000 OA
ATOM     19  O   UNL     1       2.229   4.514  21.763  0.00  0.00    +0.000 OA
ENDBRANCH  15  17
ENDBRANCH  10  16
ENDBRANCH   9  10
ENDBRANCH   8   9
ENDBRANCH   1   8
BRANCH   1  20
ATOM     20  C   UNL     1       3.132   6.092  19.177  0.00  0.00    +0.000 C 
BRANCH  20  21
ATOM     21  C   UNL     1       2.307   7.344  19.335  0.00  0.00    +0.000 A 
ATOM     22  C   UNL     1       1.648   7.841  20.443  0.00  0.00    +0.000 A 
ATOM     23  C   UNL     1       1.085   9.128  20.206  0.00  0.00    +0.000 A 
ATOM     24  C   UNL     1       1.281   9.546  18.911  0.00  0.00    +0.000 A 
ATOM     25  S   UNL     1       2.097   8.373  17.977  0.00  0.00    +0.000 S 
ENDBRANCH  20  21
ENDBRANCH   1  20
TORSDOF 8
ENDMDL
MODEL 4
REMARK VINA RESULT:      -7.0      4.116      6.553
REMARK  Name = 
REMARK  9 active torsions:
REMARK  status: ('A' for Active; 'I' for Inactive)
REMARK    1  A    between atoms: C_1  and  C_2
REMARK    2  A    between atoms: C_5  and  N_6
REMARK    3  A    between atoms: N_9  and  C_10
REMARK    4  A    between atoms: C_10  and  C_11
REMARK    5  A    between atoms: C_11  and  O_12
REMARK    6  A    between atoms: O_12  and  C_13
REMARK    7  A    between atoms: C_13  and  C_14
REMARK    8  A    between atoms: C_13  and  C_20
REMARK    9  A    between atoms: C_14  and  C_15
REMARK                            x       y       z     vdW  Elec       q    Type
REMARK                         _______ _______ _______ _____ _____    ______ ____
ROOT
ATOM      1  C   UNL     1       3.043   5.472  18.170  0.00  0.00    +0.000 C 
ENDROOT
BRANCH   1   2
ATOM      2  C   UNL     1       2.470   6.840  18.538  0.00  0.00    +0.000 A 
ATOM      3  C   UNL     1       2.119   7.169  19.858  0.00  0.00    +0.000 A 
ATOM      4  C   UNL     1       1.573   8.417  20.169  0.00  0.00    +0.000 A 
ATOM      5  C   UNL     1       1.372   9.360  19.164  0.00  0.00    +0.000 A 
ATOM      6  C   UNL     1       1.725   9.060  17.852  0.00  0.00    +0.000 A 
ATOM      7  C   UNL     1       2.276   7.814  17.542  0.00  0.00    +0.000 A 
ENDBRANCH   1   2
BRANCH   1   8
ATOM      8  O   UNL     1       2.006   4.634  17.633  0.00  0.00    +0.000 OA
BRANCH   8   9
ATOM      9  C   UNL     1       1.079   4.051  18.546  0.00  0.00    +0.000 C 
BRANCH   9  10
ATOM     10  C   UNL     1       1.343   2.573  18.843  0.00  0.00    +0.000 C 
BRANCH  10  16
ATOM     11  C   UNL     1       3.917   1.629  17.338  0.00  0.00    +0.000 C 
ATOM     12  C   UNL     1       3.782   1.895  18.792  0.00  0.00    +0.000 A 
ATOM     13  N   UNL     1       4.776   1.754  19.655  0.00  0.00    +0.000 NA
ATOM     14  C   UNL     1       4.313   2.197  20.865  0.00  0.00    +0.000 A 
ATOM     15  C   UNL     1       3.010   2.593  20.736  0.00  0.00    +0.000 A 
ATOM     16  N   UNL     1       2.643   2.350  19.437  0.00  0.00    +0.000 N 
BRANCH  15  17
ATOM     17  N   UNL     1       2.177   3.172  21.715  0.00  0.00    +0.000 N 
ATOM     18  O   UNL     1       2.263   4.396  21.858  0.00  0.00    +0.000 OA
ATOM     19  O   UNL     1       1.424   2.406  22.328  0.00  0.00    +0.000 OA
ENDBRANCH  15  17
ENDBRANCH  10  16
ENDBRANCH   9  10
ENDBRANCH   8   9
ENDBRANCH   1   8
BRANCH   1  20
ATOM     20  C   UNL     1       4.300   5.569  17.269  0.00  0.00    +0.000 C 
BRANCH  20  21
ATOM     21  C   UNL     1       5.597   5.810  17.998  0.00  0.00    +0.000 A 
ATOM     22  C   UNL     1       6.068   5.267  19.178  0.00  0.00    +0.000 A 
ATOM     23  C   UNL     1       7.407   5.664  19.461  0.00  0.00    +0.000 A 
ATOM     24  C   UNL     1       7.894   6.541  18.520  0.00  0.00    +0.000 A 
ATOM     25  S   UNL     1       6.728   6.918  17.332  0.00  0.00    +0.000 S 
ENDBRANCH  20  21
ENDBRANCH   1  20
TORSDOF 8
ENDMDL
MODEL 5
REMARK VINA RESULT:      -7.0      4.289      7.207
REMARK  Name = 
REMARK  9 active torsions:
REMARK  status: ('A' for Active; 'I' for Inactive)
REMARK    1  A    between atoms: C_1  and  C_2
REMARK    2  A    between atoms: C_5  and  N_6
REMARK    3  A    between atoms: N_9  and  C_10
REMARK    4  A    between atoms: C_10  and  C_11
REMARK    5  A    between atoms: C_11  and  O_12
REMARK    6  A    between atoms: O_12  and  C_13
REMARK    7  A    between atoms: C_13  and  C_14
REMARK    8  A    between atoms: C_13  and  C_20
REMARK    9  A    between atoms: C_14  and  C_15
REMARK                            x       y       z     vdW  Elec       q    Type
REMARK                         _______ _______ _______ _____ _____    ______ ____
ROOT
ATOM      1  C   UNL     1       3.265   5.944  17.929  0.00  0.00    +0.000 C 
ENDROOT
BRANCH   1   2
ATOM      2  C   UNL     1       4.780   6.051  18.103  0.00  0.00    +0.000 A 
ATOM      3  C   UNL     1       5.574   6.829  17.245  0.00  0.00    +0.000 A 
ATOM      4  C   UNL     1       6.960   6.892  17.406  0.00  0.00    +0.000 A 
ATOM      5  C   UNL     1       7.576   6.179  18.431  0.00  0.00    +0.000 A 
ATOM      6  C   UNL     1       6.807   5.411  19.299  0.00  0.00    +0.000 A 
ATOM      7  C   UNL     1       5.421   5.353  19.143  0.00  0.00    +0.000 A 
ENDBRANCH   1   2
BRANCH   1   8
ATOM      8  O   UNL     1       2.900   4.588  17.620  0.00  0.00    +0.000 OA
BRANCH   8   9
ATOM      9  C   UNL     1       1.566   4.174  17.905  0.00  0.00    +0.000 C 
BRANCH   9  10
ATOM     10  C   UNL     1       1.475   2.841  18.652  0.00  0.00    +0.000 C 
BRANCH  10  16
ATOM     11  C   UNL     1       4.070   1.684  17.343  0.00  0.00    +0.000 C 
ATOM     12  C   UNL     1       3.845   1.959  18.784  0.00  0.00    +0.000 A 
ATOM     13  N   UNL     1       4.754   1.733  19.720  0.00  0.00    +0.000 NA
ATOM     14  C   UNL     1       4.238   2.212  20.894  0.00  0.00    +0.000 A 
ATOM     15  C   UNL     1       2.987   2.717  20.668  0.00  0.00    +0.000 A 
ATOM     16  N   UNL     1       2.702   2.508  19.343  0.00  0.00    +0.000 N 
BRANCH  15  17
ATOM     17  N   UNL     1       2.132   3.363  21.585  0.00  0.00    +0.000 N 
ATOM     18  O   UNL     1       2.203   4.596  21.629  0.00  0.00    +0.000 OA
ATOM     19  O   UNL     1       1.379   2.641  22.247  0.00  0.00    +0.000 OA
ENDBRANCH  15  17
ENDBRANCH  10  16
ENDBRANCH   9  10
ENDBRANCH   8   9
ENDBRANCH   1   8
BRANCH   1  20
ATOM     20  C   UNL     1       2.480   6.550  19.120  0.00  0.00    +0.000 C 
BRANCH  20  21
ATOM     21  C   UNL     1       2.086   7.996  18.961  0.00  0.00    +0.000 A 
ATOM     22  C   UNL     1       2.269   8.856  17.895  0.00  0.00    +0.000 A 
ATOM     23  C   UNL     1       1.631  10.115  18.098  0.00  0.00    +0.000 A 
ATOM     24  C   UNL     1       1.033  10.195  19.334  0.00  0.00    +0.000 A 
ATOM     25  S   UNL     1       1.280   8.782  20.259  0.00  0.00    +0.000 S 
ENDBRANCH  20  21
ENDBRANCH   1  20
TORSDOF 8
ENDMDL
MODEL 6
REMARK VINA RESULT:      -7.0      3.743      6.308
REMARK  Name = 
REMARK  9 active torsions:
REMARK  status: ('A' for Active; 'I' for Inactive)
REMARK    1  A    between atoms: C_1  and  C_2
REMARK    2  A    between atoms: C_5  and  N_6
REMARK    3  A    between atoms: N_9  and  C_10
REMARK    4  A    between atoms: C_10  and  C_11
REMARK    5  A    between atoms: C_11  and  O_12
REMARK    6  A    between atoms: O_12  and  C_13
REMARK    7  A    between atoms: C_13  and  C_14
REMARK    8  A    between atoms: C_13  and  C_20
REMARK    9  A    between atoms: C_14  and  C_15
REMARK                            x       y       z     vdW  Elec       q    Type
REMARK                         _______ _______ _______ _____ _____    ______ ____
ROOT
ATOM      1  C   UNL     1       3.329   6.562  18.280  0.00  0.00    +0.000 C 
ENDROOT
BRANCH   1   2
ATOM      2  C   UNL     1       2.362   7.672  18.693  0.00  0.00    +0.000 A 
ATOM      3  C   UNL     1       1.861   8.604  17.769  0.00  0.00    +0.000 A 
ATOM      4  C   UNL     1       0.998   9.626  18.174  0.00  0.00    +0.000 A 
ATOM      5  C   UNL     1       0.618   9.731  19.509  0.00  0.00    +0.000 A 
ATOM      6  C   UNL     1       1.093   8.810  20.438  0.00  0.00    +0.000 A 
ATOM      7  C   UNL     1       1.951   7.785  20.034  0.00  0.00    +0.000 A 
ENDBRANCH   1   2
BRANCH   1   8
ATOM      8  O   UNL     1       2.600   5.462  17.711  0.00  0.00    +0.000 OA
BRANCH   8   9
ATOM      9  C   UNL     1       1.513   4.922  18.459  0.00  0.00    +0.000 C 
BRANCH   9  10
ATOM     10  C   UNL     1       1.531   3.396  18.570  0.00  0.00    +0.000 C 
BRANCH  10  16
ATOM     11  C   UNL     1       4.103   2.370  17.114  0.00  0.00    +0.000 C 
ATOM     12  C   UNL     1       3.862   2.407  18.579  0.00  0.00    +0.000 A 
ATOM     13  N   UNL     1       4.744   1.989  19.473  0.00  0.00    +0.000 NA
ATOM     14  C   UNL     1       4.225   2.284  20.705  0.00  0.00    +0.000 A 
ATOM     15  C   UNL     1       2.999   2.871  20.553  0.00  0.00    +0.000 A 
ATOM     16  N   UNL     1       2.731   2.901  19.209  0.00  0.00    +0.000 N 
BRANCH  15  17
ATOM     17  N   UNL     1       2.153   3.388  21.556  0.00  0.00    +0.000 N 
ATOM     18  O   UNL     1       2.193   4.610  21.735  0.00  0.00    +0.000 OA
ATOM     19  O   UNL     1       1.436   2.576  22.152  0.00  0.00    +0.000 OA
ENDBRANCH  15  17
ENDBRANCH  10  16
ENDBRANCH   9  10
ENDBRANCH   8   9
ENDBRANCH   1   8
BRANCH   1  20
ATOM     20  C   UNL     1       4.488   7.076  17.389  0.00  0.00    +0.000 C 
BRANCH  20  21
ATOM     21  C   UNL     1       5.424   6.013  16.875  0.00  0.00    +0.000 A 
ATOM     22  C   UNL     1       5.556   5.480  15.607  0.00  0.00    +0.000 A 
ATOM     23  C   UNL     1       6.656   4.579  15.509  0.00  0.00    +0.000 A 
ATOM     24  C   UNL     1       7.290   4.408  16.717  0.00  0.00    +0.000 A 
ATOM     25  S   UNL     1       6.536   5.291  17.968  0.00  0.00    +0.000 S 
ENDBRANCH  20  21
ENDBRANCH   1  20
TORSDOF 8
ENDMDL
MODEL 7
REMARK VINA RESULT:      -7.0      4.091      6.587
REMARK  Name = 
REMARK  9 active torsions:
REMARK  status: ('A' for Active; 'I' for Inactive)
REMARK    1  A    between atoms: C_1  and  C_2
REMARK    2  A    between atoms: C_5  and  N_6
REMARK    3  A    between atoms: N_9  and  C_10
REMARK    4  A    between atoms: C_10  and  C_11
REMARK    5  A    between atoms: C_11  and  O_12
REMARK    6  A    between atoms: O_12  and  C_13
REMARK    7  A    between atoms: C_13  and  C_14
REMARK    8  A    between atoms: C_13  and  C_20
REMARK    9  A    between atoms: C_14  and  C_15
REMARK                            x       y       z     vdW  Elec       q    Type
REMARK                         _______ _______ _______ _____ _____    ______ ____
ROOT
ATOM      1  C   UNL     1       3.087   5.563  18.131  0.00  0.00    +0.000 C 
ENDROOT
BRANCH   1   2
ATOM      2  C   UNL     1       2.491   6.919  18.508  0.00  0.00    +0.000 A 
ATOM      3  C   UNL     1       2.310   7.942  17.562  0.00  0.00    +0.000 A 
ATOM      4  C   UNL     1       1.787   9.183  17.934  0.00  0.00    +0.000 A 
ATOM      5  C   UNL     1       1.432   9.421  19.259  0.00  0.00    +0.000 A 
ATOM      6  C   UNL     1       1.590   8.418  20.210  0.00  0.00    +0.000 A 
ATOM      7  C   UNL     1       2.107   7.175  19.837  0.00  0.00    +0.000 A 
ENDBRANCH   1   2
BRANCH   1   8
ATOM      8  O   UNL     1       2.061   4.707  17.600  0.00  0.00    +0.000 OA
BRANCH   8   9
ATOM      9  C   UNL     1       1.136   4.126  18.515  0.00  0.00    +0.000 C 
BRANCH   9  10
ATOM     10  C   UNL     1       1.389   2.643  18.800  0.00  0.00    +0.000 C 
BRANCH  10  16
ATOM     11  C   UNL     1       4.007   1.715  17.360  0.00  0.00    +0.000 C 
ATOM     12  C   UNL     1       3.828   1.963  18.813  0.00  0.00    +0.000 A 
ATOM     13  N   UNL     1       4.796   1.809  19.703  0.00  0.00    +0.000 NA
ATOM     14  C   UNL     1       4.298   2.237  20.904  0.00  0.00    +0.000 A 
ATOM     15  C   UNL     1       2.999   2.636  20.742  0.00  0.00    +0.000 A 
ATOM     16  N   UNL     1       2.671   2.411  19.430  0.00  0.00    +0.000 N 
BRANCH  15  17
ATOM     17  N   UNL     1       2.138   3.204  21.703  0.00  0.00    +0.000 N 
ATOM     18  O   UNL     1       1.431   2.416  22.343  0.00  0.00    +0.000 OA
ATOM     19  O   UNL     1       2.180   4.432  21.831  0.00  0.00    +0.000 OA
ENDBRANCH  15  17
ENDBRANCH  10  16
ENDBRANCH   9  10
ENDBRANCH   8   9
ENDBRANCH   1   8
BRANCH   1  20
ATOM     20  C   UNL     1       4.335   5.688  17.221  0.00  0.00    +0.000 C 
BRANCH  20  21
ATOM     21  C   UNL     1       5.639   5.908  17.944  0.00  0.00    +0.000 A 
ATOM     22  C   UNL     1       6.152   5.281  19.063  0.00  0.00    +0.000 A 
ATOM     23  C   UNL     1       7.484   5.697  19.354  0.00  0.00    +0.000 A 
ATOM     24  C   UNL     1       7.921   6.668  18.485  0.00  0.00    +0.000 A 
ATOM     25  S   UNL     1       6.718   7.108  17.357  0.00  0.00    +0.000 S 
ENDBRANCH  20  21
ENDBRANCH   1  20
TORSDOF 8
ENDMDL
MODEL 8
REMARK VINA RESULT:      -6.9      1.097      1.331
REMARK  Name = 
REMARK  9 active torsions:
REMARK  status: ('A' for Active; 'I' for Inactive)
REMARK    1  A    between atoms: C_1  and  C_2
REMARK    2  A    between atoms: C_5  and  N_6
REMARK    3  A    between atoms: N_9  and  C_10
REMARK    4  A    between atoms: C_10  and  C_11
REMARK    5  A    between atoms: C_11  and  O_12
REMARK    6  A    between atoms: O_12  and  C_13
REMARK    7  A    between atoms: C_13  and  C_14
REMARK    8  A    between atoms: C_13  and  C_20
REMARK    9  A    between atoms: C_14  and  C_15
REMARK                            x       y       z     vdW  Elec       q    Type
REMARK                         _______ _______ _______ _____ _____    ______ ____
ROOT
ATOM      1  C   UNL     1       2.636   6.052  18.067  0.00  0.00    +0.000 C 
ENDROOT
BRANCH   1   2
ATOM      2  C   UNL     1       2.161   4.992  19.061  0.00  0.00    +0.000 A 
ATOM      3  C   UNL     1       2.498   5.047  20.424  0.00  0.00    +0.000 A 
ATOM      4  C   UNL     1       2.075   4.054  21.310  0.00  0.00    +0.000 A 
ATOM      5  C   UNL     1       1.304   2.990  20.850  0.00  0.00    +0.000 A 
ATOM      6  C   UNL     1       0.949   2.923  19.507  0.00  0.00    +0.000 A 
ATOM      7  C   UNL     1       1.366   3.919  18.621  0.00  0.00    +0.000 A 
ENDBRANCH   1   2
BRANCH   1   8
ATOM      8  O   UNL     1       2.971   7.264  18.764  0.00  0.00    +0.000 OA
BRANCH   8   9
ATOM      9  C   UNL     1       2.643   8.504  18.142  0.00  0.00    +0.000 C 
BRANCH   9  10
ATOM     10  C   UNL     1       1.211   8.974  18.408  0.00  0.00    +0.000 C 
BRANCH  10  16
ATOM     11  C   UNL     1       0.962   8.008  21.372  0.00  0.00    +0.000 C 
ATOM     12  C   UNL     1       0.963   9.412  20.889  0.00  0.00    +0.000 A 
ATOM     13  N   UNL     1       0.851  10.459  21.691  0.00  0.00    +0.000 NA
ATOM     14  C   UNL     1       1.009  11.572  20.910  0.00  0.00    +0.000 A 
ATOM     15  C   UNL     1       1.200  11.192  19.610  0.00  0.00    +0.000 A 
ATOM     16  N   UNL     1       1.113   9.824  19.574  0.00  0.00    +0.000 N 
BRANCH  15  17
ATOM     17  N   UNL     1       1.466  12.012  18.495  0.00  0.00    +0.000 N 
ATOM     18  O   UNL     1       2.611  11.956  18.030  0.00  0.00    +0.000 OA
ATOM     19  O   UNL     1       0.529  12.699  18.073  0.00  0.00    +0.000 OA
ENDBRANCH  15  17
ENDBRANCH  10  16
ENDBRANCH   9  10
ENDBRANCH   8   9
ENDBRANCH   1   8
BRANCH   1  20
ATOM     20  C   UNL     1       3.756   5.537  17.128  0.00  0.00    +0.000 C 
BRANCH  20  21
ATOM     21  C   UNL     1       5.161   5.865  17.563  0.00  0.00    +0.000 A 
ATOM     22  C   UNL     1       6.033   6.832  17.100  0.00  0.00    +0.000 A 
ATOM     23  C   UNL     1       7.230   6.897  17.871  0.00  0.00    +0.000 A 
ATOM     24  C   UNL     1       7.258   5.941  18.858  0.00  0.00    +0.000 A 
ATOM     25  S   UNL     1       5.873   4.944  18.825  0.00  0.00    +0.000 S 
ENDBRANCH  20  21
ENDBRANCH   1  20
TORSDOF 8
ENDMDL
MODEL 9
REMARK VINA RESULT:      -6.9      0.675      1.422
REMARK  Name = 
REMARK  9 active torsions:
REMARK  status: ('A' for Active; 'I' for Inactive)
REMARK    1  A    between atoms: C_1  and  C_2
REMARK    2  A    between atoms: C_5  and  N_6
REMARK    3  A    between atoms: N_9  and  C_10
REMARK    4  A    between atoms: C_10  and  C_11
REMARK    5  A    between atoms: C_11  and  O_12
REMARK    6  A    between atoms: O_12  and  C_13
REMARK    7  A    between atoms: C_13  and  C_14
REMARK    8  A    between atoms: C_13  and  C_20
REMARK    9  A    between atoms: C_14  and  C_15
REMARK                            x       y       z     vdW  Elec       q    Type
REMARK                         _______ _______ _______ _____ _____    ______ ____
ROOT
ATOM      1  C   UNL     1       3.054   6.416  18.355  0.00  0.00    +0.000 C 
ENDROOT
BRANCH   1   2
ATOM      2  C   UNL     1       2.282   5.184  18.829  0.00  0.00    +0.000 A 
ATOM      3  C   UNL     1       1.933   4.143  17.953  0.00  0.00    +0.000 A 
ATOM      4  C   UNL     1       1.205   3.038  18.402  0.00  0.00    +0.000 A 
ATOM      5  C   UNL     1       0.817   2.954  19.736  0.00  0.00    +0.000 A 
ATOM      6  C   UNL     1       1.163   3.968  20.623  0.00  0.00    +0.000 A 
ATOM      7  C   UNL     1       1.896   5.070  20.177  0.00  0.00    +0.000 A 
ENDBRANCH   1   2
BRANCH   1   8
ATOM      8  O   UNL     1       2.498   7.601  18.949  0.00  0.00    +0.000 OA
BRANCH   8   9
ATOM      9  C   UNL     1       2.259   8.723  18.103  0.00  0.00    +0.000 C 
BRANCH   9  10
ATOM     10  C   UNL     1       0.921   9.422  18.360  0.00  0.00    +0.000 C 
BRANCH  10  16
ATOM     11  C   UNL     1       0.498   8.490  21.315  0.00  0.00    +0.000 C 
ATOM     12  C   UNL     1       0.730   9.878  20.843  0.00  0.00    +0.000 A 
ATOM     13  N   UNL     1       0.783  10.925  21.652  0.00  0.00    +0.000 NA
ATOM     14  C   UNL     1       1.125  12.002  20.880  0.00  0.00    +0.000 A 
ATOM     15  C   UNL     1       1.260  11.604  19.578  0.00  0.00    +0.000 A 
ATOM     16  N   UNL     1       0.954  10.269  19.532  0.00  0.00    +0.000 N 
BRANCH  15  17
ATOM     17  N   UNL     1       1.664  12.378  18.471  0.00  0.00    +0.000 N 
ATOM     18  O   UNL     1       0.889  13.271  18.110  0.00  0.00    +0.000 OA
ATOM     19  O   UNL     1       2.762  12.106  17.972  0.00  0.00    +0.000 OA
ENDBRANCH  15  17
ENDBRANCH  10  16
ENDBRANCH   9  10
ENDBRANCH   8   9
ENDBRANCH   1   8
BRANCH   1  20
ATOM     20  C   UNL     1       4.585   6.276  18.546  0.00  0.00    +0.000 C 
BRANCH  20  21
ATOM     21  C   UNL     1       5.326   5.671  17.382  0.00  0.00    +0.000 A 
ATOM     22  C   UNL     1       6.162   4.572  17.334  0.00  0.00    +0.000 A 
ATOM     23  C   UNL     1       6.563   4.253  16.005  0.00  0.00    +0.000 A 
ATOM     24  C   UNL     1       6.069   5.153  15.089  0.00  0.00    +0.000 A 
ATOM     25  S   UNL     1       5.169   6.396  15.833  0.00  0.00    +0.000 S 
ENDBRANCH  20  21
ENDBRANCH   1  20
TORSDOF 8
ENDMDL
