MODEL 1
REMARK VINA RESULT:      -9.3      0.000      0.000
REMARK  Name = 
REMARK  7 active torsions:
REMARK  status: ('A' for Active; 'I' for Inactive)
REMARK    1  A    between atoms: C_2  and  O_3
REMARK    2  A    between atoms: C_2  and  C_4
REMARK    3  A    between atoms: C_9  and  N_10
REMARK    4  A    between atoms: N_10  and  C_11
REMARK    5  A    between atoms: C_15  and  O_16
REMARK    6  A    between atoms: O_16  and  C_17
REMARK    7  A    between atoms: C_17  and  C_18
REMARK                            x       y       z     vdW  Elec       q    Type
REMARK                         _______ _______ _______ _____ _____    ______ ____
ROOT
ATOM      1  C   UNL     1       3.822   4.506  17.251  0.00  0.00    +0.000 A 
ATOM      2  C   UNL     1       4.766   4.460  16.224  0.00  0.00    +0.000 A 
ATOM      3  C   UNL     1       5.319   5.645  15.729  0.00  0.00    +0.000 A 
ATOM      4  C   UNL     1       4.947   6.880  16.275  0.00  0.00    +0.000 A 
ATOM      5  C   UNL     1       3.992   6.944  17.290  0.00  0.00    +0.000 A 
ATOM      6  C   UNL     1       3.377   5.762  17.692  0.00  0.00    +0.000 A 
ENDROOT
BRANCH   1   7
ATOM      7  N   UNL     1       3.273   3.295  17.759  0.00  0.00    +0.000 N 
ATOM      8  H   UNL     1       2.697   2.889  17.011  0.00  0.00    +0.000 HD
BRANCH   7  14
ATOM      9  C   UNL     1       3.329   2.647  20.155  0.00  0.00    +0.000 A 
ATOM     10  C   UNL     1       2.648   2.419  21.367  0.00  0.00    +0.000 A 
ATOM     11  C   UNL     1       1.285   2.706  21.485  0.00  0.00    +0.000 A 
ATOM     12  C   UNL     1       0.616   3.284  20.417  0.00  0.00    +0.000 A 
ATOM     13  C   UNL     1       1.294   3.534  19.224  0.00  0.00    +0.000 A 
ATOM     14  C   UNL     1       2.627   3.118  19.026  0.00  0.00    +0.000 A 
BRANCH   9  16
ATOM     15  O   UNL     1       5.291   1.450  20.775  0.00  0.00    +0.000 OA
ATOM     16  C   UNL     1       4.783   2.373  20.160  0.00  0.00    +0.000 C 
BRANCH  16  17
ATOM     17  O   UNL     1       5.508   3.274  19.457  0.00  0.00    +0.000 OA
ATOM     18  H   UNL     1       5.718   4.088  19.965  0.00  0.00    +0.000 HD
ENDBRANCH  16  17
ENDBRANCH   9  16
ENDBRANCH   7  14
ENDBRANCH   1   7
BRANCH   5  19
ATOM     19  O   UNL     1       3.682   8.181  17.802  0.00  0.00    +0.000 OA
BRANCH  19  20
ATOM     20  C   UNL     1       2.300   8.588  17.680  0.00  0.00    +0.000 C 
BRANCH  20  21
ATOM     21  C   UNL     1       1.586   8.716  19.024  0.00  0.00    +0.000 A 
ATOM     22  C   UNL     1       1.872   7.838  20.057  0.00  0.00    +0.000 A 
ATOM     23  C   UNL     1       1.236   8.008  21.280  0.00  0.00    +0.000 A 
ATOM     24  C   UNL     1       0.412   9.111  21.493  0.00  0.00    +0.000 A 
ATOM     25  C   UNL     1      -0.154   9.344  22.758  0.00  0.00    +0.000 A 
ATOM     26  C   UNL     1      -0.841  10.526  23.015  0.00  0.00    +0.000 A 
ATOM     27  C   UNL     1      -1.006  11.449  21.990  0.00  0.00    +0.000 A 
ATOM     28  C   UNL     1      -0.506  11.175  20.709  0.00  0.00    +0.000 A 
ATOM     29  C   UNL     1       0.221  10.016  20.430  0.00  0.00    +0.000 A 
ATOM     30  N   UNL     1       0.766   9.798  19.204  0.00  0.00    +0.000 NA
ENDBRANCH  20  21
ENDBRANCH  19  20
ENDBRANCH   5  19
TORSDOF 7
ENDMDL
MODEL 2
REMARK VINA RESULT:      -9.0      2.568      7.173
REMARK  Name = 
REMARK  7 active torsions:
REMARK  status: ('A' for Active; 'I' for Inactive)
REMARK    1  A    between atoms: C_2  and  O_3
REMARK    2  A    between atoms: C_2  and  C_4
REMARK    3  A    between atoms: C_9  and  N_10
REMARK    4  A    between atoms: N_10  and  C_11
REMARK    5  A    between atoms: C_15  and  O_16
REMARK    6  A    between atoms: O_16  and  C_17
REMARK    7  A    between atoms: C_17  and  C_18
REMARK                            x       y       z     vdW  Elec       q    Type
REMARK                         _______ _______ _______ _____ _____    ______ ____
ROOT
ATOM      1  C   UNL     1       2.063   5.169  20.550  0.00  0.00    +0.000 A 
ATOM      2  C   UNL     1       2.026   4.231  21.583  0.00  0.00    +0.000 A 
ATOM      3  C   UNL     1       2.196   2.872  21.300  0.00  0.00    +0.000 A 
ATOM      4  C   UNL     1       2.428   2.449  19.984  0.00  0.00    +0.000 A 
ATOM      5  C   UNL     1       2.452   3.372  18.940  0.00  0.00    +0.000 A 
ATOM      6  C   UNL     1       2.173   4.705  19.231  0.00  0.00    +0.000 A 
ENDROOT
BRANCH   1   7
ATOM      7  N   UNL     1       1.902   6.552  20.848  0.00  0.00    +0.000 N 
ATOM      8  H   UNL     1       1.119   6.627  21.511  0.00  0.00    +0.000 HD
BRANCH   7  14
ATOM      9  C   UNL     1       1.185   8.837  20.195  0.00  0.00    +0.000 A 
ATOM     10  C   UNL     1       1.091   9.846  19.217  0.00  0.00    +0.000 A 
ATOM     11  C   UNL     1       1.697   9.688  17.967  0.00  0.00    +0.000 A 
ATOM     12  C   UNL     1       2.454   8.554  17.716  0.00  0.00    +0.000 A 
ATOM     13  C   UNL     1       2.569   7.565  18.692  0.00  0.00    +0.000 A 
ATOM     14  C   UNL     1       1.848   7.626  19.902  0.00  0.00    +0.000 A 
BRANCH   9  16
ATOM     15  O   UNL     1       0.991   9.985  22.272  0.00  0.00    +0.000 OA
ATOM     16  C   UNL     1       0.566   9.135  21.505  0.00  0.00    +0.000 C 
BRANCH  16  17
ATOM     17  O   UNL     1      -0.489   8.342  21.801  0.00  0.00    +0.000 OA
ATOM     18  H   UNL     1      -1.120   8.237  21.055  0.00  0.00    +0.000 HD
ENDBRANCH  16  17
ENDBRANCH   9  16
ENDBRANCH   7  14
ENDBRANCH   1   7
BRANCH   5  19
ATOM     19  O   UNL     1       2.705   2.902  17.674  0.00  0.00    +0.000 OA
BRANCH  19  20
ATOM     20  C   UNL     1       4.095   2.656  17.357  0.00  0.00    +0.000 C 
BRANCH  20  21
ATOM     21  C   UNL     1       4.916   3.935  17.201  0.00  0.00    +0.000 A 
ATOM     22  C   UNL     1       4.508   4.926  16.322  0.00  0.00    +0.000 A 
ATOM     23  C   UNL     1       5.254   6.094  16.234  0.00  0.00    +0.000 A 
ATOM     24  C   UNL     1       6.327   6.306  17.097  0.00  0.00    +0.000 A 
ATOM     25  C   UNL     1       7.024   7.527  17.082  0.00  0.00    +0.000 A 
ATOM     26  C   UNL     1       7.986   7.800  18.049  0.00  0.00    +0.000 A 
ATOM     27  C   UNL     1       8.287   6.832  18.997  0.00  0.00    +0.000 A 
ATOM     28  C   UNL     1       7.644   5.585  18.958  0.00  0.00    +0.000 A 
ATOM     29  C   UNL     1       6.646   5.295  18.025  0.00  0.00    +0.000 A 
ATOM     30  N   UNL     1       5.978   4.113  18.047  0.00  0.00    +0.000 NA
ENDBRANCH  20  21
ENDBRANCH  19  20
ENDBRANCH   5  19
TORSDOF 7
ENDMDL
MODEL 3
REMARK VINA RESULT:      -8.8      2.155      4.447
REMARK  Name = 
REMARK  7 active torsions:
REMARK  status: ('A' for Active; 'I' for Inactive)
REMARK    1  A    between atoms: C_2  and  O_3
REMARK    2  A    between atoms: C_2  and  C_4
REMARK    3  A    between atoms: C_9  and  N_10
REMARK    4  A    between atoms: N_10  and  C_11
REMARK    5  A    between atoms: C_15  and  O_16
REMARK    6  A    between atoms: O_16  and  C_17
REMARK    7  A    between atoms: C_17  and  C_18
REMARK                            x       y       z     vdW  Elec       q    Type
REMARK                         _______ _______ _______ _____ _____    ______ ____
ROOT
ATOM      1  C   UNL     1       4.098   3.640  19.759  0.00  0.00    +0.000 A 
ATOM      2  C   UNL     1       3.602   2.536  20.455  0.00  0.00    +0.000 A 
ATOM      3  C   UNL     1       2.425   2.651  21.200  0.00  0.00    +0.000 A 
ATOM      4  C   UNL     1       1.726   3.865  21.234  0.00  0.00    +0.000 A 
ATOM      5  C   UNL     1       2.217   4.981  20.557  0.00  0.00    +0.000 A 
ATOM      6  C   UNL     1       3.445   4.873  19.911  0.00  0.00    +0.000 A 
ENDROOT
BRANCH   1   7
ATOM      7  N   UNL     1       5.290   3.513  18.992  0.00  0.00    +0.000 N 
ATOM      8  H   UNL     1       5.917   2.886  19.512  0.00  0.00    +0.000 HD
BRANCH   7  14
ATOM      9  C   UNL     1       5.894   4.930  17.045  0.00  0.00    +0.000 A 
ATOM     10  C   UNL     1       6.700   5.939  16.481  0.00  0.00    +0.000 A 
ATOM     11  C   UNL     1       7.616   6.644  17.268  0.00  0.00    +0.000 A 
ATOM     12  C   UNL     1       7.681   6.390  18.630  0.00  0.00    +0.000 A 
ATOM     13  C   UNL     1       6.866   5.409  19.194  0.00  0.00    +0.000 A 
ATOM     14  C   UNL     1       6.043   4.580  18.404  0.00  0.00    +0.000 A 
BRANCH   9  16
ATOM     15  O   UNL     1       3.886   3.759  16.529  0.00  0.00    +0.000 OA
ATOM     16  C   UNL     1       4.912   4.295  16.139  0.00  0.00    +0.000 C 
BRANCH  16  17
ATOM     17  O   UNL     1       5.279   4.317  14.837  0.00  0.00    +0.000 OA
ATOM     18  H   UNL     1       4.593   4.694  14.244  0.00  0.00    +0.000 HD
ENDBRANCH  16  17
ENDBRANCH   9  16
ENDBRANCH   7  14
ENDBRANCH   1   7
BRANCH   5  19
ATOM     19  O   UNL     1       1.478   6.138  20.608  0.00  0.00    +0.000 OA
BRANCH  19  20
ATOM     20  C   UNL     1       2.143   7.335  20.141  0.00  0.00    +0.000 C 
BRANCH  20  21
ATOM     21  C   UNL     1       1.322   8.606  20.351  0.00  0.00    +0.000 A 
ATOM     22  C   UNL     1       0.959   9.392  19.269  0.00  0.00    +0.000 A 
ATOM     23  C   UNL     1       0.177  10.518  19.490  0.00  0.00    +0.000 A 
ATOM     24  C   UNL     1      -0.325  10.784  20.762  0.00  0.00    +0.000 A 
ATOM     25  C   UNL     1      -1.199  11.865  20.972  0.00  0.00    +0.000 A 
ATOM     26  C   UNL     1      -1.826  12.033  22.203  0.00  0.00    +0.000 A 
ATOM     27  C   UNL     1      -1.537  11.152  23.236  0.00  0.00    +0.000 A 
ATOM     28  C   UNL     1      -0.604  10.122  23.043  0.00  0.00    +0.000 A 
ATOM     29  C   UNL     1       0.012   9.903  21.809  0.00  0.00    +0.000 A 
ATOM     30  N   UNL     1       0.855   8.856  21.614  0.00  0.00    +0.000 NA
ENDBRANCH  20  21
ENDBRANCH  19  20
ENDBRANCH   5  19
TORSDOF 7
ENDMDL
MODEL 4
REMARK VINA RESULT:      -8.6      2.244      4.511
REMARK  Name = 
REMARK  7 active torsions:
REMARK  status: ('A' for Active; 'I' for Inactive)
REMARK    1  A    between atoms: C_2  and  O_3
REMARK    2  A    between atoms: C_2  and  C_4
REMARK    3  A    between atoms: C_9  and  N_10
REMARK    4  A    between atoms: N_10  and  C_11
REMARK    5  A    between atoms: C_15  and  O_16
REMARK    6  A    between atoms: O_16  and  C_17
REMARK    7  A    between atoms: C_17  and  C_18
REMARK                            x       y       z     vdW  Elec       q    Type
REMARK                         _______ _______ _______ _____ _____    ______ ____
ROOT
ATOM      1  C   UNL     1       3.919   3.388  18.142  0.00  0.00    +0.000 A 
ATOM      2  C   UNL     1       3.157   2.283  17.755  0.00  0.00    +0.000 A 
ATOM      3  C   UNL     1       1.841   2.149  18.206  0.00  0.00    +0.000 A 
ATOM      4  C   UNL     1       1.273   3.132  19.028  0.00  0.00    +0.000 A 
ATOM      5  C   UNL     1       2.026   4.231  19.438  0.00  0.00    +0.000 A 
ATOM      6  C   UNL     1       3.366   4.289  19.064  0.00  0.00    +0.000 A 
ENDROOT
BRANCH   1   7
ATOM      7  N   UNL     1       5.254   3.524  17.668  0.00  0.00    +0.000 N 
ATOM      8  H   UNL     1       5.749   2.656  17.910  0.00  0.00    +0.000 HD
BRANCH   7  14
ATOM      9  C   UNL     1       6.277   5.642  16.874  0.00  0.00    +0.000 A 
ATOM     10  C   UNL     1       7.186   6.700  17.071  0.00  0.00    +0.000 A 
ATOM     11  C   UNL     1       7.898   6.815  18.269  0.00  0.00    +0.000 A 
ATOM     12  C   UNL     1       7.655   5.915  19.295  0.00  0.00    +0.000 A 
ATOM     13  C   UNL     1       6.737   4.881  19.110  0.00  0.00    +0.000 A 
ATOM     14  C   UNL     1       6.117   4.651  17.865  0.00  0.00    +0.000 A 
BRANCH   9  16
ATOM     15  O   UNL     1       5.339   4.655  14.921  0.00  0.00    +0.000 OA
ATOM     16  C   UNL     1       5.527   5.653  15.599  0.00  0.00    +0.000 C 
BRANCH  16  17
ATOM     17  O   UNL     1       5.109   6.884  15.224  0.00  0.00    +0.000 OA
ATOM     18  H   UNL     1       5.624   7.261  14.478  0.00  0.00    +0.000 HD
ENDBRANCH  16  17
ENDBRANCH   9  16
ENDBRANCH   7  14
ENDBRANCH   1   7
BRANCH   5  19
ATOM     19  O   UNL     1       1.410   5.173  20.226  0.00  0.00    +0.000 OA
BRANCH  19  20
ATOM     20  C   UNL     1       2.247   6.260  20.684  0.00  0.00    +0.000 C 
BRANCH  20  21
ATOM     21  C   UNL     1       1.817   7.624  20.146  0.00  0.00    +0.000 A 
ATOM     22  C   UNL     1       2.096   7.980  18.836  0.00  0.00    +0.000 A 
ATOM     23  C   UNL     1       1.655   9.210  18.365  0.00  0.00    +0.000 A 
ATOM     24  C   UNL     1       0.849  10.017  19.165  0.00  0.00    +0.000 A 
ATOM     25  C   UNL     1       0.316  11.216  18.660  0.00  0.00    +0.000 A 
ATOM     26  C   UNL     1      -0.616  11.938  19.399  0.00  0.00    +0.000 A 
ATOM     27  C   UNL     1      -0.973  11.488  20.663  0.00  0.00    +0.000 A 
ATOM     28  C   UNL     1      -0.378  10.333  21.193  0.00  0.00    +0.000 A 
ATOM     29  C   UNL     1       0.530   9.566  20.461  0.00  0.00    +0.000 A 
ATOM     30  N   UNL     1       1.041   8.408  20.957  0.00  0.00    +0.000 NA
ENDBRANCH  20  21
ENDBRANCH  19  20
ENDBRANCH   5  19
TORSDOF 7
ENDMDL
MODEL 5
REMARK VINA RESULT:      -8.6      2.969      4.025
REMARK  Name = 
REMARK  7 active torsions:
REMARK  status: ('A' for Active; 'I' for Inactive)
REMARK    1  A    between atoms: C_2  and  O_3
REMARK    2  A    between atoms: C_2  and  C_4
REMARK    3  A    between atoms: C_9  and  N_10
REMARK    4  A    between atoms: N_10  and  C_11
REMARK    5  A    between atoms: C_15  and  O_16
REMARK    6  A    between atoms: O_16  and  C_17
REMARK    7  A    between atoms: C_17  and  C_18
REMARK                            x       y       z     vdW  Elec       q    Type
REMARK                         _______ _______ _______ _____ _____    ______ ____
ROOT
ATOM      1  C   UNL     1       2.706   6.940  19.433  0.00  0.00    +0.000 A 
ATOM      2  C   UNL     1       3.163   7.149  18.131  0.00  0.00    +0.000 A 
ATOM      3  C   UNL     1       2.755   8.282  17.420  0.00  0.00    +0.000 A 
ATOM      4  C   UNL     1       1.906   9.223  18.019  0.00  0.00    +0.000 A 
ATOM      5  C   UNL     1       1.427   9.019  19.312  0.00  0.00    +0.000 A 
ATOM      6  C   UNL     1       1.761   7.833  19.960  0.00  0.00    +0.000 A 
ENDROOT
BRANCH   1   7
ATOM      7  N   UNL     1       3.137   5.791  20.155  0.00  0.00    +0.000 N 
ATOM      8  H   UNL     1       4.164   5.822  20.184  0.00  0.00    +0.000 HD
BRANCH   7  14
ATOM      9  C   UNL     1       3.482   3.500  19.261  0.00  0.00    +0.000 A 
ATOM     10  C   UNL     1       2.987   2.204  19.021  0.00  0.00    +0.000 A 
ATOM     11  C   UNL     1       1.736   1.815  19.512  0.00  0.00    +0.000 A 
ATOM     12  C   UNL     1       1.009   2.696  20.299  0.00  0.00    +0.000 A 
ATOM     13  C   UNL     1       1.510   3.972  20.558  0.00  0.00    +0.000 A 
ATOM     14  C   UNL     1       2.693   4.444  19.954  0.00  0.00    +0.000 A 
BRANCH   9  16
ATOM     15  O   UNL     1       5.709   4.326  19.426  0.00  0.00    +0.000 OA
ATOM     16  C   UNL     1       4.843   3.785  18.757  0.00  0.00    +0.000 C 
BRANCH  16  17
ATOM     17  O   UNL     1       5.027   3.436  17.463  0.00  0.00    +0.000 OA
ATOM     18  H   UNL     1       4.341   3.796  16.860  0.00  0.00    +0.000 HD
ENDBRANCH  16  17
ENDBRANCH   9  16
ENDBRANCH   7  14
ENDBRANCH   1   7
BRANCH   5  19
ATOM     19  O   UNL     1       0.615   9.986  19.855  0.00  0.00    +0.000 OA
BRANCH  19  20
ATOM     20  C   UNL     1       0.269  11.085  18.981  0.00  0.00    +0.000 C 
BRANCH  20  21
ATOM     21  C   UNL     1      -1.205  11.097  18.579  0.00  0.00    +0.000 A 
ATOM     22  C   UNL     1      -1.685  10.189  17.649  0.00  0.00    +0.000 A 
ATOM     23  C   UNL     1      -3.038  10.199  17.336  0.00  0.00    +0.000 A 
ATOM     24  C   UNL     1      -3.911  11.033  18.032  0.00  0.00    +0.000 A 
ATOM     25  C   UNL     1      -5.295  10.976  17.791  0.00  0.00    +0.000 A 
ATOM     26  C   UNL     1      -6.179  11.687  18.596  0.00  0.00    +0.000 A 
ATOM     27  C   UNL     1      -5.674  12.496  19.606  0.00  0.00    +0.000 A 
ATOM     28  C   UNL     1      -4.288  12.609  19.790  0.00  0.00    +0.000 A 
ATOM     29  C   UNL     1      -3.377  11.878  19.024  0.00  0.00    +0.000 A 
ATOM     30  N   UNL     1      -2.041  11.938  19.264  0.00  0.00    +0.000 NA
ENDBRANCH  20  21
ENDBRANCH  19  20
ENDBRANCH   5  19
TORSDOF 7
ENDMDL
MODEL 6
REMARK VINA RESULT:      -8.6      1.989      4.333
REMARK  Name = 
REMARK  7 active torsions:
REMARK  status: ('A' for Active; 'I' for Inactive)
REMARK    1  A    between atoms: C_2  and  O_3
REMARK    2  A    between atoms: C_2  and  C_4
REMARK    3  A    between atoms: C_9  and  N_10
REMARK    4  A    between atoms: N_10  and  C_11
REMARK    5  A    between atoms: C_15  and  O_16
REMARK    6  A    between atoms: O_16  and  C_17
REMARK    7  A    between atoms: C_17  and  C_18
REMARK                            x       y       z     vdW  Elec       q    Type
REMARK                         _______ _______ _______ _____ _____    ______ ____
ROOT
ATOM      1  C   UNL     1       4.146   3.949  19.328  0.00  0.00    +0.000 A 
ATOM      2  C   UNL     1       3.323   2.832  19.484  0.00  0.00    +0.000 A 
ATOM      3  C   UNL     1       2.043   2.977  20.026  0.00  0.00    +0.000 A 
ATOM      4  C   UNL     1       1.571   4.244  20.393  0.00  0.00    +0.000 A 
ATOM      5  C   UNL     1       2.386   5.367  20.260  0.00  0.00    +0.000 A 
ATOM      6  C   UNL     1       3.694   5.184  19.818  0.00  0.00    +0.000 A 
ENDROOT
BRANCH   1   7
ATOM      7  N   UNL     1       5.443   3.796  18.763  0.00  0.00    +0.000 N 
ATOM      8  H   UNL     1       6.118   4.114  19.470  0.00  0.00    +0.000 HD
BRANCH   7  14
ATOM      9  C   UNL     1       6.856   5.209  17.289  0.00  0.00    +0.000 A 
ATOM     10  C   UNL     1       7.195   5.656  15.997  0.00  0.00    +0.000 A 
ATOM     11  C   UNL     1       6.593   5.094  14.867  0.00  0.00    +0.000 A 
ATOM     12  C   UNL     1       5.705   4.040  15.021  0.00  0.00    +0.000 A 
ATOM     13  C   UNL     1       5.388   3.579  16.299  0.00  0.00    +0.000 A 
ATOM     14  C   UNL     1       5.861   4.223  17.461  0.00  0.00    +0.000 A 
BRANCH   9  16
ATOM     15  O   UNL     1       7.926   7.000  18.437  0.00  0.00    +0.000 OA
ATOM     16  C   UNL     1       7.602   5.823  18.410  0.00  0.00    +0.000 C 
BRANCH  16  17
ATOM     17  O   UNL     1       7.937   4.947  19.384  0.00  0.00    +0.000 OA
ATOM     18  H   UNL     1       8.422   4.160  19.052  0.00  0.00    +0.000 HD
ENDBRANCH  16  17
ENDBRANCH   9  16
ENDBRANCH   7  14
ENDBRANCH   1   7
BRANCH   5  19
ATOM     19  O   UNL     1       1.862   6.586  20.616  0.00  0.00    +0.000 OA
BRANCH  19  20
ATOM     20  C   UNL     1       1.996   7.642  19.636  0.00  0.00    +0.000 C 
BRANCH  20  21
ATOM     21  C   UNL     1       1.248   8.919  20.017  0.00  0.00    +0.000 A 
ATOM     22  C   UNL     1       0.966   9.878  19.057  0.00  0.00    +0.000 A 
ATOM     23  C   UNL     1       0.248  11.008  19.428  0.00  0.00    +0.000 A 
ATOM     24  C   UNL     1      -0.273  11.116  20.716  0.00  0.00    +0.000 A 
ATOM     25  C   UNL     1      -1.084  12.208  21.067  0.00  0.00    +0.000 A 
ATOM     26  C   UNL     1      -1.735  12.234  22.296  0.00  0.00    +0.000 A 
ATOM     27  C   UNL     1      -1.531  11.193  23.193  0.00  0.00    +0.000 A 
ATOM     28  C   UNL     1      -0.658  10.145  22.866  0.00  0.00    +0.000 A 
ATOM     29  C   UNL     1      -0.021  10.070  21.626  0.00  0.00    +0.000 A 
ATOM     30  N   UNL     1       0.761   9.010  21.294  0.00  0.00    +0.000 NA
ENDBRANCH  20  21
ENDBRANCH  19  20
ENDBRANCH   5  19
TORSDOF 7
ENDMDL
MODEL 7
REMARK VINA RESULT:      -8.5      2.160      4.423
REMARK  Name = 
REMARK  7 active torsions:
REMARK  status: ('A' for Active; 'I' for Inactive)
REMARK    1  A    between atoms: C_2  and  O_3
REMARK    2  A    between atoms: C_2  and  C_4
REMARK    3  A    between atoms: C_9  and  N_10
REMARK    4  A    between atoms: N_10  and  C_11
REMARK    5  A    between atoms: C_15  and  O_16
REMARK    6  A    between atoms: O_16  and  C_17
REMARK    7  A    between atoms: C_17  and  C_18
REMARK                            x       y       z     vdW  Elec       q    Type
REMARK                         _______ _______ _______ _____ _____    ______ ____
ROOT
ATOM      1  C   UNL     1       3.821   3.712  18.608  0.00  0.00    +0.000 A 
ATOM      2  C   UNL     1       3.054   2.547  18.560  0.00  0.00    +0.000 A 
ATOM      3  C   UNL     1       1.762   2.538  19.095  0.00  0.00    +0.000 A 
ATOM      4  C   UNL     1       1.223   3.703  19.658  0.00  0.00    +0.000 A 
ATOM      5  C   UNL     1       1.984   4.870  19.728  0.00  0.00    +0.000 A 
ATOM      6  C   UNL     1       3.304   4.825  19.287  0.00  0.00    +0.000 A 
ENDROOT
BRANCH   1   7
ATOM      7  N   UNL     1       5.131   3.716  18.050  0.00  0.00    +0.000 N 
ATOM      8  H   UNL     1       5.585   2.842  18.342  0.00  0.00    +0.000 HD
BRANCH   7  14
ATOM      9  C   UNL     1       6.246   5.672  17.003  0.00  0.00    +0.000 A 
ATOM     10  C   UNL     1       7.228   6.680  17.053  0.00  0.00    +0.000 A 
ATOM     11  C   UNL     1       8.005   6.863  18.202  0.00  0.00    +0.000 A 
ATOM     12  C   UNL     1       7.756   6.086  19.323  0.00  0.00    +0.000 A 
ATOM     13  C   UNL     1       6.767   5.104  19.283  0.00  0.00    +0.000 A 
ATOM     14  C   UNL     1       6.072   4.796  18.095  0.00  0.00    +0.000 A 
BRANCH   9  16
ATOM     15  O   UNL     1       5.146   4.566  15.205  0.00  0.00    +0.000 OA
ATOM     16  C   UNL     1       5.435   5.610  15.767  0.00  0.00    +0.000 C 
BRANCH  16  17
ATOM     17  O   UNL     1       5.085   6.824  15.285  0.00  0.00    +0.000 OA
ATOM     18  H   UNL     1       4.394   6.783  14.588  0.00  0.00    +0.000 HD
ENDBRANCH  16  17
ENDBRANCH   9  16
ENDBRANCH   7  14
ENDBRANCH   1   7
BRANCH   5  19
ATOM     19  O   UNL     1       1.396   5.987  20.271  0.00  0.00    +0.000 OA
BRANCH  19  20
ATOM     20  C   UNL     1       2.214   7.179  20.306  0.00  0.00    +0.000 C 
BRANCH  20  21
ATOM     21  C   UNL     1       1.405   8.464  20.467  0.00  0.00    +0.000 A 
ATOM     22  C   UNL     1       1.094   9.240  19.361  0.00  0.00    +0.000 A 
ATOM     23  C   UNL     1       0.321  10.380  19.536  0.00  0.00    +0.000 A 
ATOM     24  C   UNL     1      -0.222  10.673  20.785  0.00  0.00    +0.000 A 
ATOM     25  C   UNL     1      -1.087  11.769  20.948  0.00  0.00    +0.000 A 
ATOM     26  C   UNL     1      -1.755  11.966  22.151  0.00  0.00    +0.000 A 
ATOM     27  C   UNL     1      -1.518  11.096  23.208  0.00  0.00    +0.000 A 
ATOM     28  C   UNL     1      -0.594  10.050  23.064  0.00  0.00    +0.000 A 
ATOM     29  C   UNL     1       0.063   9.803  21.857  0.00  0.00    +0.000 A 
ATOM     30  N   UNL     1       0.897   8.741  21.708  0.00  0.00    +0.000 NA
ENDBRANCH  20  21
ENDBRANCH  19  20
ENDBRANCH   5  19
TORSDOF 7
ENDMDL
MODEL 8
REMARK VINA RESULT:      -8.5      1.557      2.073
REMARK  Name = 
REMARK  7 active torsions:
REMARK  status: ('A' for Active; 'I' for Inactive)
REMARK    1  A    between atoms: C_2  and  O_3
REMARK    2  A    between atoms: C_2  and  C_4
REMARK    3  A    between atoms: C_9  and  N_10
REMARK    4  A    between atoms: N_10  and  C_11
REMARK    5  A    between atoms: C_15  and  O_16
REMARK    6  A    between atoms: O_16  and  C_17
REMARK    7  A    between atoms: C_17  and  C_18
REMARK                            x       y       z     vdW  Elec       q    Type
REMARK                         _______ _______ _______ _____ _____    ______ ____
ROOT
ATOM      1  C   UNL     1       4.365   4.169  17.106  0.00  0.00    +0.000 A 
ATOM      2  C   UNL     1       5.160   4.215  15.960  0.00  0.00    +0.000 A 
ATOM      3  C   UNL     1       5.531   5.448  15.415  0.00  0.00    +0.000 A 
ATOM      4  C   UNL     1       5.127   6.641  16.029  0.00  0.00    +0.000 A 
ATOM      5  C   UNL     1       4.318   6.612  17.164  0.00  0.00    +0.000 A 
ATOM      6  C   UNL     1       3.873   5.376  17.625  0.00  0.00    +0.000 A 
ENDROOT
BRANCH   1   7
ATOM      7  N   UNL     1       4.002   2.910  17.662  0.00  0.00    +0.000 N 
ATOM      8  H   UNL     1       3.395   2.442  16.976  0.00  0.00    +0.000 HD
BRANCH   7  14
ATOM      9  C   UNL     1       2.133   2.683  19.281  0.00  0.00    +0.000 A 
ATOM     10  C   UNL     1       1.690   2.515  20.607  0.00  0.00    +0.000 A 
ATOM     11  C   UNL     1       2.603   2.283  21.641  0.00  0.00    +0.000 A 
ATOM     12  C   UNL     1       3.951   2.150  21.342  0.00  0.00    +0.000 A 
ATOM     13  C   UNL     1       4.388   2.290  20.025  0.00  0.00    +0.000 A 
ATOM     14  C   UNL     1       3.514   2.673  18.988  0.00  0.00    +0.000 A 
BRANCH   9  16
ATOM     15  O   UNL     1       1.000   3.835  17.533  0.00  0.00    +0.000 OA
ATOM     16  C   UNL     1       1.080   2.855  18.256  0.00  0.00    +0.000 C 
BRANCH  16  17
ATOM     17  O   UNL     1       0.179   1.846  18.228  0.00  0.00    +0.000 OA
ATOM     18  H   UNL     1       0.582   0.967  18.055  0.00  0.00    +0.000 HD
ENDBRANCH  16  17
ENDBRANCH   9  16
ENDBRANCH   7  14
ENDBRANCH   1   7
BRANCH   5  19
ATOM     19  O   UNL     1       3.970   7.813  17.735  0.00  0.00    +0.000 OA
BRANCH  19  20
ATOM     20  C   UNL     1       2.592   8.218  17.566  0.00  0.00    +0.000 C 
BRANCH  20  21
ATOM     21  C   UNL     1       1.852   8.414  18.888  0.00  0.00    +0.000 A 
ATOM     22  C   UNL     1       2.029   7.518  19.930  0.00  0.00    +0.000 A 
ATOM     23  C   UNL     1       1.374   7.748  21.132  0.00  0.00    +0.000 A 
ATOM     24  C   UNL     1       0.644   8.920  21.319  0.00  0.00    +0.000 A 
ATOM     25  C   UNL     1       0.063   9.207  22.566  0.00  0.00    +0.000 A 
ATOM     26  C   UNL     1      -0.525  10.446  22.800  0.00  0.00    +0.000 A 
ATOM     27  C   UNL     1      -0.578  11.376  21.770  0.00  0.00    +0.000 A 
ATOM     28  C   UNL     1      -0.065  11.053  20.505  0.00  0.00    +0.000 A 
ATOM     29  C   UNL     1       0.566   9.834  20.249  0.00  0.00    +0.000 A 
ATOM     30  N   UNL     1       1.125   9.565  19.041  0.00  0.00    +0.000 NA
ENDBRANCH  20  21
ENDBRANCH  19  20
ENDBRANCH   5  19
TORSDOF 7
ENDMDL
MODEL 9
REMARK VINA RESULT:      -8.5      5.507      7.075
REMARK  Name = 
REMARK  7 active torsions:
REMARK  status: ('A' for Active; 'I' for Inactive)
REMARK    1  A    between atoms: C_2  and  O_3
REMARK    2  A    between atoms: C_2  and  C_4
REMARK    3  A    between atoms: C_9  and  N_10
REMARK    4  A    between atoms: N_10  and  C_11
REMARK    5  A    between atoms: C_15  and  O_16
REMARK    6  A    between atoms: O_16  and  C_17
REMARK    7  A    between atoms: C_17  and  C_18
REMARK                            x       y       z     vdW  Elec       q    Type
REMARK                         _______ _______ _______ _____ _____    ______ ____
ROOT
ATOM      1  C   UNL     1       5.713   5.570  18.185  0.00  0.00    +0.000 A 
ATOM      2  C   UNL     1       6.448   4.986  19.218  0.00  0.00    +0.000 A 
ATOM      3  C   UNL     1       7.703   5.498  19.558  0.00  0.00    +0.000 A 
ATOM      4  C   UNL     1       8.219   6.612  18.882  0.00  0.00    +0.000 A 
ATOM      5  C   UNL     1       7.504   7.196  17.837  0.00  0.00    +0.000 A 
ATOM      6  C   UNL     1       6.306   6.603  17.445  0.00  0.00    +0.000 A 
ENDROOT
BRANCH   1   7
ATOM      7  N   UNL     1       4.429   5.051  17.853  0.00  0.00    +0.000 N 
ATOM      8  H   UNL     1       4.118   5.539  17.003  0.00  0.00    +0.000 HD
BRANCH   7  14
ATOM      9  C   UNL     1       2.579   3.677  18.777  0.00  0.00    +0.000 A 
ATOM     10  C   UNL     1       1.457   3.561  19.619  0.00  0.00    +0.000 A 
ATOM     11  C   UNL     1       1.096   4.607  20.475  0.00  0.00    +0.000 A 
ATOM     12  C   UNL     1       1.894   5.739  20.542  0.00  0.00    +0.000 A 
ATOM     13  C   UNL     1       3.021   5.844  19.726  0.00  0.00    +0.000 A 
ATOM     14  C   UNL     1       3.324   4.875  18.747  0.00  0.00    +0.000 A 
BRANCH   9  16
ATOM     15  O   UNL     1       2.072   1.806  17.394  0.00  0.00    +0.000 OA
ATOM     16  C   UNL     1       2.911   2.487  17.962  0.00  0.00    +0.000 C 
BRANCH  16  17
ATOM     17  O   UNL     1       4.231   2.191  17.944  0.00  0.00    +0.000 OA
ATOM     18  H   UNL     1       4.641   2.183  18.836  0.00  0.00    +0.000 HD
ENDBRANCH  16  17
ENDBRANCH   9  16
ENDBRANCH   7  14
ENDBRANCH   1   7
BRANCH   5  19
ATOM     19  O   UNL     1       8.049   8.298  17.225  0.00  0.00    +0.000 OA
BRANCH  19  20
ATOM     20  C   UNL     1       7.552   9.581  17.673  0.00  0.00    +0.000 C 
BRANCH  20  21
ATOM     21  C   UNL     1       8.635  10.473  18.276  0.00  0.00    +0.000 A 
ATOM     22  C   UNL     1       9.283  10.097  19.442  0.00  0.00    +0.000 A 
ATOM     23  C   UNL     1      10.292  10.910  19.942  0.00  0.00    +0.000 A 
ATOM     24  C   UNL     1      10.717  12.023  19.219  0.00  0.00    +0.000 A 
ATOM     25  C   UNL     1      11.805  12.792  19.669  0.00  0.00    +0.000 A 
ATOM     26  C   UNL     1      12.331  13.800  18.869  0.00  0.00    +0.000 A 
ATOM     27  C   UNL     1      11.736  14.074  17.644  0.00  0.00    +0.000 A 
ATOM     28  C   UNL     1      10.603  13.354  17.237  0.00  0.00    +0.000 A 
ATOM     29  C   UNL     1      10.075  12.310  17.999  0.00  0.00    +0.000 A 
ATOM     30  N   UNL     1       9.024  11.571  17.557  0.00  0.00    +0.000 NA
ENDBRANCH  20  21
ENDBRANCH  19  20
ENDBRANCH   5  19
TORSDOF 7
ENDMDL
