MODEL 1
REMARK VINA RESULT:      -7.2      0.000      0.000
REMARK  Name = 
REMARK  11 active torsions:
REMARK  status: ('A' for Active; 'I' for Inactive)
REMARK    1  A    between atoms: C_1  and  C_2
REMARK    2  A    between atoms: C_2  and  C_3
REMARK    3  A    between atoms: C_2  and  C_4
REMARK    4  A    between atoms: C_4  and  N_5
REMARK    5  A    between atoms: N_5  and  C_6
REMARK    6  A    between atoms: C_6  and  C_7
REMARK    7  A    between atoms: C_7  and  C_8
REMARK    8  A    between atoms: C_7  and  C_9
REMARK    9  A    between atoms: C_10  and  C_12
REMARK   10  A    between atoms: C_14  and  S_15
REMARK   11  A    between atoms: S_15  and  N_18
REMARK                            x       y       z     vdW  Elec       q    Type
REMARK                         _______ _______ _______ _____ _____    ______ ____
ROOT
ATOM      1  C   UNL     1       2.547   7.662  18.578  0.00  0.00    +0.000 A 
ATOM      2  C   UNL     1       1.807   8.785  18.237  0.00  0.00    +0.000 A 
ATOM      3  C   UNL     1       1.239   9.318  19.423  0.00  0.00    +0.000 A 
ATOM      4  C   UNL     1       1.463   8.398  20.424  0.00  0.00    +0.000 A 
ATOM      5  N   UNL     1       2.212   7.379  19.890  0.00  0.00    +0.000 N 
ATOM      6  H   UNL     1       2.542   6.558  20.388  0.00  0.00    +0.000 HD
ENDROOT
BRANCH   1   8
ATOM      7  N   UNL     1       3.231   5.403  17.796  0.00  0.00    +0.000 N 
ATOM      8  C   UNL     1       3.441   6.805  17.817  0.00  0.00    +0.000 C 
ATOM      9  O   UNL     1       4.357   7.322  17.169  0.00  0.00    +0.000 OA
BRANCH   7  10
ATOM     10  C   UNL     1       4.226   4.605  17.051  0.00  0.00    +0.000 C 
BRANCH  10  12
ATOM     11  C   UNL     1       6.805   4.627  17.187  0.00  0.00    +0.000 C 
ATOM     12  C   UNL     1       5.493   4.149  17.807  0.00  0.00    +0.000 C 
ATOM     13  C   UNL     1       5.424   4.647  19.261  0.00  0.00    +0.000 C 
ENDBRANCH  10  12
ENDBRANCH   7  10
BRANCH   7  14
ATOM     14  C   UNL     1       1.923   4.817  18.164  0.00  0.00    +0.000 C 
BRANCH  14  15
ATOM     15  C   UNL     1       1.855   3.701  19.223  0.00  0.00    +0.000 C 
ATOM     16  C   UNL     1       0.958   4.058  20.411  0.00  0.00    +0.000 C 
ATOM     17  C   UNL     1       1.312   2.418  18.567  0.00  0.00    +0.000 C 
ENDBRANCH  14  15
ENDBRANCH   7  14
ENDBRANCH   1   8
BRANCH   3  18
ATOM     18  S   UNL     1       0.445  10.856  19.540  0.00  0.00    +0.000 S 
ATOM     19  O   UNL     1       0.380  11.121  20.963  0.00  0.00    +0.000 OA
ATOM     20  O   UNL     1       1.205  11.706  18.642  0.00  0.00    +0.000 OA
BRANCH  18  21
ATOM     21  N   UNL     1      -1.145  10.704  18.932  0.00  0.00    +0.000 NA
ATOM     22  C   UNL     1      -1.985  11.921  19.077  0.00  0.00    +0.000 C 
ATOM     23  C   UNL     1      -3.430  11.635  18.681  0.00  0.00    +0.000 C 
ATOM     24  C   UNL     1      -3.504  11.055  17.276  0.00  0.00    +0.000 C 
ATOM     25  C   UNL     1      -2.666   9.785  17.203  0.00  0.00    +0.000 C 
ATOM     26  C   UNL     1      -1.219  10.058  17.597  0.00  0.00    +0.000 C 
ENDBRANCH  18  21
ENDBRANCH   3  18
TORSDOF 7
ENDMDL
MODEL 2
REMARK VINA RESULT:      -7.0      1.036      1.288
REMARK  Name = 
REMARK  11 active torsions:
REMARK  status: ('A' for Active; 'I' for Inactive)
REMARK    1  A    between atoms: C_1  and  C_2
REMARK    2  A    between atoms: C_2  and  C_3
REMARK    3  A    between atoms: C_2  and  C_4
REMARK    4  A    between atoms: C_4  and  N_5
REMARK    5  A    between atoms: N_5  and  C_6
REMARK    6  A    between atoms: C_6  and  C_7
REMARK    7  A    between atoms: C_7  and  C_8
REMARK    8  A    between atoms: C_7  and  C_9
REMARK    9  A    between atoms: C_10  and  C_12
REMARK   10  A    between atoms: C_14  and  S_15
REMARK   11  A    between atoms: S_15  and  N_18
REMARK                            x       y       z     vdW  Elec       q    Type
REMARK                         _______ _______ _______ _____ _____    ______ ____
ROOT
ATOM      1  C   UNL     1       2.316   7.497  19.347  0.00  0.00    +0.000 A 
ATOM      2  C   UNL     1       1.706   8.596  18.760  0.00  0.00    +0.000 A 
ATOM      3  C   UNL     1       1.076   9.352  19.782  0.00  0.00    +0.000 A 
ATOM      4  C   UNL     1       1.129   8.594  20.932  0.00  0.00    +0.000 A 
ATOM      5  N   UNL     1       1.838   7.454  20.644  0.00  0.00    +0.000 N 
ATOM      6  H   UNL     1       2.051   6.705  21.296  0.00  0.00    +0.000 HD
ENDROOT
BRANCH   1   8
ATOM      7  N   UNL     1       3.185   5.168  19.387  0.00  0.00    +0.000 N 
ATOM      8  C   UNL     1       3.203   6.470  18.827  0.00  0.00    +0.000 C 
ATOM      9  O   UNL     1       3.941   6.743  17.874  0.00  0.00    +0.000 OA
BRANCH   7  10
ATOM     10  C   UNL     1       4.165   4.207  18.840  0.00  0.00    +0.000 C 
BRANCH  10  12
ATOM     11  C   UNL     1       4.922   3.840  16.398  0.00  0.00    +0.000 C 
ATOM     12  C   UNL     1       3.860   3.576  17.464  0.00  0.00    +0.000 C 
ATOM     13  C   UNL     1       3.695   2.054  17.629  0.00  0.00    +0.000 C 
ENDBRANCH  10  12
ENDBRANCH   7  10
BRANCH   7  14
ATOM     14  C   UNL     1       2.032   4.690  20.184  0.00  0.00    +0.000 C 
BRANCH  14  15
ATOM     15  C   UNL     1       1.750   3.180  20.291  0.00  0.00    +0.000 C 
ATOM     16  C   UNL     1       1.396   2.738  21.714  0.00  0.00    +0.000 C 
ATOM     17  C   UNL     1       0.576   2.822  19.360  0.00  0.00    +0.000 C 
ENDBRANCH  14  15
ENDBRANCH   7  14
ENDBRANCH   1   8
BRANCH   3  18
ATOM     18  S   UNL     1       0.404  10.938  19.575  0.00  0.00    +0.000 S 
ATOM     19  O   UNL     1       0.372  11.494  20.912  0.00  0.00    +0.000 OA
ATOM     20  O   UNL     1       1.220  11.524  18.527  0.00  0.00    +0.000 OA
BRANCH  18  21
ATOM     21  N   UNL     1      -1.198  10.787  18.999  0.00  0.00    +0.000 NA
ATOM     22  C   UNL     1      -2.026  12.013  19.139  0.00  0.00    +0.000 C 
ATOM     23  C   UNL     1      -3.480  11.731  18.775  0.00  0.00    +0.000 C 
ATOM     24  C   UNL     1      -3.585  11.128  17.381  0.00  0.00    +0.000 C 
ATOM     25  C   UNL     1      -2.758   9.850  17.315  0.00  0.00    +0.000 C 
ATOM     26  C   UNL     1      -1.302  10.120  17.677  0.00  0.00    +0.000 C 
ENDBRANCH  18  21
ENDBRANCH   3  18
TORSDOF 7
ENDMDL
MODEL 3
REMARK VINA RESULT:      -7.0      2.632      3.968
REMARK  Name = 
REMARK  11 active torsions:
REMARK  status: ('A' for Active; 'I' for Inactive)
REMARK    1  A    between atoms: C_1  and  C_2
REMARK    2  A    between atoms: C_2  and  C_3
REMARK    3  A    between atoms: C_2  and  C_4
REMARK    4  A    between atoms: C_4  and  N_5
REMARK    5  A    between atoms: N_5  and  C_6
REMARK    6  A    between atoms: C_6  and  C_7
REMARK    7  A    between atoms: C_7  and  C_8
REMARK    8  A    between atoms: C_7  and  C_9
REMARK    9  A    between atoms: C_10  and  C_12
REMARK   10  A    between atoms: C_14  and  S_15
REMARK   11  A    between atoms: S_15  and  N_18
REMARK                            x       y       z     vdW  Elec       q    Type
REMARK                         _______ _______ _______ _____ _____    ______ ____
ROOT
ATOM      1  C   UNL     1       2.899   6.634  18.236  0.00  0.00    +0.000 A 
ATOM      2  C   UNL     1       2.140   7.703  17.782  0.00  0.00    +0.000 A 
ATOM      3  C   UNL     1       1.758   8.483  18.903  0.00  0.00    +0.000 A 
ATOM      4  C   UNL     1       2.104   7.766  20.028  0.00  0.00    +0.000 A 
ATOM      5  N   UNL     1       2.749   6.627  19.611  0.00  0.00    +0.000 N 
ATOM      6  H   UNL     1       3.130   5.905  20.213  0.00  0.00    +0.000 HD
ENDROOT
BRANCH   1   8
ATOM      7  N   UNL     1       4.970   5.880  17.085  0.00  0.00    +0.000 N 
ATOM      8  C   UNL     1       3.659   5.603  17.547  0.00  0.00    +0.000 C 
ATOM      9  O   UNL     1       3.156   4.484  17.406  0.00  0.00    +0.000 OA
BRANCH   7  10
ATOM     10  C   UNL     1       5.642   4.796  16.339  0.00  0.00    +0.000 C 
BRANCH  10  12
ATOM     11  C   UNL     1       7.427   5.027  14.488  0.00  0.00    +0.000 C 
ATOM     12  C   UNL     1       5.942   5.032  14.843  0.00  0.00    +0.000 C 
ATOM     13  C   UNL     1       5.231   3.953  14.006  0.00  0.00    +0.000 C 
ENDBRANCH  10  12
ENDBRANCH   7  10
BRANCH   7  14
ATOM     14  C   UNL     1       5.753   7.014  17.626  0.00  0.00    +0.000 C 
BRANCH  14  15
ATOM     15  C   UNL     1       7.291   6.958  17.610  0.00  0.00    +0.000 C 
ATOM     16  C   UNL     1       7.941   8.344  17.649  0.00  0.00    +0.000 C 
ATOM     17  C   UNL     1       7.777   6.155  18.831  0.00  0.00    +0.000 C 
ENDBRANCH  14  15
ENDBRANCH   7  14
ENDBRANCH   1   8
BRANCH   3  18
ATOM     18  S   UNL     1       1.019  10.050  18.818  0.00  0.00    +0.000 S 
ATOM     19  O   UNL     1       2.080  10.926  18.364  0.00  0.00    +0.000 OA
ATOM     20  O   UNL     1      -0.175   9.826  18.023  0.00  0.00    +0.000 OA
BRANCH  18  21
ATOM     21  N   UNL     1       0.546  10.523  20.391  0.00  0.00    +0.000 NA
ATOM     22  C   UNL     1      -0.016  11.896  20.484  0.00  0.00    +0.000 C 
ATOM     23  C   UNL     1      -0.234  12.296  21.940  0.00  0.00    +0.000 C 
ATOM     24  C   UNL     1      -1.102  11.274  22.661  0.00  0.00    +0.000 C 
ATOM     25  C   UNL     1      -0.451   9.900  22.574  0.00  0.00    +0.000 C 
ATOM     26  C   UNL     1      -0.228   9.489  21.123  0.00  0.00    +0.000 C 
ENDBRANCH  18  21
ENDBRANCH   3  18
TORSDOF 7
ENDMDL
MODEL 4
REMARK VINA RESULT:      -6.9      2.607      7.895
REMARK  Name = 
REMARK  11 active torsions:
REMARK  status: ('A' for Active; 'I' for Inactive)
REMARK    1  A    between atoms: C_1  and  C_2
REMARK    2  A    between atoms: C_2  and  C_3
REMARK    3  A    between atoms: C_2  and  C_4
REMARK    4  A    between atoms: C_4  and  N_5
REMARK    5  A    between atoms: N_5  and  C_6
REMARK    6  A    between atoms: C_6  and  C_7
REMARK    7  A    between atoms: C_7  and  C_8
REMARK    8  A    between atoms: C_7  and  C_9
REMARK    9  A    between atoms: C_10  and  C_12
REMARK   10  A    between atoms: C_14  and  S_15
REMARK   11  A    between atoms: S_15  and  N_18
REMARK                            x       y       z     vdW  Elec       q    Type
REMARK                         _______ _______ _______ _____ _____    ______ ____
ROOT
ATOM      1  C   UNL     1       2.318   7.520  18.675  0.00  0.00    +0.000 A 
ATOM      2  C   UNL     1       2.858   6.512  17.890  0.00  0.00    +0.000 A 
ATOM      3  C   UNL     1       3.024   5.360  18.700  0.00  0.00    +0.000 A 
ATOM      4  C   UNL     1       2.787   5.747  20.001  0.00  0.00    +0.000 A 
ATOM      5  N   UNL     1       2.409   7.066  19.979  0.00  0.00    +0.000 N 
ATOM      6  H   UNL     1       2.160   7.628  20.787  0.00  0.00    +0.000 HD
ENDROOT
BRANCH   1   8
ATOM      7  N   UNL     1       0.817   9.438  19.179  0.00  0.00    +0.000 N 
ATOM      8  C   UNL     1       1.817   8.849  18.364  0.00  0.00    +0.000 C 
ATOM      9  O   UNL     1       2.300   9.460  17.405  0.00  0.00    +0.000 OA
BRANCH   7  10
ATOM     10  C   UNL     1       0.322  10.762  18.750  0.00  0.00    +0.000 C 
BRANCH  10  12
ATOM     11  C   UNL     1      -1.644  12.352  18.224  0.00  0.00    +0.000 C 
ATOM     12  C   UNL     1      -1.198  10.924  18.532  0.00  0.00    +0.000 C 
ATOM     13  C   UNL     1      -1.647  10.008  17.379  0.00  0.00    +0.000 C 
ENDBRANCH  10  12
ENDBRANCH   7  10
BRANCH   7  14
ATOM     14  C   UNL     1       0.560   8.950  20.552  0.00  0.00    +0.000 C 
BRANCH  14  15
ATOM     15  C   UNL     1       0.717   9.909  21.746  0.00  0.00    +0.000 C 
ATOM     16  C   UNL     1      -0.624  10.336  22.350  0.00  0.00    +0.000 C 
ATOM     17  C   UNL     1       1.549   9.217  22.841  0.00  0.00    +0.000 C 
ENDBRANCH  14  15
ENDBRANCH   7  14
ENDBRANCH   1   8
BRANCH   3  18
ATOM     18  S   UNL     1       3.427   3.779  18.109  0.00  0.00    +0.000 S 
ATOM     19  O   UNL     1       3.592   2.978  19.305  0.00  0.00    +0.000 OA
ATOM     20  O   UNL     1       2.382   3.496  17.142  0.00  0.00    +0.000 OA
BRANCH  18  21
ATOM     21  N   UNL     1       4.923   3.862  17.287  0.00  0.00    +0.000 NA
ATOM     22  C   UNL     1       4.818   4.163  15.836  0.00  0.00    +0.000 C 
ATOM     23  C   UNL     1       6.176   4.033  15.154  0.00  0.00    +0.000 C 
ATOM     24  C   UNL     1       7.217   4.905  15.843  0.00  0.00    +0.000 C 
ATOM     25  C   UNL     1       7.314   4.516  17.313  0.00  0.00    +0.000 C 
ATOM     26  C   UNL     1       5.962   4.642  18.005  0.00  0.00    +0.000 C 
ENDBRANCH  18  21
ENDBRANCH   3  18
TORSDOF 7
ENDMDL
MODEL 5
REMARK VINA RESULT:      -6.9      2.679      4.096
REMARK  Name = 
REMARK  11 active torsions:
REMARK  status: ('A' for Active; 'I' for Inactive)
REMARK    1  A    between atoms: C_1  and  C_2
REMARK    2  A    between atoms: C_2  and  C_3
REMARK    3  A    between atoms: C_2  and  C_4
REMARK    4  A    between atoms: C_4  and  N_5
REMARK    5  A    between atoms: N_5  and  C_6
REMARK    6  A    between atoms: C_6  and  C_7
REMARK    7  A    between atoms: C_7  and  C_8
REMARK    8  A    between atoms: C_7  and  C_9
REMARK    9  A    between atoms: C_10  and  C_12
REMARK   10  A    between atoms: C_14  and  S_15
REMARK   11  A    between atoms: S_15  and  N_18
REMARK                            x       y       z     vdW  Elec       q    Type
REMARK                         _______ _______ _______ _____ _____    ______ ____
ROOT
ATOM      1  C   UNL     1       3.415   6.210  18.337  0.00  0.00    +0.000 A 
ATOM      2  C   UNL     1       2.725   7.211  17.670  0.00  0.00    +0.000 A 
ATOM      3  C   UNL     1       2.137   8.064  18.639  0.00  0.00    +0.000 A 
ATOM      4  C   UNL     1       2.297   7.452  19.863  0.00  0.00    +0.000 A 
ATOM      5  N   UNL     1       3.028   6.308  19.662  0.00  0.00    +0.000 N 
ATOM      6  H   UNL     1       3.314   5.650  20.380  0.00  0.00    +0.000 HD
ENDROOT
BRANCH   1   8
ATOM      7  N   UNL     1       5.493   5.485  17.180  0.00  0.00    +0.000 N 
ATOM      8  C   UNL     1       4.305   5.155  17.880  0.00  0.00    +0.000 C 
ATOM      9  O   UNL     1       4.024   3.980  18.140  0.00  0.00    +0.000 OA
BRANCH   7  10
ATOM     10  C   UNL     1       6.303   4.347  16.696  0.00  0.00    +0.000 C 
BRANCH  10  12
ATOM     11  C   UNL     1       5.034   4.355  14.447  0.00  0.00    +0.000 C 
ATOM     12  C   UNL     1       6.354   4.098  15.173  0.00  0.00    +0.000 C 
ATOM     13  C   UNL     1       7.442   4.989  14.548  0.00  0.00    +0.000 C 
ENDBRANCH  10  12
ENDBRANCH   7  10
BRANCH   7  14
ATOM     14  C   UNL     1       6.077   6.843  17.255  0.00  0.00    +0.000 C 
BRANCH  14  15
ATOM     15  C   UNL     1       7.566   7.016  17.608  0.00  0.00    +0.000 C 
ATOM     16  C   UNL     1       7.968   8.481  17.801  0.00  0.00    +0.000 C 
ATOM     17  C   UNL     1       7.865   6.251  18.911  0.00  0.00    +0.000 C 
ENDBRANCH  14  15
ENDBRANCH   7  14
ENDBRANCH   1   8
BRANCH   3  18
ATOM     18  S   UNL     1       1.391   9.592  18.295  0.00  0.00    +0.000 S 
ATOM     19  O   UNL     1       2.428  10.362  17.639  0.00  0.00    +0.000 OA
ATOM     20  O   UNL     1       0.163   9.230  17.609  0.00  0.00    +0.000 OA
BRANCH  18  21
ATOM     21  N   UNL     1       0.986  10.353  19.771  0.00  0.00    +0.000 NA
ATOM     22  C   UNL     1       1.012  11.839  19.731  0.00  0.00    +0.000 C 
ATOM     23  C   UNL     1       0.824  12.423  21.127  0.00  0.00    +0.000 C 
ATOM     24  C   UNL     1      -0.449  11.892  21.772  0.00  0.00    +0.000 C 
ATOM     25  C   UNL     1      -0.395  10.370  21.830  0.00  0.00    +0.000 C 
ATOM     26  C   UNL     1      -0.206   9.775  20.439  0.00  0.00    +0.000 C 
ENDBRANCH  18  21
ENDBRANCH   3  18
TORSDOF 7
ENDMDL
MODEL 6
REMARK VINA RESULT:      -6.8      1.849      2.356
REMARK  Name = 
REMARK  11 active torsions:
REMARK  status: ('A' for Active; 'I' for Inactive)
REMARK    1  A    between atoms: C_1  and  C_2
REMARK    2  A    between atoms: C_2  and  C_3
REMARK    3  A    between atoms: C_2  and  C_4
REMARK    4  A    between atoms: C_4  and  N_5
REMARK    5  A    between atoms: N_5  and  C_6
REMARK    6  A    between atoms: C_6  and  C_7
REMARK    7  A    between atoms: C_7  and  C_8
REMARK    8  A    between atoms: C_7  and  C_9
REMARK    9  A    between atoms: C_10  and  C_12
REMARK   10  A    between atoms: C_14  and  S_15
REMARK   11  A    between atoms: S_15  and  N_18
REMARK                            x       y       z     vdW  Elec       q    Type
REMARK                         _______ _______ _______ _____ _____    ______ ____
ROOT
ATOM      1  C   UNL     1       2.671   7.598  18.296  0.00  0.00    +0.000 A 
ATOM      2  C   UNL     1       1.852   8.644  17.895  0.00  0.00    +0.000 A 
ATOM      3  C   UNL     1       1.282   9.229  19.054  0.00  0.00    +0.000 A 
ATOM      4  C   UNL     1       1.590   8.404  20.113  0.00  0.00    +0.000 A 
ATOM      5  N   UNL     1       2.388   7.395  19.634  0.00  0.00    +0.000 N 
ATOM      6  H   UNL     1       2.783   6.637  20.182  0.00  0.00    +0.000 HD
ENDROOT
BRANCH   1   8
ATOM      7  N   UNL     1       3.427   5.335  17.596  0.00  0.00    +0.000 N 
ATOM      8  C   UNL     1       3.599   6.742  17.574  0.00  0.00    +0.000 C 
ATOM      9  O   UNL     1       4.508   7.264  16.921  0.00  0.00    +0.000 OA
BRANCH   7  10
ATOM     10  C   UNL     1       4.454   4.542  16.889  0.00  0.00    +0.000 C 
BRANCH  10  12
ATOM     11  C   UNL     1       7.029   4.567  17.077  0.00  0.00    +0.000 C 
ATOM     12  C   UNL     1       5.704   4.113  17.687  0.00  0.00    +0.000 C 
ATOM     13  C   UNL     1       5.607   4.664  19.121  0.00  0.00    +0.000 C 
ENDBRANCH  10  12
ENDBRANCH   7  10
BRANCH   7  14
ATOM     14  C   UNL     1       2.131   4.724  17.966  0.00  0.00    +0.000 C 
BRANCH  14  15
ATOM     15  C   UNL     1       2.075   3.668  19.085  0.00  0.00    +0.000 C 
ATOM     16  C   UNL     1       0.953   3.927  20.095  0.00  0.00    +0.000 C 
ATOM     17  C   UNL     1       1.856   2.280  18.455  0.00  0.00    +0.000 C 
ENDBRANCH  14  15
ENDBRANCH   7  14
ENDBRANCH   1   8
BRANCH   3  18
ATOM     18  S   UNL     1       0.393  10.720  19.080  0.00  0.00    +0.000 S 
ATOM     19  O   UNL     1       1.317  11.700  18.549  0.00  0.00    +0.000 OA
ATOM     20  O   UNL     1      -0.846  10.394  18.397  0.00  0.00    +0.000 OA
BRANCH  18  21
ATOM     21  N   UNL     1       0.034  11.119  20.703  0.00  0.00    +0.000 NA
ATOM     22  C   UNL     1      -0.550  12.472  20.894  0.00  0.00    +0.000 C 
ATOM     23  C   UNL     1      -0.662  12.810  22.377  0.00  0.00    +0.000 C 
ATOM     24  C   UNL     1      -1.449  11.740  23.121  0.00  0.00    +0.000 C 
ATOM     25  C   UNL     1      -0.776  10.387  22.929  0.00  0.00    +0.000 C 
ATOM     26  C   UNL     1      -0.657  10.038  21.449  0.00  0.00    +0.000 C 
ENDBRANCH  18  21
ENDBRANCH   3  18
TORSDOF 7
ENDMDL
MODEL 7
REMARK VINA RESULT:      -6.8      2.644      7.923
REMARK  Name = 
REMARK  11 active torsions:
REMARK  status: ('A' for Active; 'I' for Inactive)
REMARK    1  A    between atoms: C_1  and  C_2
REMARK    2  A    between atoms: C_2  and  C_3
REMARK    3  A    between atoms: C_2  and  C_4
REMARK    4  A    between atoms: C_4  and  N_5
REMARK    5  A    between atoms: N_5  and  C_6
REMARK    6  A    between atoms: C_6  and  C_7
REMARK    7  A    between atoms: C_7  and  C_8
REMARK    8  A    between atoms: C_7  and  C_9
REMARK    9  A    between atoms: C_10  and  C_12
REMARK   10  A    between atoms: C_14  and  S_15
REMARK   11  A    between atoms: S_15  and  N_18
REMARK                            x       y       z     vdW  Elec       q    Type
REMARK                         _______ _______ _______ _____ _____    ______ ____
ROOT
ATOM      1  C   UNL     1       2.420   7.578  18.856  0.00  0.00    +0.000 A 
ATOM      2  C   UNL     1       3.663   7.058  18.525  0.00  0.00    +0.000 A 
ATOM      3  C   UNL     1       3.822   5.824  19.206  0.00  0.00    +0.000 A 
ATOM      4  C   UNL     1       2.777   5.721  20.099  0.00  0.00    +0.000 A 
ATOM      5  N   UNL     1       1.963   6.811  19.912  0.00  0.00    +0.000 N 
ATOM      6  H   UNL     1       1.106   7.008  20.419  0.00  0.00    +0.000 HD
ENDROOT
BRANCH   1   8
ATOM      7  N   UNL     1       0.833   9.451  19.249  0.00  0.00    +0.000 N 
ATOM      8  C   UNL     1       1.671   8.725  18.367  0.00  0.00    +0.000 C 
ATOM      9  O   UNL     1       1.806   9.068  17.188  0.00  0.00    +0.000 OA
BRANCH   7  10
ATOM     10  C   UNL     1       0.061  10.560  18.651  0.00  0.00    +0.000 C 
BRANCH  10  12
ATOM     11  C   UNL     1      -2.289  11.622  18.800  0.00  0.00    +0.000 C 
ATOM     12  C   UNL     1      -1.464  10.372  18.498  0.00  0.00    +0.000 C 
ATOM     13  C   UNL     1      -1.778   9.910  17.063  0.00  0.00    +0.000 C 
ENDBRANCH  10  12
ENDBRANCH   7  10
BRANCH   7  14
ATOM     14  C   UNL     1       0.999   9.361  20.717  0.00  0.00    +0.000 C 
BRANCH  14  15
ATOM     15  C   UNL     1      -0.117   9.872  21.646  0.00  0.00    +0.000 C 
ATOM     16  C   UNL     1      -0.068   9.244  23.042  0.00  0.00    +0.000 C 
ATOM     17  C   UNL     1       0.010  11.400  21.791  0.00  0.00    +0.000 C 
ENDBRANCH  14  15
ENDBRANCH   7  14
ENDBRANCH   1   8
BRANCH   3  18
ATOM     18  S   UNL     1       5.098   4.685  18.915  0.00  0.00    +0.000 S 
ATOM     19  O   UNL     1       6.177   5.124  19.775  0.00  0.00    +0.000 OA
ATOM     20  O   UNL     1       4.456   3.395  19.096  0.00  0.00    +0.000 OA
BRANCH  18  21
ATOM     21  N   UNL     1       5.597   4.821  17.285  0.00  0.00    +0.000 NA
ATOM     22  C   UNL     1       7.052   4.616  17.063  0.00  0.00    +0.000 C 
ATOM     23  C   UNL     1       7.432   4.939  15.622  0.00  0.00    +0.000 C 
ATOM     24  C   UNL     1       6.587   4.135  14.643  0.00  0.00    +0.000 C 
ATOM     25  C   UNL     1       5.111   4.425  14.887  0.00  0.00    +0.000 C 
ATOM     26  C   UNL     1       4.720   4.106  16.325  0.00  0.00    +0.000 C 
ENDBRANCH  18  21
ENDBRANCH   3  18
TORSDOF 7
ENDMDL
MODEL 8
REMARK VINA RESULT:      -6.7      3.333      7.872
REMARK  Name = 
REMARK  11 active torsions:
REMARK  status: ('A' for Active; 'I' for Inactive)
REMARK    1  A    between atoms: C_1  and  C_2
REMARK    2  A    between atoms: C_2  and  C_3
REMARK    3  A    between atoms: C_2  and  C_4
REMARK    4  A    between atoms: C_4  and  N_5
REMARK    5  A    between atoms: N_5  and  C_6
REMARK    6  A    between atoms: C_6  and  C_7
REMARK    7  A    between atoms: C_7  and  C_8
REMARK    8  A    between atoms: C_7  and  C_9
REMARK    9  A    between atoms: C_10  and  C_12
REMARK   10  A    between atoms: C_14  and  S_15
REMARK   11  A    between atoms: S_15  and  N_18
REMARK                            x       y       z     vdW  Elec       q    Type
REMARK                         _______ _______ _______ _____ _____    ______ ____
ROOT
ATOM      1  C   UNL     1       3.663   6.111  18.019  0.00  0.00    +0.000 A 
ATOM      2  C   UNL     1       5.005   6.345  17.758  0.00  0.00    +0.000 A 
ATOM      3  C   UNL     1       5.483   5.303  16.924  0.00  0.00    +0.000 A 
ATOM      4  C   UNL     1       4.491   4.347  16.868  0.00  0.00    +0.000 A 
ATOM      5  N   UNL     1       3.415   4.825  17.574  0.00  0.00    +0.000 N 
ATOM      6  H   UNL     1       2.529   4.347  17.705  0.00  0.00    +0.000 HD
ENDROOT
BRANCH   1   8
ATOM      7  N   UNL     1       2.072   6.433  19.903  0.00  0.00    +0.000 N 
ATOM      8  C   UNL     1       2.638   6.896  18.688  0.00  0.00    +0.000 C 
ATOM      9  O   UNL     1       2.301   7.980  18.199  0.00  0.00    +0.000 OA
BRANCH   7  10
ATOM     10  C   UNL     1       0.993   7.263  20.477  0.00  0.00    +0.000 C 
BRANCH  10  12
ATOM     11  C   UNL     1       0.313   9.737  20.179  0.00  0.00    +0.000 C 
ATOM     12  C   UNL     1       1.309   8.745  20.777  0.00  0.00    +0.000 C 
ATOM     13  C   UNL     1       1.360   8.955  22.301  0.00  0.00    +0.000 C 
ENDBRANCH  10  12
ENDBRANCH   7  10
BRANCH   7  14
ATOM     14  C   UNL     1       2.754   5.414  20.730  0.00  0.00    +0.000 C 
BRANCH  14  15
ATOM     15  C   UNL     1       2.085   4.047  20.965  0.00  0.00    +0.000 C 
ATOM     16  C   UNL     1       0.852   3.826  20.084  0.00  0.00    +0.000 C 
ATOM     17  C   UNL     1       3.104   2.931  20.669  0.00  0.00    +0.000 C 
ENDBRANCH  14  15
ENDBRANCH   7  14
ENDBRANCH   1   8
BRANCH   3  18
ATOM     18  S   UNL     1       7.024   5.294  16.127  0.00  0.00    +0.000 S 
ATOM     19  O   UNL     1       7.523   6.644  16.292  0.00  0.00    +0.000 OA
ATOM     20  O   UNL     1       7.708   4.154  16.712  0.00  0.00    +0.000 OA
BRANCH  18  21
ATOM     21  N   UNL     1       6.784   4.991  14.462  0.00  0.00    +0.000 NA
ATOM     22  C   UNL     1       7.937   5.345  13.594  0.00  0.00    +0.000 C 
ATOM     23  C   UNL     1       7.566   5.218  12.120  0.00  0.00    +0.000 C 
ATOM     24  C   UNL     1       7.026   3.828  11.813  0.00  0.00    +0.000 C 
ATOM     25  C   UNL     1       5.818   3.543  12.697  0.00  0.00    +0.000 C 
ATOM     26  C   UNL     1       6.177   3.668  14.173  0.00  0.00    +0.000 C 
ENDBRANCH  18  21
ENDBRANCH   3  18
TORSDOF 7
ENDMDL
MODEL 9
REMARK VINA RESULT:      -6.7      2.143      2.852
REMARK  Name = 
REMARK  11 active torsions:
REMARK  status: ('A' for Active; 'I' for Inactive)
REMARK    1  A    between atoms: C_1  and  C_2
REMARK    2  A    between atoms: C_2  and  C_3
REMARK    3  A    between atoms: C_2  and  C_4
REMARK    4  A    between atoms: C_4  and  N_5
REMARK    5  A    between atoms: N_5  and  C_6
REMARK    6  A    between atoms: C_6  and  C_7
REMARK    7  A    between atoms: C_7  and  C_8
REMARK    8  A    between atoms: C_7  and  C_9
REMARK    9  A    between atoms: C_10  and  C_12
REMARK   10  A    between atoms: C_14  and  S_15
REMARK   11  A    between atoms: S_15  and  N_18
REMARK                            x       y       z     vdW  Elec       q    Type
REMARK                         _______ _______ _______ _____ _____    ______ ____
ROOT
ATOM      1  C   UNL     1       2.383   7.550  19.068  0.00  0.00    +0.000 A 
ATOM      2  C   UNL     1       1.601   8.689  18.933  0.00  0.00    +0.000 A 
ATOM      3  C   UNL     1       1.148   9.070  20.222  0.00  0.00    +0.000 A 
ATOM      4  C   UNL     1       1.479   8.046  21.083  0.00  0.00    +0.000 A 
ATOM      5  N   UNL     1       2.182   7.111  20.364  0.00  0.00    +0.000 N 
ATOM      6  H   UNL     1       2.568   6.247  20.729  0.00  0.00    +0.000 HD
ENDROOT
BRANCH   1   8
ATOM      7  N   UNL     1       3.004   5.412  17.961  0.00  0.00    +0.000 N 
ATOM      8  C   UNL     1       3.207   6.805  18.130  0.00  0.00    +0.000 C 
ATOM      9  O   UNL     1       4.054   7.412  17.465  0.00  0.00    +0.000 OA
BRANCH   7  10
ATOM     10  C   UNL     1       3.929   4.726  17.036  0.00  0.00    +0.000 C 
BRANCH  10  12
ATOM     11  C   UNL     1       6.509   4.619  16.967  0.00  0.00    +0.000 C 
ATOM     12  C   UNL     1       5.223   4.125  17.628  0.00  0.00    +0.000 C 
ATOM     13  C   UNL     1       5.289   4.443  19.132  0.00  0.00    +0.000 C 
ENDBRANCH  10  12
ENDBRANCH   7  10
BRANCH   7  14
ATOM     14  C   UNL     1       1.740   4.763  18.376  0.00  0.00    +0.000 C 
BRANCH  14  15
ATOM     15  C   UNL     1       1.779   3.549  19.321  0.00  0.00    +0.000 C 
ATOM     16  C   UNL     1       1.045   3.797  20.643  0.00  0.00    +0.000 C 
ATOM     17  C   UNL     1       1.128   2.344  18.618  0.00  0.00    +0.000 C 
ENDBRANCH  14  15
ENDBRANCH   7  14
ENDBRANCH   1   8
BRANCH   3  18
ATOM     18  S   UNL     1       0.353  10.567  20.593  0.00  0.00    +0.000 S 
ATOM     19  O   UNL     1      -0.859  10.538  19.800  0.00  0.00    +0.000 OA
ATOM     20  O   UNL     1       0.312  10.584  22.045  0.00  0.00    +0.000 OA
BRANCH  18  21
ATOM     21  N   UNL     1       1.334  11.860  20.059  0.00  0.00    +0.000 NA
ATOM     22  C   UNL     1       1.278  12.119  18.597  0.00  0.00    +0.000 C 
ATOM     23  C   UNL     1       2.318  13.157  18.189  0.00  0.00    +0.000 C 
ATOM     24  C   UNL     1       2.158  14.435  19.001  0.00  0.00    +0.000 C 
ATOM     25  C   UNL     1       2.275  14.114  20.485  0.00  0.00    +0.000 C 
ATOM     26  C   UNL     1       1.240  13.076  20.905  0.00  0.00    +0.000 C 
ENDBRANCH  18  21
ENDBRANCH   3  18
TORSDOF 7
ENDMDL
