MODEL 1
REMARK VINA RESULT:      -9.3      0.000      0.000
REMARK  Name = 
REMARK  7 active torsions:
REMARK  status: ('A' for Active; 'I' for Inactive)
REMARK    1  A    between atoms: C_2  and  C_22
REMARK    2  A    between atoms: N_3  and  N_4
REMARK    3  A    between atoms: N_8  and  C_9
REMARK    4  A    between atoms: C_9  and  N_10
REMARK    5  A    between atoms: C_27  and  O_28
REMARK    6  A    between atoms: O_28  and  C_29
REMARK    7  A    between atoms: C_29  and  C_30
REMARK                            x       y       z     vdW  Elec       q    Type
REMARK                         _______ _______ _______ _____ _____    ______ ____
ROOT
ATOM      1  O   UNL     1       4.609   5.518  20.018  0.00  0.00    +0.000 OA
ATOM      2  C   UNL     1       4.203   5.906  18.927  0.00  0.00    +0.000 C 
ATOM      3  N   UNL     1       3.001   6.607  18.744  0.00  0.00    +0.000 N 
ATOM      4  H   UNL     1       2.726   6.943  17.823  0.00  0.00    +0.000 HD
ENDROOT
BRANCH   3   5
ATOM      5  N   UNL     1       2.246   7.024  19.821  0.00  0.00    +0.000 NA
ATOM      6  C   UNL     1       1.665   8.184  19.724  0.00  0.00    +0.000 C 
ATOM      7  C   UNL     1       1.684   9.156  18.537  0.00  0.00    +0.000 C 
ATOM      8  O   UNL     1       2.092   8.861  17.430  0.00  0.00    +0.000 OA
ATOM      9  N   UNL     1       1.155  10.341  19.015  0.00  0.00    +0.000 N 
ATOM     10  C   UNL     1       0.689  10.175  20.329  0.00  0.00    +0.000 A 
ATOM     11  C   UNL     1       0.056  11.107  21.133  0.00  0.00    +0.000 A 
ATOM     12  C   UNL     1      -0.351  10.703  22.406  0.00  0.00    +0.000 A 
ATOM     13  C   UNL     1      -0.119   9.385  22.852  0.00  0.00    +0.000 A 
ATOM     14  C   UNL     1       0.537   8.456  22.039  0.00  0.00    +0.000 A 
ATOM     15  C   UNL     1       0.931   8.877  20.784  0.00  0.00    +0.000 A 
BRANCH   9  16
ATOM     16  C   UNL     1       0.987  11.541  18.237  0.00  0.00    +0.000 C 
BRANCH  16  17
ATOM     17  N   UNL     1       1.753  12.669  18.809  0.00  0.00    +0.000 NA
ATOM     18  C   UNL     1       2.995  12.881  18.048  0.00  0.00    +0.000 C 
ATOM     19  C   UNL     1       3.702  14.203  18.347  0.00  0.00    +0.000 C 
ATOM     20  C   UNL     1       2.754  15.368  18.126  0.00  0.00    +0.000 C 
ATOM     21  C   UNL     1       1.560  15.205  19.050  0.00  0.00    +0.000 C 
ATOM     22  C   UNL     1       0.872  13.852  18.854  0.00  0.00    +0.000 C 
ENDBRANCH  16  17
ENDBRANCH   9  16
ENDBRANCH   3   5
BRANCH   2  23
ATOM     23  C   UNL     1       5.000   5.633  17.669  0.00  0.00    +0.000 A 
ATOM     24  C   UNL     1       6.229   6.302  17.482  0.00  0.00    +0.000 A 
ATOM     25  C   UNL     1       7.026   6.068  16.352  0.00  0.00    +0.000 A 
ATOM     26  C   UNL     1       6.572   5.223  15.353  0.00  0.00    +0.000 A 
ATOM     27  C   UNL     1       5.338   4.596  15.491  0.00  0.00    +0.000 A 
ATOM     28  C   UNL     1       4.567   4.737  16.665  0.00  0.00    +0.000 A 
BRANCH  28  29
ATOM     29  O   UNL     1       3.417   3.995  16.852  0.00  0.00    +0.000 OA
BRANCH  29  30
ATOM     30  C   UNL     1       3.575   2.828  17.675  0.00  0.00    +0.000 C 
BRANCH  30  31
ATOM     31  C   UNL     1       2.753   2.840  18.941  0.00  0.00    +0.000 A 
ATOM     32  C   UNL     1       1.408   3.216  18.961  0.00  0.00    +0.000 A 
ATOM     33  C   UNL     1       0.714   3.265  20.171  0.00  0.00    +0.000 A 
ATOM     34  C   UNL     1       1.352   2.924  21.365  0.00  0.00    +0.000 A 
ATOM     35  C   UNL     1       2.679   2.506  21.350  0.00  0.00    +0.000 A 
ATOM     36  C   UNL     1       3.372   2.453  20.144  0.00  0.00    +0.000 A 
ENDBRANCH  30  31
ENDBRANCH  29  30
ENDBRANCH  28  29
ENDBRANCH   2  23
TORSDOF 7
ENDMDL
MODEL 2
REMARK VINA RESULT:      -9.3      2.112      2.976
REMARK  Name = 
REMARK  7 active torsions:
REMARK  status: ('A' for Active; 'I' for Inactive)
REMARK    1  A    between atoms: C_2  and  C_22
REMARK    2  A    between atoms: N_3  and  N_4
REMARK    3  A    between atoms: N_8  and  C_9
REMARK    4  A    between atoms: C_9  and  N_10
REMARK    5  A    between atoms: C_27  and  O_28
REMARK    6  A    between atoms: O_28  and  C_29
REMARK    7  A    between atoms: C_29  and  C_30
REMARK                            x       y       z     vdW  Elec       q    Type
REMARK                         _______ _______ _______ _____ _____    ______ ____
ROOT
ATOM      1  O   UNL     1       4.057   5.479  19.906  0.00  0.00    +0.000 OA
ATOM      2  C   UNL     1       3.735   6.137  18.921  0.00  0.00    +0.000 C 
ATOM      3  N   UNL     1       2.751   7.138  18.936  0.00  0.00    +0.000 N 
ATOM      4  H   UNL     1       2.548   7.684  18.101  0.00  0.00    +0.000 HD
ENDROOT
BRANCH   3   5
ATOM      5  N   UNL     1       2.161   7.542  20.116  0.00  0.00    +0.000 NA
ATOM      6  C   UNL     1       1.257   8.474  20.037  0.00  0.00    +0.000 C 
ATOM      7  C   UNL     1       0.729   9.178  18.781  0.00  0.00    +0.000 C 
ATOM      8  O   UNL     1       0.955   8.796  17.648  0.00  0.00    +0.000 OA
ATOM      9  N   UNL     1      -0.008  10.255  19.237  0.00  0.00    +0.000 N 
ATOM     10  C   UNL     1      -0.107  10.224  20.636  0.00  0.00    +0.000 A 
ATOM     11  C   UNL     1      -0.795  11.096  21.462  0.00  0.00    +0.000 A 
ATOM     12  C   UNL     1      -0.778  10.847  22.836  0.00  0.00    +0.000 A 
ATOM     13  C   UNL     1      -0.076   9.740  23.359  0.00  0.00    +0.000 A 
ATOM     14  C   UNL     1       0.631   8.876  22.518  0.00  0.00    +0.000 A 
ATOM     15  C   UNL     1       0.600   9.141  21.163  0.00  0.00    +0.000 A 
BRANCH   9  16
ATOM     16  C   UNL     1      -0.688  11.204  18.393  0.00  0.00    +0.000 C 
BRANCH  16  17
ATOM     17  N   UNL     1      -2.067  10.768  18.087  0.00  0.00    +0.000 NA
ATOM     18  C   UNL     1      -3.037  11.762  18.574  0.00  0.00    +0.000 C 
ATOM     19  C   UNL     1      -4.457  11.575  18.040  0.00  0.00    +0.000 C 
ATOM     20  C   UNL     1      -4.450  11.557  16.522  0.00  0.00    +0.000 C 
ATOM     21  C   UNL     1      -3.571  10.411  16.053  0.00  0.00    +0.000 C 
ATOM     22  C   UNL     1      -2.159  10.504  16.638  0.00  0.00    +0.000 C 
ENDBRANCH  16  17
ENDBRANCH   9  16
ENDBRANCH   3   5
BRANCH   2  23
ATOM     23  C   UNL     1       4.400   5.891  17.583  0.00  0.00    +0.000 A 
ATOM     24  C   UNL     1       4.507   6.961  16.668  0.00  0.00    +0.000 A 
ATOM     25  C   UNL     1       5.137   6.801  15.426  0.00  0.00    +0.000 A 
ATOM     26  C   UNL     1       5.601   5.552  15.044  0.00  0.00    +0.000 A 
ATOM     27  C   UNL     1       5.455   4.472  15.908  0.00  0.00    +0.000 A 
ATOM     28  C   UNL     1       4.917   4.631  17.203  0.00  0.00    +0.000 A 
BRANCH  28  29
ATOM     29  O   UNL     1       4.912   3.584  18.103  0.00  0.00    +0.000 OA
BRANCH  29  30
ATOM     30  C   UNL     1       3.806   2.676  17.972  0.00  0.00    +0.000 C 
BRANCH  30  31
ATOM     31  C   UNL     1       2.808   2.740  19.102  0.00  0.00    +0.000 A 
ATOM     32  C   UNL     1       1.467   3.078  18.904  0.00  0.00    +0.000 A 
ATOM     33  C   UNL     1       0.604   3.178  19.996  0.00  0.00    +0.000 A 
ATOM     34  C   UNL     1       1.067   2.927  21.288  0.00  0.00    +0.000 A 
ATOM     35  C   UNL     1       2.389   2.546  21.492  0.00  0.00    +0.000 A 
ATOM     36  C   UNL     1       3.252   2.442  20.404  0.00  0.00    +0.000 A 
ENDBRANCH  30  31
ENDBRANCH  29  30
ENDBRANCH  28  29
ENDBRANCH   2  23
TORSDOF 7
ENDMDL
MODEL 3
REMARK VINA RESULT:      -8.6      2.463      9.047
REMARK  Name = 
REMARK  7 active torsions:
REMARK  status: ('A' for Active; 'I' for Inactive)
REMARK    1  A    between atoms: C_2  and  C_22
REMARK    2  A    between atoms: N_3  and  N_4
REMARK    3  A    between atoms: N_8  and  C_9
REMARK    4  A    between atoms: C_9  and  N_10
REMARK    5  A    between atoms: C_27  and  O_28
REMARK    6  A    between atoms: O_28  and  C_29
REMARK    7  A    between atoms: C_29  and  C_30
REMARK                            x       y       z     vdW  Elec       q    Type
REMARK                         _______ _______ _______ _____ _____    ______ ____
ROOT
ATOM      1  O   UNL     1       1.464  10.378  18.260  0.00  0.00    +0.000 OA
ATOM      2  C   UNL     1       1.434   9.551  19.167  0.00  0.00    +0.000 C 
ATOM      3  N   UNL     1       2.029   8.283  19.090  0.00  0.00    +0.000 N 
ATOM      4  H   UNL     1       2.011   7.647  19.886  0.00  0.00    +0.000 HD
ENDROOT
BRANCH   3   5
ATOM      5  N   UNL     1       2.811   7.925  18.012  0.00  0.00    +0.000 NA
ATOM      6  C   UNL     1       3.421   6.778  18.076  0.00  0.00    +0.000 C 
ATOM      7  C   UNL     1       3.363   5.736  19.201  0.00  0.00    +0.000 C 
ATOM      8  O   UNL     1       2.554   5.768  20.109  0.00  0.00    +0.000 OA
ATOM      9  N   UNL     1       4.374   4.834  18.928  0.00  0.00    +0.000 N 
ATOM     10  C   UNL     1       4.969   5.123  17.690  0.00  0.00    +0.000 A 
ATOM     11  C   UNL     1       5.979   4.429  17.047  0.00  0.00    +0.000 A 
ATOM     12  C   UNL     1       6.393   4.889  15.795  0.00  0.00    +0.000 A 
ATOM     13  C   UNL     1       5.798   6.027  15.212  0.00  0.00    +0.000 A 
ATOM     14  C   UNL     1       4.790   6.732  15.878  0.00  0.00    +0.000 A 
ATOM     15  C   UNL     1       4.396   6.259  17.115  0.00  0.00    +0.000 A 
BRANCH   9  16
ATOM     16  C   UNL     1       4.690   3.683  19.734  0.00  0.00    +0.000 C 
BRANCH  16  17
ATOM     17  N   UNL     1       3.534   2.767  19.850  0.00  0.00    +0.000 NA
ATOM     18  C   UNL     1       2.741   3.096  21.045  0.00  0.00    +0.000 C 
ATOM     19  C   UNL     1       1.365   2.431  21.093  0.00  0.00    +0.000 C 
ATOM     20  C   UNL     1       0.576   2.764  19.840  0.00  0.00    +0.000 C 
ATOM     21  C   UNL     1       1.347   2.260  18.632  0.00  0.00    +0.000 C 
ATOM     22  C   UNL     1       2.769   2.827  18.590  0.00  0.00    +0.000 C 
ENDBRANCH  16  17
ENDBRANCH   9  16
ENDBRANCH   3   5
BRANCH   2  23
ATOM     23  C   UNL     1       0.720   9.863  20.466  0.00  0.00    +0.000 A 
ATOM     24  C   UNL     1       1.076   9.144  21.629  0.00  0.00    +0.000 A 
ATOM     25  C   UNL     1       0.471   9.408  22.866  0.00  0.00    +0.000 A 
ATOM     26  C   UNL     1      -0.553  10.338  22.947  0.00  0.00    +0.000 A 
ATOM     27  C   UNL     1      -0.957  11.018  21.802  0.00  0.00    +0.000 A 
ATOM     28  C   UNL     1      -0.293  10.842  20.569  0.00  0.00    +0.000 A 
BRANCH  28  29
ATOM     29  O   UNL     1      -0.606  11.629  19.477  0.00  0.00    +0.000 OA
BRANCH  29  30
ATOM     30  C   UNL     1      -2.001  11.945  19.338  0.00  0.00    +0.000 C 
BRANCH  30  31
ATOM     31  C   UNL     1      -2.637  11.422  18.073  0.00  0.00    +0.000 A 
ATOM     32  C   UNL     1      -3.951  11.728  17.710  0.00  0.00    +0.000 A 
ATOM     33  C   UNL     1      -4.505  11.168  16.558  0.00  0.00    +0.000 A 
ATOM     34  C   UNL     1      -3.749  10.313  15.754  0.00  0.00    +0.000 A 
ATOM     35  C   UNL     1      -2.426  10.037  16.084  0.00  0.00    +0.000 A 
ATOM     36  C   UNL     1      -1.870  10.598  17.230  0.00  0.00    +0.000 A 
ENDBRANCH  30  31
ENDBRANCH  29  30
ENDBRANCH  28  29
ENDBRANCH   2  23
TORSDOF 7
ENDMDL
MODEL 4
REMARK VINA RESULT:      -8.5      1.684      2.567
REMARK  Name = 
REMARK  7 active torsions:
REMARK  status: ('A' for Active; 'I' for Inactive)
REMARK    1  A    between atoms: C_2  and  C_22
REMARK    2  A    between atoms: N_3  and  N_4
REMARK    3  A    between atoms: N_8  and  C_9
REMARK    4  A    between atoms: C_9  and  N_10
REMARK    5  A    between atoms: C_27  and  O_28
REMARK    6  A    between atoms: O_28  and  C_29
REMARK    7  A    between atoms: C_29  and  C_30
REMARK                            x       y       z     vdW  Elec       q    Type
REMARK                         _______ _______ _______ _____ _____    ______ ____
ROOT
ATOM      1  O   UNL     1       4.433   5.657  19.788  0.00  0.00    +0.000 OA
ATOM      2  C   UNL     1       3.895   6.025  18.748  0.00  0.00    +0.000 C 
ATOM      3  N   UNL     1       2.671   6.709  18.700  0.00  0.00    +0.000 N 
ATOM      4  H   UNL     1       2.285   7.029  17.813  0.00  0.00    +0.000 HD
ENDROOT
BRANCH   3   5
ATOM      5  N   UNL     1       2.044   7.134  19.853  0.00  0.00    +0.000 NA
ATOM      6  C   UNL     1       1.401   8.263  19.796  0.00  0.00    +0.000 C 
ATOM      7  C   UNL     1       1.218   9.190  18.587  0.00  0.00    +0.000 C 
ATOM      8  O   UNL     1       1.491   8.870  17.445  0.00  0.00    +0.000 OA
ATOM      9  N   UNL     1       0.700  10.367  19.092  0.00  0.00    +0.000 N 
ATOM     10  C   UNL     1       0.418  10.231  20.460  0.00  0.00    +0.000 A 
ATOM     11  C   UNL     1      -0.149  11.165  21.311  0.00  0.00    +0.000 A 
ATOM     12  C   UNL     1      -0.367  10.793  22.639  0.00  0.00    +0.000 A 
ATOM     13  C   UNL     1      -0.016   9.504  23.093  0.00  0.00    +0.000 A 
ATOM     14  C   UNL     1       0.572   8.574  22.230  0.00  0.00    +0.000 A 
ATOM     15  C   UNL     1       0.779   8.964  20.922  0.00  0.00    +0.000 A 
BRANCH   9  16
ATOM     16  C   UNL     1       0.375  11.529  18.305  0.00  0.00    +0.000 C 
BRANCH  16  17
ATOM     17  N   UNL     1      -0.974  11.420  17.709  0.00  0.00    +0.000 NA
ATOM     18  C   UNL     1      -1.301  10.010  17.439  0.00  0.00    +0.000 C 
ATOM     19  C   UNL     1      -2.774   9.751  17.122  0.00  0.00    +0.000 C 
ATOM     20  C   UNL     1      -3.653  10.282  18.239  0.00  0.00    +0.000 C 
ATOM     21  C   UNL     1      -3.414  11.775  18.379  0.00  0.00    +0.000 C 
ATOM     22  C   UNL     1      -1.933  12.093  18.606  0.00  0.00    +0.000 C 
ENDBRANCH  16  17
ENDBRANCH   9  16
ENDBRANCH   3   5
BRANCH   2  23
ATOM     23  C   UNL     1       4.541   5.741  17.408  0.00  0.00    +0.000 A 
ATOM     24  C   UNL     1       4.751   6.813  16.512  0.00  0.00    +0.000 A 
ATOM     25  C   UNL     1       5.371   6.618  15.270  0.00  0.00    +0.000 A 
ATOM     26  C   UNL     1       5.719   5.338  14.868  0.00  0.00    +0.000 A 
ATOM     27  C   UNL     1       5.470   4.260  15.712  0.00  0.00    +0.000 A 
ATOM     28  C   UNL     1       4.942   4.446  17.008  0.00  0.00    +0.000 A 
BRANCH  28  29
ATOM     29  O   UNL     1       4.837   3.388  17.889  0.00  0.00    +0.000 OA
BRANCH  29  30
ATOM     30  C   UNL     1       3.613   2.641  17.795  0.00  0.00    +0.000 C 
BRANCH  30  31
ATOM     31  C   UNL     1       2.748   2.700  19.030  0.00  0.00    +0.000 A 
ATOM     32  C   UNL     1       1.370   2.923  18.974  0.00  0.00    +0.000 A 
ATOM     33  C   UNL     1       0.631   3.027  20.153  0.00  0.00    +0.000 A 
ATOM     34  C   UNL     1       1.257   2.893  21.393  0.00  0.00    +0.000 A 
ATOM     35  C   UNL     1       2.621   2.627  21.460  0.00  0.00    +0.000 A 
ATOM     36  C   UNL     1       3.360   2.519  20.285  0.00  0.00    +0.000 A 
ENDBRANCH  30  31
ENDBRANCH  29  30
ENDBRANCH  28  29
ENDBRANCH   2  23
TORSDOF 7
ENDMDL
MODEL 5
REMARK VINA RESULT:      -8.5      1.042      1.337
REMARK  Name = 
REMARK  7 active torsions:
REMARK  status: ('A' for Active; 'I' for Inactive)
REMARK    1  A    between atoms: C_2  and  C_22
REMARK    2  A    between atoms: N_3  and  N_4
REMARK    3  A    between atoms: N_8  and  C_9
REMARK    4  A    between atoms: C_9  and  N_10
REMARK    5  A    between atoms: C_27  and  O_28
REMARK    6  A    between atoms: O_28  and  C_29
REMARK    7  A    between atoms: C_29  and  C_30
REMARK                            x       y       z     vdW  Elec       q    Type
REMARK                         _______ _______ _______ _____ _____    ______ ____
ROOT
ATOM      1  O   UNL     1       3.989   5.607  19.950  0.00  0.00    +0.000 OA
ATOM      2  C   UNL     1       3.659   6.227  18.943  0.00  0.00    +0.000 C 
ATOM      3  N   UNL     1       2.637   7.188  18.917  0.00  0.00    +0.000 N 
ATOM      4  H   UNL     1       2.427   7.705  18.064  0.00  0.00    +0.000 HD
ENDROOT
BRANCH   3   5
ATOM      5  N   UNL     1       2.010   7.597  20.075  0.00  0.00    +0.000 NA
ATOM      6  C   UNL     1       1.211   8.619  19.988  0.00  0.00    +0.000 C 
ATOM      7  C   UNL     1       0.842   9.430  18.738  0.00  0.00    +0.000 C 
ATOM      8  O   UNL     1       1.105   9.077  17.604  0.00  0.00    +0.000 OA
ATOM      9  N   UNL     1       0.186  10.555  19.201  0.00  0.00    +0.000 N 
ATOM     10  C   UNL     1      -0.010  10.472  20.588  0.00  0.00    +0.000 A 
ATOM     11  C   UNL     1      -0.664  11.372  21.413  0.00  0.00    +0.000 A 
ATOM     12  C   UNL     1      -0.765  11.061  22.770  0.00  0.00    +0.000 A 
ATOM     13  C   UNL     1      -0.214   9.866  23.279  0.00  0.00    +0.000 A 
ATOM     14  C   UNL     1       0.459   8.972  22.441  0.00  0.00    +0.000 A 
ATOM     15  C   UNL     1       0.548   9.300  21.103  0.00  0.00    +0.000 A 
BRANCH   9  16
ATOM     16  C   UNL     1      -0.337  11.606  18.366  0.00  0.00    +0.000 C 
BRANCH  16  17
ATOM     17  N   UNL     1       0.566  12.777  18.339  0.00  0.00    +0.000 NA
ATOM     18  C   UNL     1      -0.102  13.950  18.924  0.00  0.00    +0.000 C 
ATOM     19  C   UNL     1       0.832  15.120  19.236  0.00  0.00    +0.000 C 
ATOM     20  C   UNL     1       1.963  14.663  20.140  0.00  0.00    +0.000 C 
ATOM     21  C   UNL     1       2.736  13.564  19.433  0.00  0.00    +0.000 C 
ATOM     22  C   UNL     1       1.824  12.407  19.016  0.00  0.00    +0.000 C 
ENDBRANCH  16  17
ENDBRANCH   9  16
ENDBRANCH   3   5
BRANCH   2  23
ATOM     23  C   UNL     1       4.356   5.974  17.623  0.00  0.00    +0.000 A 
ATOM     24  C   UNL     1       4.429   7.022  16.679  0.00  0.00    +0.000 A 
ATOM     25  C   UNL     1       5.086   6.857  15.452  0.00  0.00    +0.000 A 
ATOM     26  C   UNL     1       5.613   5.621  15.113  0.00  0.00    +0.000 A 
ATOM     27  C   UNL     1       5.504   4.559  16.006  0.00  0.00    +0.000 A 
ATOM     28  C   UNL     1       4.937   4.730  17.288  0.00  0.00    +0.000 A 
BRANCH  28  29
ATOM     29  O   UNL     1       4.967   3.710  18.218  0.00  0.00    +0.000 OA
BRANCH  29  30
ATOM     30  C   UNL     1       3.919   2.737  18.084  0.00  0.00    +0.000 C 
BRANCH  30  31
ATOM     31  C   UNL     1       2.905   2.751  19.202  0.00  0.00    +0.000 A 
ATOM     32  C   UNL     1       1.556   3.041  18.991  0.00  0.00    +0.000 A 
ATOM     33  C   UNL     1       0.676   3.098  20.073  0.00  0.00    +0.000 A 
ATOM     34  C   UNL     1       1.132   2.851  21.368  0.00  0.00    +0.000 A 
ATOM     35  C   UNL     1       2.466   2.518  21.585  0.00  0.00    +0.000 A 
ATOM     36  C   UNL     1       3.345   2.457  20.507  0.00  0.00    +0.000 A 
ENDBRANCH  30  31
ENDBRANCH  29  30
ENDBRANCH  28  29
ENDBRANCH   2  23
TORSDOF 7
ENDMDL
MODEL 6
REMARK VINA RESULT:      -8.4      1.028      1.364
REMARK  Name = 
REMARK  7 active torsions:
REMARK  status: ('A' for Active; 'I' for Inactive)
REMARK    1  A    between atoms: C_2  and  C_22
REMARK    2  A    between atoms: N_3  and  N_4
REMARK    3  A    between atoms: N_8  and  C_9
REMARK    4  A    between atoms: C_9  and  N_10
REMARK    5  A    between atoms: C_27  and  O_28
REMARK    6  A    between atoms: O_28  and  C_29
REMARK    7  A    between atoms: C_29  and  C_30
REMARK                            x       y       z     vdW  Elec       q    Type
REMARK                         _______ _______ _______ _____ _____    ______ ____
ROOT
ATOM      1  O   UNL     1       1.645   5.703  18.052  0.00  0.00    +0.000 OA
ATOM      2  C   UNL     1       2.759   6.169  18.269  0.00  0.00    +0.000 C 
ATOM      3  N   UNL     1       3.041   7.072  19.305  0.00  0.00    +0.000 N 
ATOM      4  H   UNL     1       3.992   7.400  19.469  0.00  0.00    +0.000 HD
ENDROOT
BRANCH   3   5
ATOM      5  N   UNL     1       2.087   7.401  20.246  0.00  0.00    +0.000 NA
ATOM      6  C   UNL     1       1.527   8.570  20.138  0.00  0.00    +0.000 C 
ATOM      7  C   UNL     1       1.770   9.642  19.068  0.00  0.00    +0.000 C 
ATOM      8  O   UNL     1       2.389   9.441  18.040  0.00  0.00    +0.000 OA
ATOM      9  N   UNL     1       1.148  10.785  19.535  0.00  0.00    +0.000 N 
ATOM     10  C   UNL     1       0.435  10.509  20.712  0.00  0.00    +0.000 A 
ATOM     11  C   UNL     1      -0.351  11.374  21.455  0.00  0.00    +0.000 A 
ATOM     12  C   UNL     1      -0.996  10.864  22.584  0.00  0.00    +0.000 A 
ATOM     13  C   UNL     1      -0.845   9.510  22.949  0.00  0.00    +0.000 A 
ATOM     14  C   UNL     1      -0.036   8.649  22.202  0.00  0.00    +0.000 A 
ATOM     15  C   UNL     1       0.593   9.175  21.091  0.00  0.00    +0.000 A 
BRANCH   9  16
ATOM     16  C   UNL     1       1.126  12.051  18.847  0.00  0.00    +0.000 C 
BRANCH  16  17
ATOM     17  N   UNL     1       2.405  12.776  19.005  0.00  0.00    +0.000 NA
ATOM     18  C   UNL     1       2.593  13.726  17.898  0.00  0.00    +0.000 C 
ATOM     19  C   UNL     1       3.712  14.744  18.120  0.00  0.00    +0.000 C 
ATOM     20  C   UNL     1       3.486  15.499  19.418  0.00  0.00    +0.000 C 
ATOM     21  C   UNL     1       3.465  14.501  20.563  0.00  0.00    +0.000 C 
ATOM     22  C   UNL     1       2.420  13.404  20.340  0.00  0.00    +0.000 C 
ENDBRANCH  16  17
ENDBRANCH   9  16
ENDBRANCH   3   5
BRANCH   2  23
ATOM     23  C   UNL     1       3.934   5.789  17.392  0.00  0.00    +0.000 A 
ATOM     24  C   UNL     1       5.008   6.697  17.260  0.00  0.00    +0.000 A 
ATOM     25  C   UNL     1       6.136   6.389  16.487  0.00  0.00    +0.000 A 
ATOM     26  C   UNL     1       6.176   5.205  15.768  0.00  0.00    +0.000 A 
ATOM     27  C   UNL     1       5.104   4.321  15.840  0.00  0.00    +0.000 A 
ATOM     28  C   UNL     1       4.005   4.563  16.693  0.00  0.00    +0.000 A 
BRANCH  28  29
ATOM     29  O   UNL     1       3.019   3.611  16.867  0.00  0.00    +0.000 OA
BRANCH  29  30
ATOM     30  C   UNL     1       3.366   2.534  17.753  0.00  0.00    +0.000 C 
BRANCH  30  31
ATOM     31  C   UNL     1       2.738   2.625  19.123  0.00  0.00    +0.000 A 
ATOM     32  C   UNL     1       3.493   2.620  20.298  0.00  0.00    +0.000 A 
ATOM     33  C   UNL     1       2.854   2.647  21.538  0.00  0.00    +0.000 A 
ATOM     34  C   UNL     1       1.462   2.696  21.614  0.00  0.00    +0.000 A 
ATOM     35  C   UNL     1       0.702   2.745  20.450  0.00  0.00    +0.000 A 
ATOM     36  C   UNL     1       1.337   2.722  19.211  0.00  0.00    +0.000 A 
ENDBRANCH  30  31
ENDBRANCH  29  30
ENDBRANCH  28  29
ENDBRANCH   2  23
TORSDOF 7
ENDMDL
MODEL 7
REMARK VINA RESULT:      -8.4      1.576      2.606
REMARK  Name = 
REMARK  7 active torsions:
REMARK  status: ('A' for Active; 'I' for Inactive)
REMARK    1  A    between atoms: C_2  and  C_22
REMARK    2  A    between atoms: N_3  and  N_4
REMARK    3  A    between atoms: N_8  and  C_9
REMARK    4  A    between atoms: C_9  and  N_10
REMARK    5  A    between atoms: C_27  and  O_28
REMARK    6  A    between atoms: O_28  and  C_29
REMARK    7  A    between atoms: C_29  and  C_30
REMARK                            x       y       z     vdW  Elec       q    Type
REMARK                         _______ _______ _______ _____ _____    ______ ____
ROOT
ATOM      1  O   UNL     1       4.284   5.470  20.241  0.00  0.00    +0.000 OA
ATOM      2  C   UNL     1       3.945   5.980  19.177  0.00  0.00    +0.000 C 
ATOM      3  N   UNL     1       2.824   6.811  19.029  0.00  0.00    +0.000 N 
ATOM      4  H   UNL     1       2.607   7.243  18.133  0.00  0.00    +0.000 HD
ENDROOT
BRANCH   3   5
ATOM      5  N   UNL     1       2.089   7.220  20.123  0.00  0.00    +0.000 NA
ATOM      6  C   UNL     1       1.421   8.329  20.006  0.00  0.00    +0.000 C 
ATOM      7  C   UNL     1       1.316   9.248  18.783  0.00  0.00    +0.000 C 
ATOM      8  O   UNL     1       1.695   8.936  17.670  0.00  0.00    +0.000 OA
ATOM      9  N   UNL     1       0.723  10.412  19.237  0.00  0.00    +0.000 N 
ATOM     10  C   UNL     1       0.329  10.270  20.577  0.00  0.00    +0.000 A 
ATOM     11  C   UNL     1      -0.335  11.188  21.372  0.00  0.00    +0.000 A 
ATOM     12  C   UNL     1      -0.655  10.811  22.678  0.00  0.00    +0.000 A 
ATOM     13  C   UNL     1      -0.308   9.534  23.165  0.00  0.00    +0.000 A 
ATOM     14  C   UNL     1       0.378   8.620  22.360  0.00  0.00    +0.000 A 
ATOM     15  C   UNL     1       0.685   9.014  21.072  0.00  0.00    +0.000 A 
BRANCH   9  16
ATOM     16  C   UNL     1       0.434  11.562  18.421  0.00  0.00    +0.000 C 
BRANCH  16  17
ATOM     17  N   UNL     1      -0.886  11.443  17.764  0.00  0.00    +0.000 NA
ATOM     18  C   UNL     1      -1.194  10.030  17.490  0.00  0.00    +0.000 C 
ATOM     19  C   UNL     1      -2.650   9.763  17.107  0.00  0.00    +0.000 C 
ATOM     20  C   UNL     1      -3.582  10.298  18.179  0.00  0.00    +0.000 C 
ATOM     21  C   UNL     1      -3.355  11.794  18.318  0.00  0.00    +0.000 C 
ATOM     22  C   UNL     1      -1.888  12.119  18.610  0.00  0.00    +0.000 C 
ENDBRANCH  16  17
ENDBRANCH   9  16
ENDBRANCH   3   5
BRANCH   2  23
ATOM     23  C   UNL     1       4.742   5.723  17.914  0.00  0.00    +0.000 A 
ATOM     24  C   UNL     1       6.011   6.326  17.776  0.00  0.00    +0.000 A 
ATOM     25  C   UNL     1       6.808   6.102  16.644  0.00  0.00    +0.000 A 
ATOM     26  C   UNL     1       6.317   5.338  15.597  0.00  0.00    +0.000 A 
ATOM     27  C   UNL     1       5.046   4.781  15.689  0.00  0.00    +0.000 A 
ATOM     28  C   UNL     1       4.269   4.908  16.861  0.00  0.00    +0.000 A 
BRANCH  28  29
ATOM     29  O   UNL     1       3.074   4.230  16.997  0.00  0.00    +0.000 OA
BRANCH  29  30
ATOM     30  C   UNL     1       3.179   2.932  17.605  0.00  0.00    +0.000 C 
BRANCH  30  31
ATOM     31  C   UNL     1       2.667   2.864  19.023  0.00  0.00    +0.000 A 
ATOM     32  C   UNL     1       3.453   2.412  20.086  0.00  0.00    +0.000 A 
ATOM     33  C   UNL     1       2.906   2.315  21.367  0.00  0.00    +0.000 A 
ATOM     34  C   UNL     1       1.580   2.683  21.598  0.00  0.00    +0.000 A 
ATOM     35  C   UNL     1       0.802   3.175  20.555  0.00  0.00    +0.000 A 
ATOM     36  C   UNL     1       1.346   3.276  19.278  0.00  0.00    +0.000 A 
ENDBRANCH  30  31
ENDBRANCH  29  30
ENDBRANCH  28  29
ENDBRANCH   2  23
TORSDOF 7
ENDMDL
MODEL 8
REMARK VINA RESULT:      -8.3      1.199      1.632
REMARK  Name = 
REMARK  7 active torsions:
REMARK  status: ('A' for Active; 'I' for Inactive)
REMARK    1  A    between atoms: C_2  and  C_22
REMARK    2  A    between atoms: N_3  and  N_4
REMARK    3  A    between atoms: N_8  and  C_9
REMARK    4  A    between atoms: C_9  and  N_10
REMARK    5  A    between atoms: C_27  and  O_28
REMARK    6  A    between atoms: O_28  and  C_29
REMARK    7  A    between atoms: C_29  and  C_30
REMARK                            x       y       z     vdW  Elec       q    Type
REMARK                         _______ _______ _______ _____ _____    ______ ____
ROOT
ATOM      1  O   UNL     1       3.318   5.618  20.376  0.00  0.00    +0.000 OA
ATOM      2  C   UNL     1       3.277   6.302  19.358  0.00  0.00    +0.000 C 
ATOM      3  N   UNL     1       2.371   7.355  19.160  0.00  0.00    +0.000 N 
ATOM      4  H   UNL     1       2.404   7.921  18.314  0.00  0.00    +0.000 HD
ENDROOT
BRANCH   3   5
ATOM      5  N   UNL     1       1.536   7.780  20.173  0.00  0.00    +0.000 NA
ATOM      6  C   UNL     1       1.134   9.016  20.130  0.00  0.00    +0.000 C 
ATOM      7  C   UNL     1       1.447  10.079  19.070  0.00  0.00    +0.000 C 
ATOM      8  O   UNL     1       1.963   9.829  17.997  0.00  0.00    +0.000 OA
ATOM      9  N   UNL     1       1.019  11.279  19.604  0.00  0.00    +0.000 N 
ATOM     10  C   UNL     1       0.356  11.065  20.822  0.00  0.00    +0.000 A 
ATOM     11  C   UNL     1      -0.254  12.003  21.638  0.00  0.00    +0.000 A 
ATOM     12  C   UNL     1      -0.886  11.548  22.798  0.00  0.00    +0.000 A 
ATOM     13  C   UNL     1      -0.896  10.176  23.122  0.00  0.00    +0.000 A 
ATOM     14  C   UNL     1      -0.262   9.239  22.301  0.00  0.00    +0.000 A 
ATOM     15  C   UNL     1       0.357   9.710  21.160  0.00  0.00    +0.000 A 
BRANCH   9  16
ATOM     16  C   UNL     1       1.123  12.557  18.947  0.00  0.00    +0.000 C 
BRANCH  16  17
ATOM     17  N   UNL     1       2.501  13.089  19.011  0.00  0.00    +0.000 NA
ATOM     18  C   UNL     1       2.733  14.039  17.912  0.00  0.00    +0.000 C 
ATOM     19  C   UNL     1       4.001  14.881  18.059  0.00  0.00    +0.000 C 
ATOM     20  C   UNL     1       3.991  15.617  19.387  0.00  0.00    +0.000 C 
ATOM     21  C   UNL     1       3.920  14.595  20.509  0.00  0.00    +0.000 C 
ATOM     22  C   UNL     1       2.714  13.665  20.353  0.00  0.00    +0.000 C 
ENDBRANCH  16  17
ENDBRANCH   9  16
ENDBRANCH   3   5
BRANCH   2  23
ATOM     23  C   UNL     1       4.231   6.033  18.213  0.00  0.00    +0.000 A 
ATOM     24  C   UNL     1       4.211   6.893  17.093  0.00  0.00    +0.000 A 
ATOM     25  C   UNL     1       5.089   6.712  16.016  0.00  0.00    +0.000 A 
ATOM     26  C   UNL     1       5.947   5.623  16.002  0.00  0.00    +0.000 A 
ATOM     27  C   UNL     1       5.944   4.732  17.070  0.00  0.00    +0.000 A 
ATOM     28  C   UNL     1       5.141   4.952  18.211  0.00  0.00    +0.000 A 
BRANCH  28  29
ATOM     29  O   UNL     1       5.254   4.143  19.324  0.00  0.00    +0.000 OA
BRANCH  29  30
ATOM     30  C   UNL     1       4.675   2.835  19.184  0.00  0.00    +0.000 C 
BRANCH  30  31
ATOM     31  C   UNL     1       3.200   2.769  19.496  0.00  0.00    +0.000 A 
ATOM     32  C   UNL     1       2.708   2.735  20.803  0.00  0.00    +0.000 A 
ATOM     33  C   UNL     1       1.336   2.614  21.030  0.00  0.00    +0.000 A 
ATOM     34  C   UNL     1       0.446   2.543  19.957  0.00  0.00    +0.000 A 
ATOM     35  C   UNL     1       0.922   2.621  18.651  0.00  0.00    +0.000 A 
ATOM     36  C   UNL     1       2.290   2.745  18.423  0.00  0.00    +0.000 A 
ENDBRANCH  30  31
ENDBRANCH  29  30
ENDBRANCH  28  29
ENDBRANCH   2  23
TORSDOF 7
ENDMDL
MODEL 9
REMARK VINA RESULT:      -8.3      2.658      8.233
REMARK  Name = 
REMARK  7 active torsions:
REMARK  status: ('A' for Active; 'I' for Inactive)
REMARK    1  A    between atoms: C_2  and  C_22
REMARK    2  A    between atoms: N_3  and  N_4
REMARK    3  A    between atoms: N_8  and  C_9
REMARK    4  A    between atoms: C_9  and  N_10
REMARK    5  A    between atoms: C_27  and  O_28
REMARK    6  A    between atoms: O_28  and  C_29
REMARK    7  A    between atoms: C_29  and  C_30
REMARK                            x       y       z     vdW  Elec       q    Type
REMARK                         _______ _______ _______ _____ _____    ______ ____
ROOT
ATOM      1  O   UNL     1      -0.354   9.153  21.856  0.00  0.00    +0.000 OA
ATOM      2  C   UNL     1       0.506   9.405  21.017  0.00  0.00    +0.000 C 
ATOM      3  N   UNL     1       1.453   8.474  20.564  0.00  0.00    +0.000 N 
ATOM      4  H   UNL     1       2.122   8.720  19.837  0.00  0.00    +0.000 HD
ENDROOT
BRANCH   3   5
ATOM      5  N   UNL     1       1.394   7.150  20.948  0.00  0.00    +0.000 NA
ATOM      6  C   UNL     1       1.943   6.278  20.155  0.00  0.00    +0.000 C 
ATOM      7  C   UNL     1       2.688   6.532  18.838  0.00  0.00    +0.000 C 
ATOM      8  O   UNL     1       3.042   7.634  18.465  0.00  0.00    +0.000 OA
ATOM      9  N   UNL     1       2.842   5.290  18.250  0.00  0.00    +0.000 N 
ATOM     10  C   UNL     1       2.394   4.279  19.113  0.00  0.00    +0.000 A 
ATOM     11  C   UNL     1       2.421   2.910  18.910  0.00  0.00    +0.000 A 
ATOM     12  C   UNL     1       1.945   2.088  19.933  0.00  0.00    +0.000 A 
ATOM     13  C   UNL     1       1.450   2.643  21.132  0.00  0.00    +0.000 A 
ATOM     14  C   UNL     1       1.410   4.027  21.320  0.00  0.00    +0.000 A 
ATOM     15  C   UNL     1       1.886   4.821  20.296  0.00  0.00    +0.000 A 
BRANCH   9  16
ATOM     16  C   UNL     1       3.488   5.053  16.984  0.00  0.00    +0.000 C 
BRANCH  16  17
ATOM     17  N   UNL     1       4.910   5.458  17.017  0.00  0.00    +0.000 NA
ATOM     18  C   UNL     1       5.653   4.635  17.984  0.00  0.00    +0.000 C 
ATOM     19  C   UNL     1       7.174   4.747  17.874  0.00  0.00    +0.000 C 
ATOM     20  C   UNL     1       7.624   4.420  16.461  0.00  0.00    +0.000 C 
ATOM     21  C   UNL     1       6.967   5.399  15.503  0.00  0.00    +0.000 C 
ATOM     22  C   UNL     1       5.442   5.391  15.642  0.00  0.00    +0.000 C 
ENDBRANCH  16  17
ENDBRANCH   9  16
ENDBRANCH   3   5
BRANCH   2  23
ATOM     23  C   UNL     1       0.604  10.789  20.409  0.00  0.00    +0.000 A 
ATOM     24  C   UNL     1       1.085  11.851  21.206  0.00  0.00    +0.000 A 
ATOM     25  C   UNL     1       1.226  13.147  20.690  0.00  0.00    +0.000 A 
ATOM     26  C   UNL     1       0.814  13.422  19.396  0.00  0.00    +0.000 A 
ATOM     27  C   UNL     1       0.284  12.401  18.612  0.00  0.00    +0.000 A 
ATOM     28  C   UNL     1       0.229  11.069  19.075  0.00  0.00    +0.000 A 
BRANCH  28  29
ATOM     29  O   UNL     1      -0.160  10.042  18.238  0.00  0.00    +0.000 OA
BRANCH  29  30
ATOM     30  C   UNL     1      -1.531   9.633  18.378  0.00  0.00    +0.000 C 
BRANCH  30  31
ATOM     31  C   UNL     1      -2.455  10.170  17.313  0.00  0.00    +0.000 A 
ATOM     32  C   UNL     1      -3.511  11.038  17.600  0.00  0.00    +0.000 A 
ATOM     33  C   UNL     1      -4.369  11.455  16.582  0.00  0.00    +0.000 A 
ATOM     34  C   UNL     1      -4.171  11.023  15.270  0.00  0.00    +0.000 A 
ATOM     35  C   UNL     1      -3.096  10.193  14.965  0.00  0.00    +0.000 A 
ATOM     36  C   UNL     1      -2.236   9.779  15.978  0.00  0.00    +0.000 A 
ENDBRANCH  30  31
ENDBRANCH  29  30
ENDBRANCH  28  29
ENDBRANCH   2  23
TORSDOF 7
ENDMDL
