MODEL 1
REMARK VINA RESULT:      -7.7      0.000      0.000
REMARK  Name = 
REMARK  13 active torsions:
REMARK  status: ('A' for Active; 'I' for Inactive)
REMARK    1  A    between atoms: C_1  and  C_2
REMARK    2  A    between atoms: C_2  and  C_3
REMARK    3  A    between atoms: C_2  and  C_4
REMARK    4  A    between atoms: C_2  and  C_23
REMARK    5  A    between atoms: C_4  and  C_5
REMARK    6  A    between atoms: C_5  and  C_6
REMARK    7  A    between atoms: C_6  and  O_7
REMARK    8  A    between atoms: O_7  and  C_8
REMARK    9  A    between atoms: C_11  and  C_12
REMARK   10  A    between atoms: C_12  and  C_13
REMARK   11  A    between atoms: C_13  and  C_14
REMARK   12  A    between atoms: C_14  and  C_15
REMARK   13  A    between atoms: C_23  and  O_25
REMARK                            x       y       z     vdW  Elec       q    Type
REMARK                         _______ _______ _______ _____ _____    ______ ____
ROOT
ATOM      1  C   UNL     1       7.665   6.944  18.101  0.00  0.00    +0.000 A 
ATOM      2  C   UNL     1       7.711   5.589  18.429  0.00  0.00    +0.000 A 
ATOM      3  C   UNL     1       6.891   4.674  17.776  0.00  0.00    +0.000 A 
ATOM      4  C   UNL     1       6.011   5.094  16.781  0.00  0.00    +0.000 A 
ATOM      5  C   UNL     1       5.958   6.461  16.451  0.00  0.00    +0.000 A 
ATOM      6  C   UNL     1       6.784   7.379  17.111  0.00  0.00    +0.000 A 
ENDROOT
BRANCH   1   7
ATOM      7  O   UNL     1       8.428   7.912  18.705  0.00  0.00    +0.000 OA
BRANCH   7   8
ATOM      8  C   UNL     1       8.311   9.210  18.115  0.00  0.00    +0.000 C 
BRANCH   8   9
ATOM      9  C   UNL     1       9.153  10.199  18.906  0.00  0.00    +0.000 C 
BRANCH   9  10
ATOM     10  C   UNL     1       9.445  11.456  18.076  0.00  0.00    +0.000 C 
BRANCH  10  12
ATOM     11  C   UNL     1      10.212  13.188  19.751  0.00  0.00    +0.000 C 
ATOM     12  C   UNL     1      10.651  12.286  18.579  0.00  0.00    +0.000 C 
ATOM     13  C   UNL     1      11.801  11.387  19.055  0.00  0.00    +0.000 C 
BRANCH  12  14
ATOM     14  C   UNL     1      11.157  13.194  17.445  0.00  0.00    +0.000 C 
ATOM     15  O   UNL     1      12.312  13.225  17.046  0.00  0.00    +0.000 OA
BRANCH  14  16
ATOM     16  O   UNL     1      10.210  13.987  16.892  0.00  0.00    +0.000 OA
ATOM     17  H   UNL     1      10.442  14.375  16.029  0.00  0.00    +0.000 HD
ENDBRANCH  14  16
ENDBRANCH  12  14
ENDBRANCH  10  12
ENDBRANCH   9  10
ENDBRANCH   8   9
ENDBRANCH   7   8
ENDBRANCH   1   7
BRANCH   4  18
ATOM     18  C   UNL     1       5.102   4.082  16.137  0.00  0.00    +0.000 C 
BRANCH  18  19
ATOM     19  C   UNL     1       4.310   3.314  17.197  0.00  0.00    +0.000 C 
BRANCH  19  20
ATOM     20  C   UNL     1       3.048   4.067  17.621  0.00  0.00    +0.000 C 
BRANCH  20  21
ATOM     21  C   UNL     1       2.579   3.613  18.982  0.00  0.00    +0.000 A 
ATOM     22  C   UNL     1       1.243   3.796  19.363  0.00  0.00    +0.000 A 
ATOM     23  C   UNL     1       0.810   3.420  20.636  0.00  0.00    +0.000 A 
ATOM     24  C   UNL     1       1.710   2.861  21.541  0.00  0.00    +0.000 A 
ATOM     25  C   UNL     1       3.041   2.675  21.173  0.00  0.00    +0.000 A 
ATOM     26  C   UNL     1       3.474   3.051  19.900  0.00  0.00    +0.000 A 
ENDBRANCH  20  21
ENDBRANCH  19  20
ENDBRANCH  18  19
ENDBRANCH   4  18
TORSDOF 11
ENDMDL
MODEL 2
REMARK VINA RESULT:      -7.5      1.675      2.286
REMARK  Name = 
REMARK  13 active torsions:
REMARK  status: ('A' for Active; 'I' for Inactive)
REMARK    1  A    between atoms: C_1  and  C_2
REMARK    2  A    between atoms: C_2  and  C_3
REMARK    3  A    between atoms: C_2  and  C_4
REMARK    4  A    between atoms: C_2  and  C_23
REMARK    5  A    between atoms: C_4  and  C_5
REMARK    6  A    between atoms: C_5  and  C_6
REMARK    7  A    between atoms: C_6  and  O_7
REMARK    8  A    between atoms: O_7  and  C_8
REMARK    9  A    between atoms: C_11  and  C_12
REMARK   10  A    between atoms: C_12  and  C_13
REMARK   11  A    between atoms: C_13  and  C_14
REMARK   12  A    between atoms: C_14  and  C_15
REMARK   13  A    between atoms: C_23  and  O_25
REMARK                            x       y       z     vdW  Elec       q    Type
REMARK                         _______ _______ _______ _____ _____    ______ ____
ROOT
ATOM      1  C   UNL     1       7.557   6.625  18.204  0.00  0.00    +0.000 A 
ATOM      2  C   UNL     1       6.917   5.678  19.003  0.00  0.00    +0.000 A 
ATOM      3  C   UNL     1       6.044   4.750  18.444  0.00  0.00    +0.000 A 
ATOM      4  C   UNL     1       5.796   4.748  17.073  0.00  0.00    +0.000 A 
ATOM      5  C   UNL     1       6.435   5.704  16.263  0.00  0.00    +0.000 A 
ATOM      6  C   UNL     1       7.312   6.637  16.830  0.00  0.00    +0.000 A 
ENDROOT
BRANCH   1   7
ATOM      7  O   UNL     1       8.420   7.582  18.677  0.00  0.00    +0.000 OA
BRANCH   7   8
ATOM      8  C   UNL     1       8.268   8.867  18.068  0.00  0.00    +0.000 C 
BRANCH   8   9
ATOM      9  C   UNL     1       9.057   9.896  18.864  0.00  0.00    +0.000 C 
BRANCH   9  10
ATOM     10  C   UNL     1       9.122  11.234  18.116  0.00  0.00    +0.000 C 
BRANCH  10  12
ATOM     11  C   UNL     1      11.298  11.345  19.398  0.00  0.00    +0.000 C 
ATOM     12  C   UNL     1      10.295  12.148  18.547  0.00  0.00    +0.000 C 
ATOM     13  C   UNL     1      11.035  12.732  17.335  0.00  0.00    +0.000 C 
BRANCH  12  14
ATOM     14  C   UNL     1       9.754  13.301  19.410  0.00  0.00    +0.000 C 
ATOM     15  O   UNL     1       8.714  13.258  20.050  0.00  0.00    +0.000 OA
BRANCH  14  16
ATOM     16  O   UNL     1      10.530  14.410  19.420  0.00  0.00    +0.000 OA
ATOM     17  H   UNL     1      10.081  15.231  19.689  0.00  0.00    +0.000 HD
ENDBRANCH  14  16
ENDBRANCH  12  14
ENDBRANCH  10  12
ENDBRANCH   9  10
ENDBRANCH   8   9
ENDBRANCH   7   8
ENDBRANCH   1   7
BRANCH   4  18
ATOM     18  C   UNL     1       4.803   3.764  16.515  0.00  0.00    +0.000 C 
BRANCH  18  19
ATOM     19  C   UNL     1       3.863   3.262  17.612  0.00  0.00    +0.000 C 
BRANCH  19  20
ATOM     20  C   UNL     1       2.475   3.896  17.507  0.00  0.00    +0.000 C 
BRANCH  20  21
ATOM     21  C   UNL     1       2.362   5.100  18.409  0.00  0.00    +0.000 A 
ATOM     22  C   UNL     1       1.962   4.945  19.744  0.00  0.00    +0.000 A 
ATOM     23  C   UNL     1       1.810   6.058  20.573  0.00  0.00    +0.000 A 
ATOM     24  C   UNL     1       2.053   7.336  20.075  0.00  0.00    +0.000 A 
ATOM     25  C   UNL     1       2.450   7.502  18.749  0.00  0.00    +0.000 A 
ATOM     26  C   UNL     1       2.601   6.390  17.919  0.00  0.00    +0.000 A 
ENDBRANCH  20  21
ENDBRANCH  19  20
ENDBRANCH  18  19
ENDBRANCH   4  18
TORSDOF 11
ENDMDL
MODEL 3
REMARK VINA RESULT:      -7.5      3.426      9.588
REMARK  Name = 
REMARK  13 active torsions:
REMARK  status: ('A' for Active; 'I' for Inactive)
REMARK    1  A    between atoms: C_1  and  C_2
REMARK    2  A    between atoms: C_2  and  C_3
REMARK    3  A    between atoms: C_2  and  C_4
REMARK    4  A    between atoms: C_2  and  C_23
REMARK    5  A    between atoms: C_4  and  C_5
REMARK    6  A    between atoms: C_5  and  C_6
REMARK    7  A    between atoms: C_6  and  O_7
REMARK    8  A    between atoms: O_7  and  C_8
REMARK    9  A    between atoms: C_11  and  C_12
REMARK   10  A    between atoms: C_12  and  C_13
REMARK   11  A    between atoms: C_13  and  C_14
REMARK   12  A    between atoms: C_14  and  C_15
REMARK   13  A    between atoms: C_23  and  O_25
REMARK                            x       y       z     vdW  Elec       q    Type
REMARK                         _______ _______ _______ _____ _____    ______ ____
ROOT
ATOM      1  C   UNL     1       6.032   4.948  17.008  0.00  0.00    +0.000 A 
ATOM      2  C   UNL     1       5.980   6.250  16.510  0.00  0.00    +0.000 A 
ATOM      3  C   UNL     1       6.786   7.248  17.049  0.00  0.00    +0.000 A 
ATOM      4  C   UNL     1       7.662   6.963  18.094  0.00  0.00    +0.000 A 
ATOM      5  C   UNL     1       7.714   5.653  18.603  0.00  0.00    +0.000 A 
ATOM      6  C   UNL     1       6.901   4.652  18.058  0.00  0.00    +0.000 A 
ENDROOT
BRANCH   1   7
ATOM      7  O   UNL     1       5.262   3.911  16.543  0.00  0.00    +0.000 OA
BRANCH   7   8
ATOM      8  C   UNL     1       3.855   4.166  16.557  0.00  0.00    +0.000 C 
BRANCH   8   9
ATOM      9  C   UNL     1       3.166   3.132  17.435  0.00  0.00    +0.000 C 
BRANCH   9  10
ATOM     10  C   UNL     1       2.038   3.773  18.254  0.00  0.00    +0.000 C 
BRANCH  10  12
ATOM     11  C   UNL     1       1.042   3.665  20.575  0.00  0.00    +0.000 C 
ATOM     12  C   UNL     1       2.337   3.888  19.768  0.00  0.00    +0.000 C 
ATOM     13  C   UNL     1       3.382   2.858  20.221  0.00  0.00    +0.000 C 
BRANCH  12  14
ATOM     14  C   UNL     1       2.856   5.302  20.082  0.00  0.00    +0.000 C 
ATOM     15  O   UNL     1       3.894   5.773  19.640  0.00  0.00    +0.000 OA
BRANCH  14  16
ATOM     16  O   UNL     1       2.064   6.023  20.909  0.00  0.00    +0.000 OA
ATOM     17  H   UNL     1       1.638   6.800  20.507  0.00  0.00    +0.000 HD
ENDBRANCH  14  16
ENDBRANCH  12  14
ENDBRANCH  10  12
ENDBRANCH   9  10
ENDBRANCH   8   9
ENDBRANCH   7   8
ENDBRANCH   1   7
BRANCH   4  18
ATOM     18  C   UNL     1       8.478   8.082  18.686  0.00  0.00    +0.000 C 
BRANCH  18  19
ATOM     19  C   UNL     1       8.373   9.342  17.824  0.00  0.00    +0.000 C 
BRANCH  19  20
ATOM     20  C   UNL     1       8.324  10.612  18.675  0.00  0.00    +0.000 C 
BRANCH  20  21
ATOM     21  C   UNL     1       9.706  11.185  18.871  0.00  0.00    +0.000 A 
ATOM     22  C   UNL     1      10.521  11.451  17.762  0.00  0.00    +0.000 A 
ATOM     23  C   UNL     1      11.818  11.940  17.936  0.00  0.00    +0.000 A 
ATOM     24  C   UNL     1      12.313  12.162  19.219  0.00  0.00    +0.000 A 
ATOM     25  C   UNL     1      11.512  11.899  20.328  0.00  0.00    +0.000 A 
ATOM     26  C   UNL     1      10.215  11.411  20.156  0.00  0.00    +0.000 A 
ENDBRANCH  20  21
ENDBRANCH  19  20
ENDBRANCH  18  19
ENDBRANCH   4  18
TORSDOF 11
ENDMDL
MODEL 4
REMARK VINA RESULT:      -7.5      3.812      9.851
REMARK  Name = 
REMARK  13 active torsions:
REMARK  status: ('A' for Active; 'I' for Inactive)
REMARK    1  A    between atoms: C_1  and  C_2
REMARK    2  A    between atoms: C_2  and  C_3
REMARK    3  A    between atoms: C_2  and  C_4
REMARK    4  A    between atoms: C_2  and  C_23
REMARK    5  A    between atoms: C_4  and  C_5
REMARK    6  A    between atoms: C_5  and  C_6
REMARK    7  A    between atoms: C_6  and  O_7
REMARK    8  A    between atoms: O_7  and  C_8
REMARK    9  A    between atoms: C_11  and  C_12
REMARK   10  A    between atoms: C_12  and  C_13
REMARK   11  A    between atoms: C_13  and  C_14
REMARK   12  A    between atoms: C_14  and  C_15
REMARK   13  A    between atoms: C_23  and  O_25
REMARK                            x       y       z     vdW  Elec       q    Type
REMARK                         _______ _______ _______ _____ _____    ______ ____
ROOT
ATOM      1  C   UNL     1       5.669   4.343  18.030  0.00  0.00    +0.000 A 
ATOM      2  C   UNL     1       6.010   4.652  16.714  0.00  0.00    +0.000 A 
ATOM      3  C   UNL     1       6.778   5.775  16.425  0.00  0.00    +0.000 A 
ATOM      4  C   UNL     1       7.222   6.611  17.447  0.00  0.00    +0.000 A 
ATOM      5  C   UNL     1       6.876   6.306  18.776  0.00  0.00    +0.000 A 
ATOM      6  C   UNL     1       6.103   5.175  19.063  0.00  0.00    +0.000 A 
ENDROOT
BRANCH   1   7
ATOM      7  O   UNL     1       4.906   3.263  18.400  0.00  0.00    +0.000 OA
BRANCH   7   8
ATOM      8  C   UNL     1       3.901   2.898  17.450  0.00  0.00    +0.000 C 
BRANCH   8   9
ATOM      9  C   UNL     1       2.831   2.068  18.145  0.00  0.00    +0.000 C 
BRANCH   9  10
ATOM     10  C   UNL     1       2.882   2.271  19.665  0.00  0.00    +0.000 C 
BRANCH  10  12
ATOM     11  C   UNL     1       0.479   2.984  19.333  0.00  0.00    +0.000 C 
ATOM     12  C   UNL     1       1.724   3.126  20.233  0.00  0.00    +0.000 C 
ATOM     13  C   UNL     1       1.349   2.699  21.660  0.00  0.00    +0.000 C 
BRANCH  12  14
ATOM     14  C   UNL     1       2.137   4.607  20.243  0.00  0.00    +0.000 C 
ATOM     15  O   UNL     1       2.126   5.336  19.261  0.00  0.00    +0.000 OA
BRANCH  14  16
ATOM     16  O   UNL     1       2.529   5.076  21.450  0.00  0.00    +0.000 OA
ATOM     17  H   UNL     1       2.368   6.024  21.603  0.00  0.00    +0.000 HD
ENDBRANCH  14  16
ENDBRANCH  12  14
ENDBRANCH  10  12
ENDBRANCH   9  10
ENDBRANCH   8   9
ENDBRANCH   7   8
ENDBRANCH   1   7
BRANCH   4  18
ATOM     18  C   UNL     1       8.004   7.847  17.089  0.00  0.00    +0.000 C 
BRANCH  18  19
ATOM     19  C   UNL     1       8.316   8.671  18.339  0.00  0.00    +0.000 C 
BRANCH  19  20
ATOM     20  C   UNL     1       8.326  10.172  18.045  0.00  0.00    +0.000 C 
BRANCH  20  21
ATOM     21  C   UNL     1       9.536  10.835  18.655  0.00  0.00    +0.000 A 
ATOM     22  C   UNL     1       9.613  11.023  20.041  0.00  0.00    +0.000 A 
ATOM     23  C   UNL     1      10.708  11.676  20.609  0.00  0.00    +0.000 A 
ATOM     24  C   UNL     1      11.735  12.151  19.797  0.00  0.00    +0.000 A 
ATOM     25  C   UNL     1      11.669  11.971  18.416  0.00  0.00    +0.000 A 
ATOM     26  C   UNL     1      10.574  11.318  17.847  0.00  0.00    +0.000 A 
ENDBRANCH  20  21
ENDBRANCH  19  20
ENDBRANCH  18  19
ENDBRANCH   4  18
TORSDOF 11
ENDMDL
MODEL 5
REMARK VINA RESULT:      -7.5      1.209      1.615
REMARK  Name = 
REMARK  13 active torsions:
REMARK  status: ('A' for Active; 'I' for Inactive)
REMARK    1  A    between atoms: C_1  and  C_2
REMARK    2  A    between atoms: C_2  and  C_3
REMARK    3  A    between atoms: C_2  and  C_4
REMARK    4  A    between atoms: C_2  and  C_23
REMARK    5  A    between atoms: C_4  and  C_5
REMARK    6  A    between atoms: C_5  and  C_6
REMARK    7  A    between atoms: C_6  and  O_7
REMARK    8  A    between atoms: O_7  and  C_8
REMARK    9  A    between atoms: C_11  and  C_12
REMARK   10  A    between atoms: C_12  and  C_13
REMARK   11  A    between atoms: C_13  and  C_14
REMARK   12  A    between atoms: C_14  and  C_15
REMARK   13  A    between atoms: C_23  and  O_25
REMARK                            x       y       z     vdW  Elec       q    Type
REMARK                         _______ _______ _______ _____ _____    ______ ____
ROOT
ATOM      1  C   UNL     1       7.940   7.259  18.365  0.00  0.00    +0.000 A 
ATOM      2  C   UNL     1       7.881   6.068  19.087  0.00  0.00    +0.000 A 
ATOM      3  C   UNL     1       6.976   5.071  18.739  0.00  0.00    +0.000 A 
ATOM      4  C   UNL     1       6.112   5.244  17.659  0.00  0.00    +0.000 A 
ATOM      5  C   UNL     1       6.163   6.447  16.931  0.00  0.00    +0.000 A 
ATOM      6  C   UNL     1       7.076   7.448  17.285  0.00  0.00    +0.000 A 
ENDROOT
BRANCH   1   7
ATOM      7  O   UNL     1       8.793   8.297  18.650  0.00  0.00    +0.000 OA
BRANCH   7   8
ATOM      8  C   UNL     1       8.362   9.568  18.158  0.00  0.00    +0.000 C 
BRANCH   8   9
ATOM      9  C   UNL     1       9.274  10.655  18.708  0.00  0.00    +0.000 C 
BRANCH   9  10
ATOM     10  C   UNL     1       9.242  11.901  17.812  0.00  0.00    +0.000 C 
BRANCH  10  12
ATOM     11  C   UNL     1      11.241  12.421  19.270  0.00  0.00    +0.000 C 
ATOM     12  C   UNL     1      10.370  12.921  18.100  0.00  0.00    +0.000 C 
ATOM     13  C   UNL     1      11.270  13.134  16.874  0.00  0.00    +0.000 C 
BRANCH  12  14
ATOM     14  C   UNL     1       9.750  14.267  18.510  0.00  0.00    +0.000 C 
ATOM     15  O   UNL     1       9.583  14.630  19.665  0.00  0.00    +0.000 OA
BRANCH  14  16
ATOM     16  O   UNL     1       9.386  15.060  17.475  0.00  0.00    +0.000 OA
ATOM     17  H   UNL     1       8.616  15.632  17.638  0.00  0.00    +0.000 HD
ENDBRANCH  14  16
ENDBRANCH  12  14
ENDBRANCH  10  12
ENDBRANCH   9  10
ENDBRANCH   8   9
ENDBRANCH   7   8
ENDBRANCH   1   7
BRANCH   4  18
ATOM     18  C   UNL     1       5.109   4.165  17.348  0.00  0.00    +0.000 C 
BRANCH  18  19
ATOM     19  C   UNL     1       3.757   4.775  16.974  0.00  0.00    +0.000 C 
BRANCH  19  20
ATOM     20  C   UNL     1       3.153   5.575  18.129  0.00  0.00    +0.000 C 
BRANCH  20  21
ATOM     21  C   UNL     1       2.432   4.669  19.097  0.00  0.00    +0.000 A 
ATOM     22  C   UNL     1       2.664   4.783  20.474  0.00  0.00    +0.000 A 
ATOM     23  C   UNL     1       2.036   3.919  21.373  0.00  0.00    +0.000 A 
ATOM     24  C   UNL     1       1.175   2.930  20.904  0.00  0.00    +0.000 A 
ATOM     25  C   UNL     1       0.939   2.806  19.536  0.00  0.00    +0.000 A 
ATOM     26  C   UNL     1       1.566   3.669  18.636  0.00  0.00    +0.000 A 
ENDBRANCH  20  21
ENDBRANCH  19  20
ENDBRANCH  18  19
ENDBRANCH   4  18
TORSDOF 11
ENDMDL
MODEL 6
REMARK VINA RESULT:      -7.3      0.806      1.441
REMARK  Name = 
REMARK  13 active torsions:
REMARK  status: ('A' for Active; 'I' for Inactive)
REMARK    1  A    between atoms: C_1  and  C_2
REMARK    2  A    between atoms: C_2  and  C_3
REMARK    3  A    between atoms: C_2  and  C_4
REMARK    4  A    between atoms: C_2  and  C_23
REMARK    5  A    between atoms: C_4  and  C_5
REMARK    6  A    between atoms: C_5  and  C_6
REMARK    7  A    between atoms: C_6  and  O_7
REMARK    8  A    between atoms: O_7  and  C_8
REMARK    9  A    between atoms: C_11  and  C_12
REMARK   10  A    between atoms: C_12  and  C_13
REMARK   11  A    between atoms: C_13  and  C_14
REMARK   12  A    between atoms: C_14  and  C_15
REMARK   13  A    between atoms: C_23  and  O_25
REMARK                            x       y       z     vdW  Elec       q    Type
REMARK                         _______ _______ _______ _____ _____    ______ ____
ROOT
ATOM      1  C   UNL     1       8.003   7.412  18.399  0.00  0.00    +0.000 A 
ATOM      2  C   UNL     1       7.321   7.744  17.229  0.00  0.00    +0.000 A 
ATOM      3  C   UNL     1       6.498   6.816  16.599  0.00  0.00    +0.000 A 
ATOM      4  C   UNL     1       6.338   5.537  17.129  0.00  0.00    +0.000 A 
ATOM      5  C   UNL     1       7.028   5.196  18.307  0.00  0.00    +0.000 A 
ATOM      6  C   UNL     1       7.855   6.133  18.937  0.00  0.00    +0.000 A 
ENDROOT
BRANCH   1   7
ATOM      7  O   UNL     1       8.843   8.263  19.074  0.00  0.00    +0.000 OA
BRANCH   7   8
ATOM      8  C   UNL     1       8.868   9.598  18.562  0.00  0.00    +0.000 C 
BRANCH   8   9
ATOM      9  C   UNL     1       9.498  10.520  19.595  0.00  0.00    +0.000 C 
BRANCH   9  10
ATOM     10  C   UNL     1       9.489  11.975  19.108  0.00  0.00    +0.000 C 
BRANCH  10  12
ATOM     11  C   UNL     1      11.043  13.820  19.865  0.00  0.00    +0.000 C 
ATOM     12  C   UNL     1      10.895  12.598  18.936  0.00  0.00    +0.000 C 
ATOM     13  C   UNL     1      12.007  11.592  19.267  0.00  0.00    +0.000 C 
BRANCH  12  14
ATOM     14  C   UNL     1      11.068  13.080  17.485  0.00  0.00    +0.000 C 
ATOM     15  O   UNL     1      12.142  13.168  16.908  0.00  0.00    +0.000 OA
BRANCH  14  16
ATOM     16  O   UNL     1       9.915  13.413  16.860  0.00  0.00    +0.000 OA
ATOM     17  H   UNL     1       9.841  13.119  15.935  0.00  0.00    +0.000 HD
ENDBRANCH  14  16
ENDBRANCH  12  14
ENDBRANCH  10  12
ENDBRANCH   9  10
ENDBRANCH   8   9
ENDBRANCH   7   8
ENDBRANCH   1   7
BRANCH   4  18
ATOM     18  C   UNL     1       5.482   4.545  16.389  0.00  0.00    +0.000 C 
BRANCH  18  19
ATOM     19  C   UNL     1       4.553   3.806  17.353  0.00  0.00    +0.000 C 
BRANCH  19  20
ATOM     20  C   UNL     1       3.179   4.472  17.444  0.00  0.00    +0.000 C 
BRANCH  20  21
ATOM     21  C   UNL     1       2.464   4.066  18.710  0.00  0.00    +0.000 A 
ATOM     22  C   UNL     1       2.908   4.539  19.952  0.00  0.00    +0.000 A 
ATOM     23  C   UNL     1       2.281   4.134  21.131  0.00  0.00    +0.000 A 
ATOM     24  C   UNL     1       1.207   3.248  21.080  0.00  0.00    +0.000 A 
ATOM     25  C   UNL     1       0.757   2.770  19.850  0.00  0.00    +0.000 A 
ATOM     26  C   UNL     1       1.384   3.175  18.671  0.00  0.00    +0.000 A 
ENDBRANCH  20  21
ENDBRANCH  19  20
ENDBRANCH  18  19
ENDBRANCH   4  18
TORSDOF 11
ENDMDL
MODEL 7
REMARK VINA RESULT:      -7.3      3.611      9.941
REMARK  Name = 
REMARK  13 active torsions:
REMARK  status: ('A' for Active; 'I' for Inactive)
REMARK    1  A    between atoms: C_1  and  C_2
REMARK    2  A    between atoms: C_2  and  C_3
REMARK    3  A    between atoms: C_2  and  C_4
REMARK    4  A    between atoms: C_2  and  C_23
REMARK    5  A    between atoms: C_4  and  C_5
REMARK    6  A    between atoms: C_5  and  C_6
REMARK    7  A    between atoms: C_6  and  O_7
REMARK    8  A    between atoms: O_7  and  C_8
REMARK    9  A    between atoms: C_11  and  C_12
REMARK   10  A    between atoms: C_12  and  C_13
REMARK   11  A    between atoms: C_13  and  C_14
REMARK   12  A    between atoms: C_14  and  C_15
REMARK   13  A    between atoms: C_23  and  O_25
REMARK                            x       y       z     vdW  Elec       q    Type
REMARK                         _______ _______ _______ _____ _____    ______ ____
ROOT
ATOM      1  C   UNL     1       6.058   4.735  17.048  0.00  0.00    +0.000 A 
ATOM      2  C   UNL     1       7.107   4.550  17.948  0.00  0.00    +0.000 A 
ATOM      3  C   UNL     1       7.824   5.639  18.434  0.00  0.00    +0.000 A 
ATOM      4  C   UNL     1       7.506   6.934  18.031  0.00  0.00    +0.000 A 
ATOM      5  C   UNL     1       6.452   7.124  17.119  0.00  0.00    +0.000 A 
ATOM      6  C   UNL     1       5.732   6.026  16.632  0.00  0.00    +0.000 A 
ENDROOT
BRANCH   1   7
ATOM      7  O   UNL     1       5.309   3.716  16.512  0.00  0.00    +0.000 OA
BRANCH   7   8
ATOM      8  C   UNL     1       3.923   3.757  16.857  0.00  0.00    +0.000 C 
BRANCH   8   9
ATOM      9  C   UNL     1       3.684   2.886  18.082  0.00  0.00    +0.000 C 
BRANCH   9  10
ATOM     10  C   UNL     1       3.429   3.747  19.325  0.00  0.00    +0.000 C 
BRANCH  10  12
ATOM     11  C   UNL     1       1.881   5.422  20.417  0.00  0.00    +0.000 C 
ATOM     12  C   UNL     1       1.953   4.176  19.511  0.00  0.00    +0.000 C 
ATOM     13  C   UNL     1       1.284   4.506  18.169  0.00  0.00    +0.000 C 
BRANCH  12  14
ATOM     14  C   UNL     1       1.173   3.042  20.198  0.00  0.00    +0.000 C 
ATOM     15  O   UNL     1       1.399   2.631  21.326  0.00  0.00    +0.000 OA
BRANCH  14  16
ATOM     16  O   UNL     1       0.180   2.506  19.449  0.00  0.00    +0.000 OA
ATOM     17  H   UNL     1       0.093   1.539  19.503  0.00  0.00    +0.000 HD
ENDBRANCH  14  16
ENDBRANCH  12  14
ENDBRANCH  10  12
ENDBRANCH   9  10
ENDBRANCH   8   9
ENDBRANCH   7   8
ENDBRANCH   1   7
BRANCH   4  18
ATOM     18  C   UNL     1       8.341   8.080  18.537  0.00  0.00    +0.000 C 
BRANCH  18  19
ATOM     19  C   UNL     1       8.291   9.257  17.561  0.00  0.00    +0.000 C 
BRANCH  19  20
ATOM     20  C   UNL     1       8.197  10.598  18.291  0.00  0.00    +0.000 C 
BRANCH  20  21
ATOM     21  C   UNL     1       9.561  11.076  18.723  0.00  0.00    +0.000 A 
ATOM     22  C   UNL     1       9.833  11.294  20.081  0.00  0.00    +0.000 A 
ATOM     23  C   UNL     1      11.078  11.779  20.486  0.00  0.00    +0.000 A 
ATOM     24  C   UNL     1      12.061  12.055  19.538  0.00  0.00    +0.000 A 
ATOM     25  C   UNL     1      11.801  11.843  18.185  0.00  0.00    +0.000 A 
ATOM     26  C   UNL     1      10.556  11.358  17.779  0.00  0.00    +0.000 A 
ENDBRANCH  20  21
ENDBRANCH  19  20
ENDBRANCH  18  19
ENDBRANCH   4  18
TORSDOF 11
ENDMDL
MODEL 8
REMARK VINA RESULT:      -7.3      1.443      1.751
REMARK  Name = 
REMARK  13 active torsions:
REMARK  status: ('A' for Active; 'I' for Inactive)
REMARK    1  A    between atoms: C_1  and  C_2
REMARK    2  A    between atoms: C_2  and  C_3
REMARK    3  A    between atoms: C_2  and  C_4
REMARK    4  A    between atoms: C_2  and  C_23
REMARK    5  A    between atoms: C_4  and  C_5
REMARK    6  A    between atoms: C_5  and  C_6
REMARK    7  A    between atoms: C_6  and  O_7
REMARK    8  A    between atoms: O_7  and  C_8
REMARK    9  A    between atoms: C_11  and  C_12
REMARK   10  A    between atoms: C_12  and  C_13
REMARK   11  A    between atoms: C_13  and  C_14
REMARK   12  A    between atoms: C_14  and  C_15
REMARK   13  A    between atoms: C_23  and  O_25
REMARK                            x       y       z     vdW  Elec       q    Type
REMARK                         _______ _______ _______ _____ _____    ______ ____
ROOT
ATOM      1  C   UNL     1       7.675   6.901  18.095  0.00  0.00    +0.000 A 
ATOM      2  C   UNL     1       7.682   5.529  18.340  0.00  0.00    +0.000 A 
ATOM      3  C   UNL     1       6.847   4.676  17.624  0.00  0.00    +0.000 A 
ATOM      4  C   UNL     1       5.990   5.180  16.648  0.00  0.00    +0.000 A 
ATOM      5  C   UNL     1       5.976   6.565  16.402  0.00  0.00    +0.000 A 
ATOM      6  C   UNL     1       6.817   7.419  17.124  0.00  0.00    +0.000 A 
ENDROOT
BRANCH   1   7
ATOM      7  O   UNL     1       8.456   7.811  18.765  0.00  0.00    +0.000 OA
BRANCH   7   8
ATOM      8  C   UNL     1       8.445   9.126  18.202  0.00  0.00    +0.000 C 
BRANCH   8   9
ATOM      9  C   UNL     1       9.359  10.028  19.017  0.00  0.00    +0.000 C 
BRANCH   9  10
ATOM     10  C   UNL     1       9.333  11.464  18.477  0.00  0.00    +0.000 C 
BRANCH  10  12
ATOM     11  C   UNL     1      11.358  11.786  19.956  0.00  0.00    +0.000 C 
ATOM     12  C   UNL     1      10.132  12.480  19.330  0.00  0.00    +0.000 C 
ATOM     13  C   UNL     1      10.617  13.670  18.489  0.00  0.00    +0.000 C 
BRANCH  12  14
ATOM     14  C   UNL     1       9.243  13.000  20.473  0.00  0.00    +0.000 C 
ATOM     15  O   UNL     1       9.341  12.650  21.640  0.00  0.00    +0.000 OA
BRANCH  14  16
ATOM     16  O   UNL     1       8.310  13.904  20.096  0.00  0.00    +0.000 OA
ATOM     17  H   UNL     1       7.623  14.096  20.758  0.00  0.00    +0.000 HD
ENDBRANCH  14  16
ENDBRANCH  12  14
ENDBRANCH  10  12
ENDBRANCH   9  10
ENDBRANCH   8   9
ENDBRANCH   7   8
ENDBRANCH   1   7
BRANCH   4  18
ATOM     18  C   UNL     1       5.063   4.232  15.934  0.00  0.00    +0.000 C 
BRANCH  18  19
ATOM     19  C   UNL     1       4.052   3.626  16.910  0.00  0.00    +0.000 C 
BRANCH  19  20
ATOM     20  C   UNL     1       3.165   4.696  17.549  0.00  0.00    +0.000 C 
BRANCH  20  21
ATOM     21  C   UNL     1       2.501   4.172  18.798  0.00  0.00    +0.000 A 
ATOM     22  C   UNL     1       1.365   3.357  18.703  0.00  0.00    +0.000 A 
ATOM     23  C   UNL     1       0.718   2.905  19.855  0.00  0.00    +0.000 A 
ATOM     24  C   UNL     1       1.197   3.267  21.112  0.00  0.00    +0.000 A 
ATOM     25  C   UNL     1       2.326   4.079  21.218  0.00  0.00    +0.000 A 
ATOM     26  C   UNL     1       2.973   4.531  20.067  0.00  0.00    +0.000 A 
ENDBRANCH  20  21
ENDBRANCH  19  20
ENDBRANCH  18  19
ENDBRANCH   4  18
TORSDOF 11
ENDMDL
MODEL 9
REMARK VINA RESULT:      -7.3      3.548      9.892
REMARK  Name = 
REMARK  13 active torsions:
REMARK  status: ('A' for Active; 'I' for Inactive)
REMARK    1  A    between atoms: C_1  and  C_2
REMARK    2  A    between atoms: C_2  and  C_3
REMARK    3  A    between atoms: C_2  and  C_4
REMARK    4  A    between atoms: C_2  and  C_23
REMARK    5  A    between atoms: C_4  and  C_5
REMARK    6  A    between atoms: C_5  and  C_6
REMARK    7  A    between atoms: C_6  and  O_7
REMARK    8  A    between atoms: O_7  and  C_8
REMARK    9  A    between atoms: C_11  and  C_12
REMARK   10  A    between atoms: C_12  and  C_13
REMARK   11  A    between atoms: C_13  and  C_14
REMARK   12  A    between atoms: C_14  and  C_15
REMARK   13  A    between atoms: C_23  and  O_25
REMARK                            x       y       z     vdW  Elec       q    Type
REMARK                         _______ _______ _______ _____ _____    ______ ____
ROOT
ATOM      1  C   UNL     1       5.712   5.245  16.906  0.00  0.00    +0.000 A 
ATOM      2  C   UNL     1       6.726   4.833  17.770  0.00  0.00    +0.000 A 
ATOM      3  C   UNL     1       7.615   5.756  18.312  0.00  0.00    +0.000 A 
ATOM      4  C   UNL     1       7.507   7.110  18.002  0.00  0.00    +0.000 A 
ATOM      5  C   UNL     1       6.489   7.530  17.126  0.00  0.00    +0.000 A 
ATOM      6  C   UNL     1       5.596   6.598  16.583  0.00  0.00    +0.000 A 
ENDROOT
BRANCH   1   7
ATOM      7  O   UNL     1       4.804   4.400  16.319  0.00  0.00    +0.000 OA
BRANCH   7   8
ATOM      8  C   UNL     1       4.301   3.379  17.185  0.00  0.00    +0.000 C 
BRANCH   8   9
ATOM      9  C   UNL     1       3.082   3.904  17.927  0.00  0.00    +0.000 C 
BRANCH   9  10
ATOM     10  C   UNL     1       3.231   3.697  19.440  0.00  0.00    +0.000 C 
BRANCH  10  12
ATOM     11  C   UNL     1       1.316   4.894  20.577  0.00  0.00    +0.000 C 
ATOM     12  C   UNL     1       1.891   3.516  20.193  0.00  0.00    +0.000 C 
ATOM     13  C   UNL     1       0.854   2.772  19.338  0.00  0.00    +0.000 C 
BRANCH  12  14
ATOM     14  C   UNL     1       2.135   2.725  21.489  0.00  0.00    +0.000 C 
ATOM     15  O   UNL     1       1.282   2.504  22.337  0.00  0.00    +0.000 OA
BRANCH  14  16
ATOM     16  O   UNL     1       3.400   2.268  21.643  0.00  0.00    +0.000 OA
ATOM     17  H   UNL     1       3.526   1.319  21.468  0.00  0.00    +0.000 HD
ENDBRANCH  14  16
ENDBRANCH  12  14
ENDBRANCH  10  12
ENDBRANCH   9  10
ENDBRANCH   8   9
ENDBRANCH   7   8
ENDBRANCH   1   7
BRANCH   4  18
ATOM     18  C   UNL     1       8.521   8.069  18.565  0.00  0.00    +0.000 C 
BRANCH  18  19
ATOM     19  C   UNL     1       8.250   9.493  18.075  0.00  0.00    +0.000 C 
BRANCH  19  20
ATOM     20  C   UNL     1       9.490  10.381  18.189  0.00  0.00    +0.000 C 
BRANCH  20  21
ATOM     21  C   UNL     1       9.312  11.423  19.266  0.00  0.00    +0.000 A 
ATOM     22  C   UNL     1       9.098  12.764  18.920  0.00  0.00    +0.000 A 
ATOM     23  C   UNL     1       8.978  13.741  19.909  0.00  0.00    +0.000 A 
ATOM     24  C   UNL     1       9.076  13.389  21.253  0.00  0.00    +0.000 A 
ATOM     25  C   UNL     1       9.290  12.058  21.609  0.00  0.00    +0.000 A 
ATOM     26  C   UNL     1       9.410  11.080  20.620  0.00  0.00    +0.000 A 
ENDBRANCH  20  21
ENDBRANCH  19  20
ENDBRANCH  18  19
ENDBRANCH   4  18
TORSDOF 11
ENDMDL
