MODEL 1
REMARK VINA RESULT:      -7.3      0.000      0.000
REMARK  Name = 
REMARK  4 active torsions:
REMARK  status: ('A' for Active; 'I' for Inactive)
REMARK    1  A    between atoms: N_9  and  C_10
REMARK    2  A    between atoms: C_10  and  C_11
REMARK    3  A    between atoms: N_21  and  C_22
REMARK    4  A    between atoms: C_22  and  C_23
REMARK                            x       y       z     vdW  Elec       q    Type
REMARK                         _______ _______ _______ _____ _____    ______ ____
ROOT
ATOM      1  O   UNL     1      -4.383  12.711  20.180  0.00  0.00    +0.000 OA
ATOM      2  C   UNL     1      -3.248  12.470  19.794  0.00  0.00    +0.000 C 
ATOM      3  C   UNL     1      -3.029  11.697  18.541  0.00  0.00    +0.000 A 
ATOM      4  C   UNL     1      -4.126  11.534  17.677  0.00  0.00    +0.000 A 
ATOM      5  C   UNL     1      -4.004  10.764  16.524  0.00  0.00    +0.000 A 
ATOM      6  C   UNL     1      -2.797  10.134  16.243  0.00  0.00    +0.000 A 
ATOM      7  C   UNL     1      -1.709  10.276  17.109  0.00  0.00    +0.000 A 
ATOM      8  C   UNL     1      -1.790  11.094  18.246  0.00  0.00    +0.000 A 
ATOM      9  N   UNL     1      -0.676  11.240  19.169  0.00  0.00    +0.000 N 
ATOM     10  S   UNL     1      -0.618  12.805  19.835  0.00  0.00    +0.000 S 
ATOM     11  O   UNL     1      -0.671  13.750  18.744  0.00  0.00    +0.000 OA
ATOM     12  O   UNL     1       0.434  12.862  20.823  0.00  0.00    +0.000 OA
ATOM     13  N   UNL     1      -2.113  12.765  20.591  0.00  0.00    +0.000 N 
ENDROOT
BRANCH   9  14
ATOM     14  C   UNL     1       0.661  10.667  18.846  0.00  0.00    +0.000 C 
BRANCH  14  15
ATOM     15  C   UNL     1       0.935   9.337  19.533  0.00  0.00    +0.000 A 
ATOM     16  C   UNL     1       0.400   9.088  20.813  0.00  0.00    +0.000 A 
ATOM     17  C   UNL     1       0.772   7.961  21.552  0.00  0.00    +0.000 A 
ATOM     18  C   UNL     1       1.698   7.063  21.032  0.00  0.00    +0.000 A 
ATOM     19  C   UNL     1       2.217   7.271  19.756  0.00  0.00    +0.000 A 
ATOM     20  C   UNL     1       1.836   8.393  19.009  0.00  0.00    +0.000 A 
ATOM     21 CL   UNL     1       2.530   8.563  17.435  0.00  0.00    +0.000 Cl
ENDBRANCH  14  15
ENDBRANCH   9  14
BRANCH  13  22
ATOM     22  C   UNL     1      -2.127  12.330  22.015  0.00  0.00    +0.000 C 
BRANCH  22  23
ATOM     23  C   UNL     1      -2.191  13.417  23.072  0.00  0.00    +0.000 A 
ATOM     24  C   UNL     1      -1.074  14.189  23.426  0.00  0.00    +0.000 A 
ATOM     25  C   UNL     1      -1.160  15.174  24.416  0.00  0.00    +0.000 A 
ATOM     26  C   UNL     1      -2.364  15.404  25.078  0.00  0.00    +0.000 A 
ATOM     27  C   UNL     1      -3.485  14.648  24.747  0.00  0.00    +0.000 A 
ATOM     28  C   UNL     1      -3.401  13.664  23.755  0.00  0.00    +0.000 A 
ATOM     29 CL   UNL     1      -4.839  12.767  23.408  0.00  0.00    +0.000 Cl
ENDBRANCH  22  23
ENDBRANCH  13  22
TORSDOF 4
ENDMDL
MODEL 2
REMARK VINA RESULT:      -7.1      1.190      1.478
REMARK  Name = 
REMARK  4 active torsions:
REMARK  status: ('A' for Active; 'I' for Inactive)
REMARK    1  A    between atoms: N_9  and  C_10
REMARK    2  A    between atoms: C_10  and  C_11
REMARK    3  A    between atoms: N_21  and  C_22
REMARK    4  A    between atoms: C_22  and  C_23
REMARK                            x       y       z     vdW  Elec       q    Type
REMARK                         _______ _______ _______ _____ _____    ______ ____
ROOT
ATOM      1  O   UNL     1      -3.663  12.614  20.389  0.00  0.00    +0.000 OA
ATOM      2  C   UNL     1      -2.586  12.287  19.908  0.00  0.00    +0.000 C 
ATOM      3  C   UNL     1      -2.535  11.503  18.645  0.00  0.00    +0.000 A 
ATOM      4  C   UNL     1      -3.710  11.427  17.878  0.00  0.00    +0.000 A 
ATOM      5  C   UNL     1      -3.746  10.654  16.721  0.00  0.00    +0.000 A 
ATOM      6  C   UNL     1      -2.620   9.933  16.341  0.00  0.00    +0.000 A 
ATOM      7  C   UNL     1      -1.454   9.989  17.111  0.00  0.00    +0.000 A 
ATOM      8  C   UNL     1      -1.375  10.808  18.247  0.00  0.00    +0.000 A 
ATOM      9  N   UNL     1      -0.179  10.865  19.072  0.00  0.00    +0.000 N 
ATOM     10  S   UNL     1       0.055  12.419  19.725  0.00  0.00    +0.000 S 
ATOM     11  O   UNL     1      -0.017  13.368  18.639  0.00  0.00    +0.000 OA
ATOM     12  O   UNL     1       1.190  12.392  20.620  0.00  0.00    +0.000 OA
ATOM     13  N   UNL     1      -1.369  12.492  20.605  0.00  0.00    +0.000 N 
ENDROOT
BRANCH   9  14
ATOM     14  C   UNL     1       1.078  10.191  18.639  0.00  0.00    +0.000 C 
BRANCH  14  15
ATOM     15  C   UNL     1       1.310   8.845  19.310  0.00  0.00    +0.000 A 
ATOM     16  C   UNL     1       0.753   8.592  20.580  0.00  0.00    +0.000 A 
ATOM     17  C   UNL     1       1.087   7.447  21.307  0.00  0.00    +0.000 A 
ATOM     18  C   UNL     1       1.996   6.532  20.785  0.00  0.00    +0.000 A 
ATOM     19  C   UNL     1       2.536   6.744  19.519  0.00  0.00    +0.000 A 
ATOM     20  C   UNL     1       2.193   7.886  18.783  0.00  0.00    +0.000 A 
ATOM     21 CL   UNL     1       2.909   8.060  17.220  0.00  0.00    +0.000 Cl
ENDBRANCH  14  15
ENDBRANCH   9  14
BRANCH  13  22
ATOM     22  C   UNL     1      -1.294  12.056  22.027  0.00  0.00    +0.000 C 
BRANCH  22  23
ATOM     23  C   UNL     1      -1.999  12.920  23.056  0.00  0.00    +0.000 A 
ATOM     24  C   UNL     1      -3.195  12.526  23.677  0.00  0.00    +0.000 A 
ATOM     25  C   UNL     1      -3.831  13.351  24.611  0.00  0.00    +0.000 A 
ATOM     26  C   UNL     1      -3.287  14.592  24.939  0.00  0.00    +0.000 A 
ATOM     27  C   UNL     1      -2.105  15.006  24.333  0.00  0.00    +0.000 A 
ATOM     28  C   UNL     1      -1.466  14.180  23.401  0.00  0.00    +0.000 A 
ATOM     29 CL   UNL     1      -0.003  14.773  22.692  0.00  0.00    +0.000 Cl
ENDBRANCH  22  23
ENDBRANCH  13  22
TORSDOF 4
ENDMDL
MODEL 3
REMARK VINA RESULT:      -7.0      2.277      6.398
REMARK  Name = 
REMARK  4 active torsions:
REMARK  status: ('A' for Active; 'I' for Inactive)
REMARK    1  A    between atoms: N_9  and  C_10
REMARK    2  A    between atoms: C_10  and  C_11
REMARK    3  A    between atoms: N_21  and  C_22
REMARK    4  A    between atoms: C_22  and  C_23
REMARK                            x       y       z     vdW  Elec       q    Type
REMARK                         _______ _______ _______ _____ _____    ______ ____
ROOT
ATOM      1  O   UNL     1      -0.103   9.870  18.353  0.00  0.00    +0.000 OA
ATOM      2  C   UNL     1      -0.075  10.708  19.244  0.00  0.00    +0.000 C 
ATOM      3  C   UNL     1      -0.157  10.290  20.669  0.00  0.00    +0.000 A 
ATOM      4  C   UNL     1       0.046   8.931  20.962  0.00  0.00    +0.000 A 
ATOM      5  C   UNL     1      -0.085   8.466  22.267  0.00  0.00    +0.000 A 
ATOM      6  C   UNL     1      -0.445   9.348  23.279  0.00  0.00    +0.000 A 
ATOM      7  C   UNL     1      -0.669  10.698  22.990  0.00  0.00    +0.000 A 
ATOM      8  C   UNL     1      -0.484  11.202  21.693  0.00  0.00    +0.000 A 
ATOM      9  N   UNL     1      -0.730  12.597  21.369  0.00  0.00    +0.000 N 
ATOM     10  S   UNL     1       0.341  13.157  20.170  0.00  0.00    +0.000 S 
ATOM     11  O   UNL     1       1.682  12.826  20.588  0.00  0.00    +0.000 OA
ATOM     12  O   UNL     1      -0.018  14.509  19.807  0.00  0.00    +0.000 OA
ATOM     13  N   UNL     1      -0.128  12.096  18.961  0.00  0.00    +0.000 N 
ENDROOT
BRANCH   9  14
ATOM     14  C   UNL     1      -1.014  13.591  22.443  0.00  0.00    +0.000 C 
BRANCH  14  15
ATOM     15  C   UNL     1      -2.497  13.867  22.641  0.00  0.00    +0.000 A 
ATOM     16  C   UNL     1      -3.324  12.871  23.198  0.00  0.00    +0.000 A 
ATOM     17  C   UNL     1      -4.714  13.013  23.231  0.00  0.00    +0.000 A 
ATOM     18  C   UNL     1      -5.310  14.151  22.697  0.00  0.00    +0.000 A 
ATOM     19  C   UNL     1      -4.512  15.163  22.169  0.00  0.00    +0.000 A 
ATOM     20  C   UNL     1      -3.118  15.027  22.146  0.00  0.00    +0.000 A 
ATOM     21 CL   UNL     1      -2.211  16.337  21.476  0.00  0.00    +0.000 Cl
ENDBRANCH  14  15
ENDBRANCH   9  14
BRANCH  13  22
ATOM     22  C   UNL     1      -1.180  12.578  18.023  0.00  0.00    +0.000 C 
BRANCH  22  23
ATOM     23  C   UNL     1      -2.605  12.125  18.285  0.00  0.00    +0.000 A 
ATOM     24  C   UNL     1      -3.322  12.519  19.425  0.00  0.00    +0.000 A 
ATOM     25  C   UNL     1      -4.629  12.071  19.647  0.00  0.00    +0.000 A 
ATOM     26  C   UNL     1      -5.245  11.215  18.737  0.00  0.00    +0.000 A 
ATOM     27  C   UNL     1      -4.552  10.807  17.601  0.00  0.00    +0.000 A 
ATOM     28  C   UNL     1      -3.245  11.256  17.376  0.00  0.00    +0.000 A 
ATOM     29 CL   UNL     1      -2.454  10.698  15.942  0.00  0.00    +0.000 Cl
ENDBRANCH  22  23
ENDBRANCH  13  22
TORSDOF 4
ENDMDL
MODEL 4
REMARK VINA RESULT:      -7.0      5.002      8.172
REMARK  Name = 
REMARK  4 active torsions:
REMARK  status: ('A' for Active; 'I' for Inactive)
REMARK    1  A    between atoms: N_9  and  C_10
REMARK    2  A    between atoms: C_10  and  C_11
REMARK    3  A    between atoms: N_21  and  C_22
REMARK    4  A    between atoms: C_22  and  C_23
REMARK                            x       y       z     vdW  Elec       q    Type
REMARK                         _______ _______ _______ _____ _____    ______ ____
ROOT
ATOM      1  O   UNL     1       0.937   5.948  21.243  0.00  0.00    +0.000 OA
ATOM      2  C   UNL     1       1.679   5.554  20.354  0.00  0.00    +0.000 C 
ATOM      3  C   UNL     1       2.402   4.262  20.497  0.00  0.00    +0.000 A 
ATOM      4  C   UNL     1       1.975   3.385  21.508  0.00  0.00    +0.000 A 
ATOM      5  C   UNL     1       2.654   2.192  21.737  0.00  0.00    +0.000 A 
ATOM      6  C   UNL     1       3.776   1.882  20.977  0.00  0.00    +0.000 A 
ATOM      7  C   UNL     1       4.218   2.760  19.983  0.00  0.00    +0.000 A 
ATOM      8  C   UNL     1       3.516   3.940  19.694  0.00  0.00    +0.000 A 
ATOM      9  N   UNL     1       3.969   4.875  18.678  0.00  0.00    +0.000 N 
ATOM     10  S   UNL     1       2.660   5.627  17.891  0.00  0.00    +0.000 S 
ATOM     11  O   UNL     1       1.759   4.590  17.448  0.00  0.00    +0.000 OA
ATOM     12  O   UNL     1       3.165   6.622  16.974  0.00  0.00    +0.000 OA
ATOM     13  N   UNL     1       2.007   6.372  19.243  0.00  0.00    +0.000 N 
ENDROOT
BRANCH   9  14
ATOM     14  C   UNL     1       5.103   4.528  17.774  0.00  0.00    +0.000 C 
BRANCH  14  15
ATOM     15  C   UNL     1       6.292   5.469  17.900  0.00  0.00    +0.000 A 
ATOM     16  C   UNL     1       7.054   5.477  19.085  0.00  0.00    +0.000 A 
ATOM     17  C   UNL     1       8.036   6.445  19.313  0.00  0.00    +0.000 A 
ATOM     18  C   UNL     1       8.272   7.434  18.364  0.00  0.00    +0.000 A 
ATOM     19  C   UNL     1       7.554   7.428  17.171  0.00  0.00    +0.000 A 
ATOM     20  C   UNL     1       6.577   6.452  16.936  0.00  0.00    +0.000 A 
ATOM     21 CL   UNL     1       5.742   6.523  15.424  0.00  0.00    +0.000 Cl
ENDBRANCH  14  15
ENDBRANCH   9  14
BRANCH  13  22
ATOM     22  C   UNL     1       2.445   7.770  19.509  0.00  0.00    +0.000 C 
BRANCH  22  23
ATOM     23  C   UNL     1       1.397   8.861  19.392  0.00  0.00    +0.000 A 
ATOM     24  C   UNL     1       0.904   9.301  18.155  0.00  0.00    +0.000 A 
ATOM     25  C   UNL     1      -0.052  10.321  18.079  0.00  0.00    +0.000 A 
ATOM     26  C   UNL     1      -0.531  10.925  19.239  0.00  0.00    +0.000 A 
ATOM     27  C   UNL     1      -0.054  10.508  20.478  0.00  0.00    +0.000 A 
ATOM     28  C   UNL     1       0.901   9.487  20.556  0.00  0.00    +0.000 A 
ATOM     29 CL   UNL     1       1.443   9.032  22.134  0.00  0.00    +0.000 Cl
ENDBRANCH  22  23
ENDBRANCH  13  22
TORSDOF 4
ENDMDL
MODEL 5
REMARK VINA RESULT:      -6.9      9.239     10.676
REMARK  Name = 
REMARK  4 active torsions:
REMARK  status: ('A' for Active; 'I' for Inactive)
REMARK    1  A    between atoms: N_9  and  C_10
REMARK    2  A    between atoms: C_10  and  C_11
REMARK    3  A    between atoms: N_21  and  C_22
REMARK    4  A    between atoms: C_22  and  C_23
REMARK                            x       y       z     vdW  Elec       q    Type
REMARK                         _______ _______ _______ _____ _____    ______ ____
ROOT
ATOM      1  O   UNL     1       6.215  16.772  22.113  0.00  0.00    +0.000 OA
ATOM      2  C   UNL     1       6.847  16.614  21.078  0.00  0.00    +0.000 C 
ATOM      3  C   UNL     1       6.207  15.972  19.898  0.00  0.00    +0.000 A 
ATOM      4  C   UNL     1       4.807  15.846  19.905  0.00  0.00    +0.000 A 
ATOM      5  C   UNL     1       4.155  15.193  18.864  0.00  0.00    +0.000 A 
ATOM      6  C   UNL     1       4.897  14.641  17.826  0.00  0.00    +0.000 A 
ATOM      7  C   UNL     1       6.292  14.745  17.824  0.00  0.00    +0.000 A 
ATOM      8  C   UNL     1       6.967  15.450  18.832  0.00  0.00    +0.000 A 
ATOM      9  N   UNL     1       8.417  15.554  18.858  0.00  0.00    +0.000 N 
ATOM     10  S   UNL     1       8.924  17.051  19.489  0.00  0.00    +0.000 S 
ATOM     11  O   UNL     1       8.223  18.090  18.774  0.00  0.00    +0.000 OA
ATOM     12  O   UNL     1      10.366  17.057  19.595  0.00  0.00    +0.000 OA
ATOM     13  N   UNL     1       8.238  16.879  21.008  0.00  0.00    +0.000 N 
ENDROOT
BRANCH   9  14
ATOM     14  C   UNL     1       9.237  15.067  17.712  0.00  0.00    +0.000 C 
BRANCH  14  15
ATOM     15  C   UNL     1       9.822  13.679  17.928  0.00  0.00    +0.000 A 
ATOM     16  C   UNL     1       8.975  12.554  17.912  0.00  0.00    +0.000 A 
ATOM     17  C   UNL     1       9.438  11.288  18.282  0.00  0.00    +0.000 A 
ATOM     18  C   UNL     1      10.758  11.122  18.687  0.00  0.00    +0.000 A 
ATOM     19  C   UNL     1      11.623  12.213  18.681  0.00  0.00    +0.000 A 
ATOM     20  C   UNL     1      11.164  13.480  18.299  0.00  0.00    +0.000 A 
ATOM     21 CL   UNL     1      12.311  14.772  18.317  0.00  0.00    +0.000 Cl
ENDBRANCH  14  15
ENDBRANCH   9  14
BRANCH  13  22
ATOM     22  C   UNL     1       9.112  16.313  22.073  0.00  0.00    +0.000 C 
BRANCH  22  23
ATOM     23  C   UNL     1       8.947  14.840  22.396  0.00  0.00    +0.000 A 
ATOM     24  C   UNL     1       9.311  13.827  21.495  0.00  0.00    +0.000 A 
ATOM     25  C   UNL     1       9.133  12.476  21.815  0.00  0.00    +0.000 A 
ATOM     26  C   UNL     1       8.580  12.110  23.041  0.00  0.00    +0.000 A 
ATOM     27  C   UNL     1       8.207  13.097  23.948  0.00  0.00    +0.000 A 
ATOM     28  C   UNL     1       8.388  14.448  23.631  0.00  0.00    +0.000 A 
ATOM     29 CL   UNL     1       7.894  15.610  24.813  0.00  0.00    +0.000 Cl
ENDBRANCH  22  23
ENDBRANCH  13  22
TORSDOF 4
ENDMDL
MODEL 6
REMARK VINA RESULT:      -6.9      2.566      7.439
REMARK  Name = 
REMARK  4 active torsions:
REMARK  status: ('A' for Active; 'I' for Inactive)
REMARK    1  A    between atoms: N_9  and  C_10
REMARK    2  A    between atoms: C_10  and  C_11
REMARK    3  A    between atoms: N_21  and  C_22
REMARK    4  A    between atoms: C_22  and  C_23
REMARK                            x       y       z     vdW  Elec       q    Type
REMARK                         _______ _______ _______ _____ _____    ______ ____
ROOT
ATOM      1  O   UNL     1       1.151   8.414  21.934  0.00  0.00    +0.000 OA
ATOM      2  C   UNL     1       0.821   9.332  21.197  0.00  0.00    +0.000 C 
ATOM      3  C   UNL     1      -0.195  10.324  21.643  0.00  0.00    +0.000 A 
ATOM      4  C   UNL     1      -0.516  10.357  23.011  0.00  0.00    +0.000 A 
ATOM      5  C   UNL     1      -1.507  11.214  23.480  0.00  0.00    +0.000 A 
ATOM      6  C   UNL     1      -2.198  12.021  22.584  0.00  0.00    +0.000 A 
ATOM      7  C   UNL     1      -1.897  11.979  21.219  0.00  0.00    +0.000 A 
ATOM      8  C   UNL     1      -0.862  11.167  20.731  0.00  0.00    +0.000 A 
ATOM      9  N   UNL     1      -0.546  11.093  19.314  0.00  0.00    +0.000 N 
ATOM     10  S   UNL     1       1.122  10.868  19.057  0.00  0.00    +0.000 S 
ATOM     11  O   UNL     1       1.824  11.876  19.816  0.00  0.00    +0.000 OA
ATOM     12  O   UNL     1       1.365  10.692  17.644  0.00  0.00    +0.000 OA
ATOM     13  N   UNL     1       1.257   9.398  19.850  0.00  0.00    +0.000 N 
ENDROOT
BRANCH   9  14
ATOM     14  C   UNL     1      -1.192  12.019  18.340  0.00  0.00    +0.000 C 
BRANCH  14  15
ATOM     15  C   UNL     1      -2.270  11.357  17.494  0.00  0.00    +0.000 A 
ATOM     16  C   UNL     1      -1.908  10.644  16.334  0.00  0.00    +0.000 A 
ATOM     17  C   UNL     1      -2.872  10.177  15.436  0.00  0.00    +0.000 A 
ATOM     18  C   UNL     1      -4.220  10.423  15.673  0.00  0.00    +0.000 A 
ATOM     19  C   UNL     1      -4.605  11.098  16.828  0.00  0.00    +0.000 A 
ATOM     20  C   UNL     1      -3.640  11.556  17.736  0.00  0.00    +0.000 A 
ATOM     21 CL   UNL     1      -4.213  12.379  19.144  0.00  0.00    +0.000 Cl
ENDBRANCH  14  15
ENDBRANCH   9  14
BRANCH  13  22
ATOM     22  C   UNL     1       1.123   8.175  19.011  0.00  0.00    +0.000 C 
BRANCH  22  23
ATOM     23  C   UNL     1       2.394   7.408  18.695  0.00  0.00    +0.000 A 
ATOM     24  C   UNL     1       3.278   7.802  17.679  0.00  0.00    +0.000 A 
ATOM     25  C   UNL     1       4.434   7.065  17.400  0.00  0.00    +0.000 A 
ATOM     26  C   UNL     1       4.727   5.913  18.128  0.00  0.00    +0.000 A 
ATOM     27  C   UNL     1       3.863   5.499  19.137  0.00  0.00    +0.000 A 
ATOM     28  C   UNL     1       2.707   6.238  19.419  0.00  0.00    +0.000 A 
ATOM     29 CL   UNL     1       1.685   5.651  20.686  0.00  0.00    +0.000 Cl
ENDBRANCH  22  23
ENDBRANCH  13  22
TORSDOF 4
ENDMDL
MODEL 7
REMARK VINA RESULT:      -6.8      6.140     11.034
REMARK  Name = 
REMARK  4 active torsions:
REMARK  status: ('A' for Active; 'I' for Inactive)
REMARK    1  A    between atoms: N_9  and  C_10
REMARK    2  A    between atoms: C_10  and  C_11
REMARK    3  A    between atoms: N_21  and  C_22
REMARK    4  A    between atoms: C_22  and  C_23
REMARK                            x       y       z     vdW  Elec       q    Type
REMARK                         _______ _______ _______ _____ _____    ______ ____
ROOT
ATOM      1  O   UNL     1       3.898   2.446  16.683  0.00  0.00    +0.000 OA
ATOM      2  C   UNL     1       3.884   3.310  17.548  0.00  0.00    +0.000 C 
ATOM      3  C   UNL     1       2.943   3.208  18.696  0.00  0.00    +0.000 A 
ATOM      4  C   UNL     1       2.315   1.970  18.914  0.00  0.00    +0.000 A 
ATOM      5  C   UNL     1       1.373   1.829  19.929  0.00  0.00    +0.000 A 
ATOM      6  C   UNL     1       1.034   2.927  20.710  0.00  0.00    +0.000 A 
ATOM      7  C   UNL     1       1.640   4.167  20.485  0.00  0.00    +0.000 A 
ATOM      8  C   UNL     1       2.636   4.319  19.507  0.00  0.00    +0.000 A 
ATOM      9  N   UNL     1       3.265   5.602  19.244  0.00  0.00    +0.000 N 
ATOM     10  S   UNL     1       4.897   5.418  18.797  0.00  0.00    +0.000 S 
ATOM     11  O   UNL     1       5.534   4.588  19.790  0.00  0.00    +0.000 OA
ATOM     12  O   UNL     1       5.440   6.709  18.441  0.00  0.00    +0.000 OA
ATOM     13  N   UNL     1       4.632   4.507  17.416  0.00  0.00    +0.000 N 
ENDROOT
BRANCH   9  14
ATOM     14  C   UNL     1       3.005   6.774  20.129  0.00  0.00    +0.000 C 
BRANCH  14  15
ATOM     15  C   UNL     1       2.085   7.815  19.506  0.00  0.00    +0.000 A 
ATOM     16  C   UNL     1       2.115   8.030  18.114  0.00  0.00    +0.000 A 
ATOM     17  C   UNL     1       1.423   9.093  17.527  0.00  0.00    +0.000 A 
ATOM     18  C   UNL     1       0.694   9.972  18.321  0.00  0.00    +0.000 A 
ATOM     19  C   UNL     1       0.624   9.762  19.696  0.00  0.00    +0.000 A 
ATOM     20  C   UNL     1       1.307   8.689  20.285  0.00  0.00    +0.000 A 
ATOM     21 CL   UNL     1       1.157   8.506  21.997  0.00  0.00    +0.000 Cl
ENDBRANCH  14  15
ENDBRANCH   9  14
BRANCH  13  22
ATOM     22  C   UNL     1       4.529   5.257  16.133  0.00  0.00    +0.000 C 
BRANCH  22  23
ATOM     23  C   UNL     1       5.445   4.829  15.003  0.00  0.00    +0.000 A 
ATOM     24  C   UNL     1       5.001   4.035  13.934  0.00  0.00    +0.000 A 
ATOM     25  C   UNL     1       5.874   3.642  12.913  0.00  0.00    +0.000 A 
ATOM     26  C   UNL     1       7.212   4.030  12.943  0.00  0.00    +0.000 A 
ATOM     27  C   UNL     1       7.677   4.813  13.995  0.00  0.00    +0.000 A 
ATOM     28  C   UNL     1       6.804   5.209  15.016  0.00  0.00    +0.000 A 
ATOM     29 CL   UNL     1       7.465   6.178  16.288  0.00  0.00    +0.000 Cl
ENDBRANCH  22  23
ENDBRANCH  13  22
TORSDOF 4
ENDMDL
MODEL 8
REMARK VINA RESULT:      -6.8      2.114      6.547
REMARK  Name = 
REMARK  4 active torsions:
REMARK  status: ('A' for Active; 'I' for Inactive)
REMARK    1  A    between atoms: N_9  and  C_10
REMARK    2  A    between atoms: C_10  and  C_11
REMARK    3  A    between atoms: N_21  and  C_22
REMARK    4  A    between atoms: C_22  and  C_23
REMARK                            x       y       z     vdW  Elec       q    Type
REMARK                         _______ _______ _______ _____ _____    ______ ____
ROOT
ATOM      1  O   UNL     1      -0.076   9.780  18.351  0.00  0.00    +0.000 OA
ATOM      2  C   UNL     1      -0.059  10.659  19.202  0.00  0.00    +0.000 C 
ATOM      3  C   UNL     1      -0.155  10.308  20.645  0.00  0.00    +0.000 A 
ATOM      4  C   UNL     1       0.048   8.965  21.004  0.00  0.00    +0.000 A 
ATOM      5  C   UNL     1      -0.096   8.561  22.328  0.00  0.00    +0.000 A 
ATOM      6  C   UNL     1      -0.469   9.489  23.293  0.00  0.00    +0.000 A 
ATOM      7  C   UNL     1      -0.692  10.824  22.939  0.00  0.00    +0.000 A 
ATOM      8  C   UNL     1      -0.496  11.266  21.622  0.00  0.00    +0.000 A 
ATOM      9  N   UNL     1      -0.741  12.644  21.229  0.00  0.00    +0.000 N 
ATOM     10  S   UNL     1       0.341  13.150  20.017  0.00  0.00    +0.000 S 
ATOM     11  O   UNL     1       1.679  12.842  20.464  0.00  0.00    +0.000 OA
ATOM     12  O   UNL     1      -0.016  14.483  19.588  0.00  0.00    +0.000 OA
ATOM     13  N   UNL     1      -0.113  12.032  18.854  0.00  0.00    +0.000 N 
ENDROOT
BRANCH   9  14
ATOM     14  C   UNL     1      -1.038  13.687  22.253  0.00  0.00    +0.000 C 
BRANCH  14  15
ATOM     15  C   UNL     1      -2.430  14.288  22.122  0.00  0.00    +0.000 A 
ATOM     16  C   UNL     1      -2.612  15.473  21.382  0.00  0.00    +0.000 A 
ATOM     17  C   UNL     1      -3.833  16.154  21.387  0.00  0.00    +0.000 A 
ATOM     18  C   UNL     1      -4.896  15.670  22.141  0.00  0.00    +0.000 A 
ATOM     19  C   UNL     1      -4.750  14.484  22.856  0.00  0.00    +0.000 A 
ATOM     20  C   UNL     1      -3.531  13.794  22.843  0.00  0.00    +0.000 A 
ATOM     21 CL   UNL     1      -3.447  12.329  23.756  0.00  0.00    +0.000 Cl
ENDBRANCH  14  15
ENDBRANCH   9  14
BRANCH  13  22
ATOM     22  C   UNL     1      -1.156  12.467  17.884  0.00  0.00    +0.000 C 
BRANCH  22  23
ATOM     23  C   UNL     1      -2.585  12.040  18.163  0.00  0.00    +0.000 A 
ATOM     24  C   UNL     1      -3.293  12.476  19.294  0.00  0.00    +0.000 A 
ATOM     25  C   UNL     1      -4.605  12.053  19.533  0.00  0.00    +0.000 A 
ATOM     26  C   UNL     1      -5.235  11.179  18.649  0.00  0.00    +0.000 A 
ATOM     27  C   UNL     1      -4.551  10.729  17.524  0.00  0.00    +0.000 A 
ATOM     28  C   UNL     1      -3.239  11.154  17.281  0.00  0.00    +0.000 A 
ATOM     29 CL   UNL     1      -2.461  10.545  15.862  0.00  0.00    +0.000 Cl
ENDBRANCH  22  23
ENDBRANCH  13  22
TORSDOF 4
ENDMDL
MODEL 9
REMARK VINA RESULT:      -6.8      1.222      1.541
REMARK  Name = 
REMARK  4 active torsions:
REMARK  status: ('A' for Active; 'I' for Inactive)
REMARK    1  A    between atoms: N_9  and  C_10
REMARK    2  A    between atoms: C_10  and  C_11
REMARK    3  A    between atoms: N_21  and  C_22
REMARK    4  A    between atoms: C_22  and  C_23
REMARK                            x       y       z     vdW  Elec       q    Type
REMARK                         _______ _______ _______ _____ _____    ______ ____
ROOT
ATOM      1  O   UNL     1      -3.649  12.645  20.602  0.00  0.00    +0.000 OA
ATOM      2  C   UNL     1      -2.569  12.486  20.051  0.00  0.00    +0.000 C 
ATOM      3  C   UNL     1      -2.455  11.597  18.864  0.00  0.00    +0.000 A 
ATOM      4  C   UNL     1      -3.644  11.210  18.224  0.00  0.00    +0.000 A 
ATOM      5  C   UNL     1      -3.609  10.325  17.150  0.00  0.00    +0.000 A 
ATOM      6  C   UNL     1      -2.392   9.803  16.729  0.00  0.00    +0.000 A 
ATOM      7  C   UNL     1      -1.206  10.169  17.375  0.00  0.00    +0.000 A 
ATOM      8  C   UNL     1      -1.211  11.105  18.420  0.00  0.00    +0.000 A 
ATOM      9  N   UNL     1       0.007  11.484  19.117  0.00  0.00    +0.000 N 
ATOM     10  S   UNL     1      -0.033  13.115  19.603  0.00  0.00    +0.000 S 
ATOM     11  O   UNL     1      -0.381  13.909  18.448  0.00  0.00    +0.000 OA
ATOM     12  O   UNL     1       1.148  13.407  20.383  0.00  0.00    +0.000 OA
ATOM     13  N   UNL     1      -1.370  13.000  20.606  0.00  0.00    +0.000 N 
ENDROOT
BRANCH   9  14
ATOM     14  C   UNL     1       1.340  11.028  18.627  0.00  0.00    +0.000 C 
BRANCH  14  15
ATOM     15  C   UNL     1       1.680   9.600  19.028  0.00  0.00    +0.000 A 
ATOM     16  C   UNL     1       2.158   8.697  18.057  0.00  0.00    +0.000 A 
ATOM     17  C   UNL     1       2.310   7.337  18.340  0.00  0.00    +0.000 A 
ATOM     18  C   UNL     1       1.977   6.847  19.599  0.00  0.00    +0.000 A 
ATOM     19  C   UNL     1       1.532   7.724  20.584  0.00  0.00    +0.000 A 
ATOM     20  C   UNL     1       1.390   9.090  20.306  0.00  0.00    +0.000 A 
ATOM     21 CL   UNL     1       0.837  10.102  21.593  0.00  0.00    +0.000 Cl
ENDBRANCH  14  15
ENDBRANCH   9  14
BRANCH  13  22
ATOM     22  C   UNL     1      -1.099  12.742  22.047  0.00  0.00    +0.000 C 
BRANCH  22  23
ATOM     23  C   UNL     1      -1.411  13.861  23.024  0.00  0.00    +0.000 A 
ATOM     24  C   UNL     1      -0.638  15.029  23.101  0.00  0.00    +0.000 A 
ATOM     25  C   UNL     1      -0.941  16.037  24.023  0.00  0.00    +0.000 A 
ATOM     26  C   UNL     1      -2.021  15.895  24.892  0.00  0.00    +0.000 A 
ATOM     27  C   UNL     1      -2.800  14.743  24.837  0.00  0.00    +0.000 A 
ATOM     28  C   UNL     1      -2.500  13.735  23.913  0.00  0.00    +0.000 A 
ATOM     29 CL   UNL     1      -3.516  12.335  23.914  0.00  0.00    +0.000 Cl
ENDBRANCH  22  23
ENDBRANCH  13  22
TORSDOF 4
ENDMDL
