MODEL 1
REMARK VINA RESULT:      -8.2      0.000      0.000
REMARK  Name = 
REMARK  10 active torsions:
REMARK  status: ('A' for Active; 'I' for Inactive)
REMARK    1  A    between atoms: C_1  and  C_2
REMARK    2  A    between atoms: C_8  and  N_9
REMARK    3  A    between atoms: C_14  and  C_15
REMARK    4  A    between atoms: C_15  and  C_16
REMARK    5  A    between atoms: C_15  and  C_17
REMARK    6  A    between atoms: N_20  and  C_21
REMARK    7  A    between atoms: C_24  and  C_25
REMARK    8  A    between atoms: C_25  and  C_26
REMARK    9  A    between atoms: C_25  and  C_27
REMARK   10  A    between atoms: C_25  and  C_28
REMARK                            x       y       z     vdW  Elec       q    Type
REMARK                         _______ _______ _______ _____ _____    ______ ____
ROOT
ATOM      1  N   UNL     1       3.115   5.801  18.095  0.00  0.00    +0.000 N 
ATOM      2  C   UNL     1       3.621   6.314  19.381  0.00  0.00    +0.000 C 
ATOM      3  C   UNL     1       2.458   6.521  20.374  0.00  0.00    +0.000 C 
ATOM      4  C   UNL     1       1.681   7.817  20.233  0.00  0.00    +0.000 A 
ATOM      5  N   UNL     1       0.972   8.185  21.331  0.00  0.00    +0.000 NA
ATOM      6  C   UNL     1       0.417   9.409  21.328  0.00  0.00    +0.000 A 
ATOM      7  N   UNL     1       0.673  10.323  20.388  0.00  0.00    +0.000 NA
ATOM      8  C   UNL     1       1.368   9.952  19.302  0.00  0.00    +0.000 A 
ATOM      9  N   UNL     1       1.767  10.948  18.361  0.00  0.00    +0.000 N 
ATOM     10  C   UNL     1       1.734   8.618  19.097  0.00  0.00    +0.000 A 
ATOM     11  C   UNL     1       2.126   8.105  17.727  0.00  0.00    +0.000 C 
ATOM     12  C   UNL     1       2.008   6.578  17.502  0.00  0.00    +0.000 C 
ATOM     13  H   UNL     1       2.734  10.762  18.109  0.00  0.00    +0.000 HD
ENDROOT
BRANCH   1  21
ATOM     14  C   UNL     1       3.681   2.945  17.706  0.00  0.00    +0.000 C 
ATOM     15  C   UNL     1       4.376   4.041  16.953  0.00  0.00    +0.000 A 
ATOM     16  C   UNL     1       5.390   3.677  16.049  0.00  0.00    +0.000 A 
ATOM     17  C   UNL     1       6.110   4.669  15.404  0.00  0.00    +0.000 A 
ATOM     18  F   UNL     1       7.088   4.342  14.550  0.00  0.00    +0.000 F 
ATOM     19  C   UNL     1       5.806   5.980  15.678  0.00  0.00    +0.000 A 
ATOM     20  N   UNL     1       4.831   6.374  16.543  0.00  0.00    +0.000 NA
ATOM     21  C   UNL     1       4.108   5.415  17.178  0.00  0.00    +0.000 A 
ENDBRANCH   1  21
BRANCH   9  22
ATOM     22  C   UNL     1       1.580  12.357  18.473  0.00  0.00    +0.000 A 
ATOM     23  C   UNL     1       0.327  12.956  18.607  0.00  0.00    +0.000 A 
ATOM     24  C   UNL     1       0.175  14.353  18.656  0.00  0.00    +0.000 A 
ATOM     25  C   UNL     1       1.269  15.221  18.539  0.00  0.00    +0.000 A 
ATOM     26  C   UNL     1       2.528  14.617  18.373  0.00  0.00    +0.000 A 
ATOM     27  C   UNL     1       2.678  13.217  18.332  0.00  0.00    +0.000 A 
BRANCH  25  28
ATOM     28  C   UNL     1       1.121  16.756  18.583  0.00  0.00    +0.000 C 
ATOM     29  C   UNL     1       1.539  17.377  19.938  0.00  0.00    +0.000 C 
ATOM     30  C   UNL     1       2.004  17.406  17.496  0.00  0.00    +0.000 C 
ATOM     31  C   UNL     1      -0.349  17.162  18.338  0.00  0.00    +0.000 C 
ENDBRANCH  25  28
ENDBRANCH   9  22
BRANCH   6  32
ATOM     32  C   UNL     1      -0.568   9.790  22.415  0.00  0.00    +0.000 C 
ATOM     33  C   UNL     1      -0.019   9.464  23.806  0.00  0.00    +0.000 C 
ATOM     34  C   UNL     1      -0.922  11.283  22.344  0.00  0.00    +0.000 C 
ENDBRANCH   6  32
TORSDOF 4
ENDMDL
MODEL 2
REMARK VINA RESULT:      -8.1      0.330      1.201
REMARK  Name = 
REMARK  10 active torsions:
REMARK  status: ('A' for Active; 'I' for Inactive)
REMARK    1  A    between atoms: C_1  and  C_2
REMARK    2  A    between atoms: C_8  and  N_9
REMARK    3  A    between atoms: C_14  and  C_15
REMARK    4  A    between atoms: C_15  and  C_16
REMARK    5  A    between atoms: C_15  and  C_17
REMARK    6  A    between atoms: N_20  and  C_21
REMARK    7  A    between atoms: C_24  and  C_25
REMARK    8  A    between atoms: C_25  and  C_26
REMARK    9  A    between atoms: C_25  and  C_27
REMARK   10  A    between atoms: C_25  and  C_28
REMARK                            x       y       z     vdW  Elec       q    Type
REMARK                         _______ _______ _______ _____ _____    ______ ____
ROOT
ATOM      1  N   UNL     1       3.010   5.916  18.130  0.00  0.00    +0.000 N 
ATOM      2  C   UNL     1       3.499   6.432  19.422  0.00  0.00    +0.000 C 
ATOM      3  C   UNL     1       2.317   6.707  20.375  0.00  0.00    +0.000 C 
ATOM      4  C   UNL     1       1.601   8.032  20.186  0.00  0.00    +0.000 A 
ATOM      5  N   UNL     1       0.876   8.452  21.254  0.00  0.00    +0.000 NA
ATOM      6  C   UNL     1       0.375   9.699  21.212  0.00  0.00    +0.000 A 
ATOM      7  N   UNL     1       0.699  10.582  20.264  0.00  0.00    +0.000 NA
ATOM      8  C   UNL     1       1.409  10.161  19.207  0.00  0.00    +0.000 A 
ATOM      9  N   UNL     1       1.880  11.120  18.261  0.00  0.00    +0.000 N 
ATOM     10  C   UNL     1       1.723   8.808  19.038  0.00  0.00    +0.000 A 
ATOM     11  C   UNL     1       2.133   8.251  17.690  0.00  0.00    +0.000 C 
ATOM     12  C   UNL     1       1.956   6.727  17.490  0.00  0.00    +0.000 C 
ATOM     13  H   UNL     1       2.844  10.887  18.042  0.00  0.00    +0.000 HD
ENDROOT
BRANCH   1  21
ATOM     14  C   UNL     1       3.291   3.037  17.614  0.00  0.00    +0.000 C 
ATOM     15  C   UNL     1       4.146   4.087  16.965  0.00  0.00    +0.000 A 
ATOM     16  C   UNL     1       5.170   3.660  16.102  0.00  0.00    +0.000 A 
ATOM     17  C   UNL     1       6.032   4.597  15.557  0.00  0.00    +0.000 A 
ATOM     18  F   UNL     1       7.021   4.208  14.743  0.00  0.00    +0.000 F 
ATOM     19  C   UNL     1       5.853   5.919  15.887  0.00  0.00    +0.000 A 
ATOM     20  N   UNL     1       4.872   6.373  16.715  0.00  0.00    +0.000 NA
ATOM     21  C   UNL     1       4.012   5.469  17.252  0.00  0.00    +0.000 A 
ENDBRANCH   1  21
BRANCH   9  22
ATOM     22  C   UNL     1       1.751  12.537  18.341  0.00  0.00    +0.000 A 
ATOM     23  C   UNL     1       2.840  13.409  18.333  0.00  0.00    +0.000 A 
ATOM     24  C   UNL     1       2.678  14.799  18.473  0.00  0.00    +0.000 A 
ATOM     25  C   UNL     1       1.418  15.382  18.661  0.00  0.00    +0.000 A 
ATOM     26  C   UNL     1       0.323  14.500  18.699  0.00  0.00    +0.000 A 
ATOM     27  C   UNL     1       0.488  13.109  18.551  0.00  0.00    +0.000 A 
BRANCH  25  28
ATOM     28  C   UNL     1       1.222  16.903  18.823  0.00  0.00    +0.000 C 
ATOM     29  C   UNL     1       1.507  17.703  17.529  0.00  0.00    +0.000 C 
ATOM     30  C   UNL     1      -0.235  17.211  19.233  0.00  0.00    +0.000 C 
ATOM     31  C   UNL     1       2.170  17.456  19.909  0.00  0.00    +0.000 C 
ENDBRANCH  25  28
ENDBRANCH   9  22
BRANCH   6  32
ATOM     32  C   UNL     1      -0.625  10.143  22.261  0.00  0.00    +0.000 C 
ATOM     33  C   UNL     1      -0.294   9.553  23.633  0.00  0.00    +0.000 C 
ATOM     34  C   UNL     1      -0.676  11.675  22.364  0.00  0.00    +0.000 C 
ENDBRANCH   6  32
TORSDOF 4
ENDMDL
MODEL 3
REMARK VINA RESULT:      -8.0      3.659      9.583
REMARK  Name = 
REMARK  10 active torsions:
REMARK  status: ('A' for Active; 'I' for Inactive)
REMARK    1  A    between atoms: C_1  and  C_2
REMARK    2  A    between atoms: C_8  and  N_9
REMARK    3  A    between atoms: C_14  and  C_15
REMARK    4  A    between atoms: C_15  and  C_16
REMARK    5  A    between atoms: C_15  and  C_17
REMARK    6  A    between atoms: N_20  and  C_21
REMARK    7  A    between atoms: C_24  and  C_25
REMARK    8  A    between atoms: C_25  and  C_26
REMARK    9  A    between atoms: C_25  and  C_27
REMARK   10  A    between atoms: C_25  and  C_28
REMARK                            x       y       z     vdW  Elec       q    Type
REMARK                         _______ _______ _______ _____ _____    ______ ____
ROOT
ATOM      1  N   UNL     1       1.485  15.122  20.072  0.00  0.00    +0.000 N 
ATOM      2  C   UNL     1       1.349  14.746  18.653  0.00  0.00    +0.000 C 
ATOM      3  C   UNL     1      -0.063  14.188  18.375  0.00  0.00    +0.000 C 
ATOM      4  C   UNL     1      -0.284  12.726  18.721  0.00  0.00    +0.000 A 
ATOM      5  N   UNL     1      -1.341  12.142  18.101  0.00  0.00    +0.000 NA
ATOM      6  C   UNL     1      -1.473  10.810  18.225  0.00  0.00    +0.000 A 
ATOM      7  N   UNL     1      -0.535  10.032  18.772  0.00  0.00    +0.000 NA
ATOM      8  C   UNL     1       0.505  10.615  19.389  0.00  0.00    +0.000 A 
ATOM      9  N   UNL     1       1.581   9.800  19.853  0.00  0.00    +0.000 N 
ATOM     10  C   UNL     1       0.565  12.002  19.553  0.00  0.00    +0.000 A 
ATOM     11  C   UNL     1       1.471  12.641  20.585  0.00  0.00    +0.000 C 
ATOM     12  C   UNL     1       1.101  14.074  21.038  0.00  0.00    +0.000 C 
ATOM     13  H   UNL     1       2.448  10.264  19.598  0.00  0.00    +0.000 HD
ENDROOT
BRANCH   1  21
ATOM     14  C   UNL     1       1.366  17.974  20.769  0.00  0.00    +0.000 C 
ATOM     15  C   UNL     1       2.634  17.170  20.764  0.00  0.00    +0.000 A 
ATOM     16  C   UNL     1       3.836  17.836  21.060  0.00  0.00    +0.000 A 
ATOM     17  C   UNL     1       5.032  17.143  20.977  0.00  0.00    +0.000 A 
ATOM     18  F   UNL     1       6.188  17.764  21.244  0.00  0.00    +0.000 F 
ATOM     19  C   UNL     1       4.998  15.822  20.602  0.00  0.00    +0.000 A 
ATOM     20  N   UNL     1       3.855  15.141  20.311  0.00  0.00    +0.000 NA
ATOM     21  C   UNL     1       2.672  15.801  20.395  0.00  0.00    +0.000 A 
ENDBRANCH   1  21
BRANCH   9  22
ATOM     22  C   UNL     1       1.734   8.395  19.667  0.00  0.00    +0.000 A 
ATOM     23  C   UNL     1       1.467   7.456  20.664  0.00  0.00    +0.000 A 
ATOM     24  C   UNL     1       1.685   6.081  20.464  0.00  0.00    +0.000 A 
ATOM     25  C   UNL     1       2.213   5.582  19.266  0.00  0.00    +0.000 A 
ATOM     26  C   UNL     1       2.511   6.532  18.273  0.00  0.00    +0.000 A 
ATOM     27  C   UNL     1       2.284   7.908  18.473  0.00  0.00    +0.000 A 
BRANCH  25  28
ATOM     28  C   UNL     1       2.466   4.079  19.032  0.00  0.00    +0.000 C 
ATOM     29  C   UNL     1       2.105   3.608  17.602  0.00  0.00    +0.000 C 
ATOM     30  C   UNL     1       3.958   3.750  19.253  0.00  0.00    +0.000 C 
ATOM     31  C   UNL     1       1.620   3.232  20.008  0.00  0.00    +0.000 C 
ENDBRANCH  25  28
ENDBRANCH   9  22
BRANCH   6  32
ATOM     32  C   UNL     1      -2.745  10.134  17.754  0.00  0.00    +0.000 C 
ATOM     33  C   UNL     1      -3.977  10.989  18.055  0.00  0.00    +0.000 C 
ATOM     34  C   UNL     1      -2.688   9.835  16.248  0.00  0.00    +0.000 C 
ENDBRANCH   6  32
TORSDOF 4
ENDMDL
MODEL 4
REMARK VINA RESULT:      -7.9      3.925      9.914
REMARK  Name = 
REMARK  10 active torsions:
REMARK  status: ('A' for Active; 'I' for Inactive)
REMARK    1  A    between atoms: C_1  and  C_2
REMARK    2  A    between atoms: C_8  and  N_9
REMARK    3  A    between atoms: C_14  and  C_15
REMARK    4  A    between atoms: C_15  and  C_16
REMARK    5  A    between atoms: C_15  and  C_17
REMARK    6  A    between atoms: N_20  and  C_21
REMARK    7  A    between atoms: C_24  and  C_25
REMARK    8  A    between atoms: C_25  and  C_26
REMARK    9  A    between atoms: C_25  and  C_27
REMARK   10  A    between atoms: C_25  and  C_28
REMARK                            x       y       z     vdW  Elec       q    Type
REMARK                         _______ _______ _______ _____ _____    ______ ____
ROOT
ATOM      1  N   UNL     1       0.471  14.886  20.993  0.00  0.00    +0.000 N 
ATOM      2  C   UNL     1       0.782  14.720  19.562  0.00  0.00    +0.000 C 
ATOM      3  C   UNL     1      -0.415  14.090  18.819  0.00  0.00    +0.000 C 
ATOM      4  C   UNL     1      -0.535  12.580  18.905  0.00  0.00    +0.000 A 
ATOM      5  N   UNL     1      -1.297  12.007  17.938  0.00  0.00    +0.000 NA
ATOM      6  C   UNL     1      -1.288  10.665  17.855  0.00  0.00    +0.000 A 
ATOM      7  N   UNL     1      -0.446   9.898  18.553  0.00  0.00    +0.000 NA
ATOM      8  C   UNL     1       0.299  10.468  19.513  0.00  0.00    +0.000 A 
ATOM      9  N   UNL     1       1.299   9.689  20.167  0.00  0.00    +0.000 N 
ATOM     10  C   UNL     1       0.135  11.814  19.854  0.00  0.00    +0.000 A 
ATOM     11  C   UNL     1       0.632  12.364  21.175  0.00  0.00    +0.000 C 
ATOM     12  C   UNL     1      -0.029  13.673  21.670  0.00  0.00    +0.000 C 
ATOM     13  H   UNL     1       2.137  10.260  20.235  0.00  0.00    +0.000 HD
ENDROOT
BRANCH   1  21
ATOM     14  C   UNL     1       0.071  17.763  21.433  0.00  0.00    +0.000 C 
ATOM     15  C   UNL     1       1.238  16.992  21.979  0.00  0.00    +0.000 A 
ATOM     16  C   UNL     1       2.217  17.700  22.696  0.00  0.00    +0.000 A 
ATOM     17  C   UNL     1       3.349  17.034  23.136  0.00  0.00    +0.000 A 
ATOM     18  F   UNL     1       4.299  17.695  23.810  0.00  0.00    +0.000 F 
ATOM     19  C   UNL     1       3.473  15.696  22.848  0.00  0.00    +0.000 A 
ATOM     20  N   UNL     1       2.546  14.974  22.160  0.00  0.00    +0.000 NA
ATOM     21  C   UNL     1       1.426  15.608  21.728  0.00  0.00    +0.000 A 
ENDBRANCH   1  21
BRANCH   9  22
ATOM     22  C   UNL     1       1.675   8.347  19.865  0.00  0.00    +0.000 A 
ATOM     23  C   UNL     1       2.243   7.964  18.650  0.00  0.00    +0.000 A 
ATOM     24  C   UNL     1       2.546   6.622  18.364  0.00  0.00    +0.000 A 
ATOM     25  C   UNL     1       2.266   5.590  19.270  0.00  0.00    +0.000 A 
ATOM     26  C   UNL     1       1.666   5.973  20.483  0.00  0.00    +0.000 A 
ATOM     27  C   UNL     1       1.369   7.320  20.769  0.00  0.00    +0.000 A 
BRANCH  25  28
ATOM     28  C   UNL     1       2.586   4.112  18.971  0.00  0.00    +0.000 C 
ATOM     29  C   UNL     1       4.060   3.731  19.248  0.00  0.00    +0.000 C 
ATOM     30  C   UNL     1       1.709   3.190  19.848  0.00  0.00    +0.000 C 
ATOM     31  C   UNL     1       2.311   3.790  17.486  0.00  0.00    +0.000 C 
ENDBRANCH  25  28
ENDBRANCH   9  22
BRANCH   6  32
ATOM     32  C   UNL     1      -2.283   9.961  16.955  0.00  0.00    +0.000 C 
ATOM     33  C   UNL     1      -3.528   9.526  17.730  0.00  0.00    +0.000 C 
ATOM     34  C   UNL     1      -2.701  10.860  15.782  0.00  0.00    +0.000 C 
ENDBRANCH   6  32
TORSDOF 4
ENDMDL
MODEL 5
REMARK VINA RESULT:      -7.9      3.998      9.874
REMARK  Name = 
REMARK  10 active torsions:
REMARK  status: ('A' for Active; 'I' for Inactive)
REMARK    1  A    between atoms: C_1  and  C_2
REMARK    2  A    between atoms: C_8  and  N_9
REMARK    3  A    between atoms: C_14  and  C_15
REMARK    4  A    between atoms: C_15  and  C_16
REMARK    5  A    between atoms: C_15  and  C_17
REMARK    6  A    between atoms: N_20  and  C_21
REMARK    7  A    between atoms: C_24  and  C_25
REMARK    8  A    between atoms: C_25  and  C_26
REMARK    9  A    between atoms: C_25  and  C_27
REMARK   10  A    between atoms: C_25  and  C_28
REMARK                            x       y       z     vdW  Elec       q    Type
REMARK                         _______ _______ _______ _____ _____    ______ ____
ROOT
ATOM      1  N   UNL     1       0.271  14.798  21.381  0.00  0.00    +0.000 N 
ATOM      2  C   UNL     1       0.525  14.767  19.929  0.00  0.00    +0.000 C 
ATOM      3  C   UNL     1      -0.679  14.153  19.184  0.00  0.00    +0.000 C 
ATOM      4  C   UNL     1      -0.739  12.637  19.144  0.00  0.00    +0.000 A 
ATOM      5  N   UNL     1      -1.520  12.117  18.163  0.00  0.00    +0.000 NA
ATOM      6  C   UNL     1      -1.463  10.789  17.964  0.00  0.00    +0.000 A 
ATOM      7  N   UNL     1      -0.564  10.001  18.558  0.00  0.00    +0.000 NA
ATOM      8  C   UNL     1       0.201  10.517  19.532  0.00  0.00    +0.000 A 
ATOM      9  N   UNL     1       1.258   9.728  20.076  0.00  0.00    +0.000 N 
ATOM     10  C   UNL     1       0.001  11.822  19.995  0.00  0.00    +0.000 A 
ATOM     11  C   UNL     1       0.535  12.278  21.337  0.00  0.00    +0.000 C 
ATOM     12  C   UNL     1      -0.152  13.512  21.970  0.00  0.00    +0.000 C 
ATOM     13  H   UNL     1       2.076  10.325  20.159  0.00  0.00    +0.000 HD
ENDROOT
BRANCH   1  21
ATOM     14  C   UNL     1      -0.507  17.272  22.761  0.00  0.00    +0.000 C 
ATOM     15  C   UNL     1       0.868  16.674  22.835  0.00  0.00    +0.000 A 
ATOM     16  C   UNL     1       1.849  17.368  23.565  0.00  0.00    +0.000 A 
ATOM     17  C   UNL     1       3.148  16.889  23.580  0.00  0.00    +0.000 A 
ATOM     18  F   UNL     1       4.098  17.544  24.260  0.00  0.00    +0.000 F 
ATOM     19  C   UNL     1       3.431  15.747  22.871  0.00  0.00    +0.000 A 
ATOM     20  N   UNL     1       2.511  15.044  22.155  0.00  0.00    +0.000 NA
ATOM     21  C   UNL     1       1.230  15.494  22.136  0.00  0.00    +0.000 A 
ENDBRANCH   1  21
BRANCH   9  22
ATOM     22  C   UNL     1       1.670   8.433  19.644  0.00  0.00    +0.000 A 
ATOM     23  C   UNL     1       1.729   7.325  20.490  0.00  0.00    +0.000 A 
ATOM     24  C   UNL     1       2.197   6.077  20.043  0.00  0.00    +0.000 A 
ATOM     25  C   UNL     1       2.660   5.884  18.734  0.00  0.00    +0.000 A 
ATOM     26  C   UNL     1       2.629   7.010  17.891  0.00  0.00    +0.000 A 
ATOM     27  C   UNL     1       2.153   8.257  18.340  0.00  0.00    +0.000 A 
BRANCH  25  28
ATOM     28  C   UNL     1       3.183   4.525  18.229  0.00  0.00    +0.000 C 
ATOM     29  C   UNL     1       4.257   4.650  17.121  0.00  0.00    +0.000 C 
ATOM     30  C   UNL     1       3.823   3.736  19.392  0.00  0.00    +0.000 C 
ATOM     31  C   UNL     1       2.027   3.688  17.639  0.00  0.00    +0.000 C 
ENDBRANCH  25  28
ENDBRANCH   9  22
BRANCH   6  32
ATOM     32  C   UNL     1      -2.470  10.123  17.047  0.00  0.00    +0.000 C 
ATOM     33  C   UNL     1      -3.816   9.921  17.748  0.00  0.00    +0.000 C 
ATOM     34  C   UNL     1      -2.681  10.944  15.766  0.00  0.00    +0.000 C 
ENDBRANCH   6  32
TORSDOF 4
ENDMDL
MODEL 6
REMARK VINA RESULT:      -7.9      3.695      9.634
REMARK  Name = 
REMARK  10 active torsions:
REMARK  status: ('A' for Active; 'I' for Inactive)
REMARK    1  A    between atoms: C_1  and  C_2
REMARK    2  A    between atoms: C_8  and  N_9
REMARK    3  A    between atoms: C_14  and  C_15
REMARK    4  A    between atoms: C_15  and  C_16
REMARK    5  A    between atoms: C_15  and  C_17
REMARK    6  A    between atoms: N_20  and  C_21
REMARK    7  A    between atoms: C_24  and  C_25
REMARK    8  A    between atoms: C_25  and  C_26
REMARK    9  A    between atoms: C_25  and  C_27
REMARK   10  A    between atoms: C_25  and  C_28
REMARK                            x       y       z     vdW  Elec       q    Type
REMARK                         _______ _______ _______ _____ _____    ______ ____
ROOT
ATOM      1  N   UNL     1       1.409  15.176  20.105  0.00  0.00    +0.000 N 
ATOM      2  C   UNL     1       1.277  14.810  18.683  0.00  0.00    +0.000 C 
ATOM      3  C   UNL     1      -0.119  14.212  18.408  0.00  0.00    +0.000 C 
ATOM      4  C   UNL     1      -0.293  12.741  18.740  0.00  0.00    +0.000 A 
ATOM      5  N   UNL     1      -1.336  12.131  18.120  0.00  0.00    +0.000 NA
ATOM      6  C   UNL     1      -1.427  10.794  18.231  0.00  0.00    +0.000 A 
ATOM      7  N   UNL     1      -0.462  10.040  18.764  0.00  0.00    +0.000 NA
ATOM      8  C   UNL     1       0.563  10.648  19.382  0.00  0.00    +0.000 A 
ATOM      9  N   UNL     1       1.666   9.862  19.831  0.00  0.00    +0.000 N 
ATOM     10  C   UNL     1       0.581  12.035  19.559  0.00  0.00    +0.000 A 
ATOM     11  C   UNL     1       1.474  12.691  20.593  0.00  0.00    +0.000 C 
ATOM     12  C   UNL     1       1.063  14.107  21.062  0.00  0.00    +0.000 C 
ATOM     13  H   UNL     1       2.517  10.355  19.576  0.00  0.00    +0.000 HD
ENDROOT
BRANCH   1  21
ATOM     14  C   UNL     1       1.185  17.940  21.075  0.00  0.00    +0.000 C 
ATOM     15  C   UNL     1       2.490  17.213  20.927  0.00  0.00    +0.000 A 
ATOM     16  C   UNL     1       3.672  17.915  21.222  0.00  0.00    +0.000 A 
ATOM     17  C   UNL     1       4.895  17.300  21.011  0.00  0.00    +0.000 A 
ATOM     18  F   UNL     1       6.032  17.958  21.274  0.00  0.00    +0.000 F 
ATOM     19  C   UNL     1       4.906  16.020  20.514  0.00  0.00    +0.000 A 
ATOM     20  N   UNL     1       3.785  15.305  20.220  0.00  0.00    +0.000 NA
ATOM     21  C   UNL     1       2.577  15.888  20.428  0.00  0.00    +0.000 A 
ENDBRANCH   1  21
BRANCH   9  22
ATOM     22  C   UNL     1       1.861   8.464  19.630  0.00  0.00    +0.000 A 
ATOM     23  C   UNL     1       2.303   7.916  18.426  0.00  0.00    +0.000 A 
ATOM     24  C   UNL     1       2.428   6.528  18.245  0.00  0.00    +0.000 A 
ATOM     25  C   UNL     1       2.083   5.616  19.252  0.00  0.00    +0.000 A 
ATOM     26  C   UNL     1       1.608   6.168  20.455  0.00  0.00    +0.000 A 
ATOM     27  C   UNL     1       1.491   7.560  20.636  0.00  0.00    +0.000 A 
BRANCH  25  28
ATOM     28  C   UNL     1       2.206   4.090  19.070  0.00  0.00    +0.000 C 
ATOM     29  C   UNL     1       1.142   3.287  19.856  0.00  0.00    +0.000 C 
ATOM     30  C   UNL     1       2.044   3.718  17.580  0.00  0.00    +0.000 C 
ATOM     31  C   UNL     1       3.587   3.598  19.556  0.00  0.00    +0.000 C 
ENDBRANCH  25  28
ENDBRANCH   9  22
BRANCH   6  32
ATOM     32  C   UNL     1      -2.681  10.084  17.760  0.00  0.00    +0.000 C 
ATOM     33  C   UNL     1      -3.938  10.890  18.093  0.00  0.00    +0.000 C 
ATOM     34  C   UNL     1      -2.631   9.819  16.248  0.00  0.00    +0.000 C 
ENDBRANCH   6  32
TORSDOF 4
ENDMDL
MODEL 7
REMARK VINA RESULT:      -7.9      4.750     10.312
REMARK  Name = 
REMARK  10 active torsions:
REMARK  status: ('A' for Active; 'I' for Inactive)
REMARK    1  A    between atoms: C_1  and  C_2
REMARK    2  A    between atoms: C_8  and  N_9
REMARK    3  A    between atoms: C_14  and  C_15
REMARK    4  A    between atoms: C_15  and  C_16
REMARK    5  A    between atoms: C_15  and  C_17
REMARK    6  A    between atoms: N_20  and  C_21
REMARK    7  A    between atoms: C_24  and  C_25
REMARK    8  A    between atoms: C_25  and  C_26
REMARK    9  A    between atoms: C_25  and  C_27
REMARK   10  A    between atoms: C_25  and  C_28
REMARK                            x       y       z     vdW  Elec       q    Type
REMARK                         _______ _______ _______ _____ _____    ______ ____
ROOT
ATOM      1  N   UNL     1      -1.714  14.681  22.735  0.00  0.00    +0.000 N 
ATOM      2  C   UNL     1      -1.458  14.941  21.306  0.00  0.00    +0.000 C 
ATOM      3  C   UNL     1      -2.470  14.174  20.429  0.00  0.00    +0.000 C 
ATOM      4  C   UNL     1      -2.148  12.715  20.158  0.00  0.00    +0.000 A 
ATOM      5  N   UNL     1      -2.774  12.179  19.079  0.00  0.00    +0.000 NA
ATOM      6  C   UNL     1      -2.387  10.953  18.685  0.00  0.00    +0.000 A 
ATOM      7  N   UNL     1      -1.320  10.328  19.190  0.00  0.00    +0.000 NA
ATOM      8  C   UNL     1      -0.711  10.858  20.261  0.00  0.00    +0.000 A 
ATOM      9  N   UNL     1       0.509  10.278  20.722  0.00  0.00    +0.000 N 
ATOM     10  C   UNL     1      -1.231  11.984  20.906  0.00  0.00    +0.000 A 
ATOM     11  C   UNL     1      -0.830  12.343  22.323  0.00  0.00    +0.000 C 
ATOM     12  C   UNL     1      -1.804  13.255  23.106  0.00  0.00    +0.000 C 
ATOM     13  H   UNL     1       1.152  11.038  20.927  0.00  0.00    +0.000 HD
ENDROOT
BRANCH   1  21
ATOM     14  C   UNL     1      -2.851  15.376  25.353  0.00  0.00    +0.000 C 
ATOM     15  C   UNL     1      -1.478  15.787  24.906  0.00  0.00    +0.000 A 
ATOM     16  C   UNL     1      -0.717  16.592  25.772  0.00  0.00    +0.000 A 
ATOM     17  C   UNL     1       0.516  17.061  25.352  0.00  0.00    +0.000 A 
ATOM     18  F   UNL     1       1.249  17.840  26.158  0.00  0.00    +0.000 F 
ATOM     19  C   UNL     1       0.951  16.720  24.094  0.00  0.00    +0.000 A 
ATOM     20  N   UNL     1       0.247  15.941  23.228  0.00  0.00    +0.000 NA
ATOM     21  C   UNL     1      -0.961  15.465  23.625  0.00  0.00    +0.000 A 
ENDBRANCH   1  21
BRANCH   9  22
ATOM     22  C   UNL     1       1.232   9.209  20.117  0.00  0.00    +0.000 A 
ATOM     23  C   UNL     1       1.654   9.223  18.787  0.00  0.00    +0.000 A 
ATOM     24  C   UNL     1       2.313   8.126  18.207  0.00  0.00    +0.000 A 
ATOM     25  C   UNL     1       2.555   6.944  18.922  0.00  0.00    +0.000 A 
ATOM     26  C   UNL     1       2.103   6.919  20.253  0.00  0.00    +0.000 A 
ATOM     27  C   UNL     1       1.448   8.023  20.834  0.00  0.00    +0.000 A 
BRANCH  25  28
ATOM     28  C   UNL     1       3.271   5.728  18.300  0.00  0.00    +0.000 C 
ATOM     29  C   UNL     1       2.300   4.663  17.737  0.00  0.00    +0.000 C 
ATOM     30  C   UNL     1       4.172   6.182  17.131  0.00  0.00    +0.000 C 
ATOM     31  C   UNL     1       4.148   5.021  19.356  0.00  0.00    +0.000 C 
ENDBRANCH  25  28
ENDBRANCH   9  22
BRANCH   6  32
ATOM     32  C   UNL     1      -3.195  10.211  17.638  0.00  0.00    +0.000 C 
ATOM     33  C   UNL     1      -4.493  10.949  17.307  0.00  0.00    +0.000 C 
ATOM     34  C   UNL     1      -2.381  10.009  16.351  0.00  0.00    +0.000 C 
ENDBRANCH   6  32
TORSDOF 4
ENDMDL
MODEL 8
REMARK VINA RESULT:      -7.8      4.741     10.464
REMARK  Name = 
REMARK  10 active torsions:
REMARK  status: ('A' for Active; 'I' for Inactive)
REMARK    1  A    between atoms: C_1  and  C_2
REMARK    2  A    between atoms: C_8  and  N_9
REMARK    3  A    between atoms: C_14  and  C_15
REMARK    4  A    between atoms: C_15  and  C_16
REMARK    5  A    between atoms: C_15  and  C_17
REMARK    6  A    between atoms: N_20  and  C_21
REMARK    7  A    between atoms: C_24  and  C_25
REMARK    8  A    between atoms: C_25  and  C_26
REMARK    9  A    between atoms: C_25  and  C_27
REMARK   10  A    between atoms: C_25  and  C_28
REMARK                            x       y       z     vdW  Elec       q    Type
REMARK                         _______ _______ _______ _____ _____    ______ ____
ROOT
ATOM      1  N   UNL     1      -3.003  14.386  21.821  0.00  0.00    +0.000 N 
ATOM      2  C   UNL     1      -1.762  14.373  22.616  0.00  0.00    +0.000 C 
ATOM      3  C   UNL     1      -0.601  14.998  21.814  0.00  0.00    +0.000 C 
ATOM      4  C   UNL     1       0.096  14.084  20.823  0.00  0.00    +0.000 A 
ATOM      5  N   UNL     1       1.339  14.481  20.450  0.00  0.00    +0.000 NA
ATOM      6  C   UNL     1       2.072  13.619  19.723  0.00  0.00    +0.000 A 
ATOM      7  N   UNL     1       1.706  12.353  19.506  0.00  0.00    +0.000 NA
ATOM      8  C   UNL     1       0.474  11.968  19.870  0.00  0.00    +0.000 A 
ATOM      9  N   UNL     1       0.121  10.589  19.772  0.00  0.00    +0.000 N 
ATOM     10  C   UNL     1      -0.453  12.887  20.373  0.00  0.00    +0.000 A 
ATOM     11  C   UNL     1      -1.938  12.588  20.389  0.00  0.00    +0.000 C 
ATOM     12  C   UNL     1      -2.887  13.808  20.468  0.00  0.00    +0.000 C 
ATOM     13  H   UNL     1      -0.372  10.337  20.624  0.00  0.00    +0.000 HD
ENDROOT
BRANCH   1  21
ATOM     14  C   UNL     1      -5.514  15.844  21.368  0.00  0.00    +0.000 C 
ATOM     15  C   UNL     1      -5.389  14.668  22.294  0.00  0.00    +0.000 A 
ATOM     16  C   UNL     1      -6.528  14.279  23.020  0.00  0.00    +0.000 A 
ATOM     17  C   UNL     1      -6.423  13.256  23.947  0.00  0.00    +0.000 A 
ATOM     18  F   UNL     1      -7.494  12.880  24.658  0.00  0.00    +0.000 F 
ATOM     19  C   UNL     1      -5.199  12.657  24.124  0.00  0.00    +0.000 A 
ATOM     20  N   UNL     1      -4.074  13.002  23.438  0.00  0.00    +0.000 NA
ATOM     21  C   UNL     1      -4.160  13.998  22.520  0.00  0.00    +0.000 A 
ENDBRANCH   1  21
BRANCH   9  22
ATOM     22  C   UNL     1       0.974   9.511  19.393  0.00  0.00    +0.000 A 
ATOM     23  C   UNL     1       1.445   9.326  18.093  0.00  0.00    +0.000 A 
ATOM     24  C   UNL     1       2.236   8.219  17.742  0.00  0.00    +0.000 A 
ATOM     25  C   UNL     1       2.570   7.223  18.671  0.00  0.00    +0.000 A 
ATOM     26  C   UNL     1       2.070   7.394  19.974  0.00  0.00    +0.000 A 
ATOM     27  C   UNL     1       1.282   8.509  20.324  0.00  0.00    +0.000 A 
BRANCH  25  28
ATOM     28  C   UNL     1       3.431   5.998  18.303  0.00  0.00    +0.000 C 
ATOM     29  C   UNL     1       2.608   4.809  17.750  0.00  0.00    +0.000 C 
ATOM     30  C   UNL     1       4.461   6.379  17.217  0.00  0.00    +0.000 C 
ATOM     31  C   UNL     1       4.189   5.479  19.544  0.00  0.00    +0.000 C 
ENDBRANCH  25  28
ENDBRANCH   9  22
BRANCH   6  32
ATOM     32  C   UNL     1       3.367  14.085  19.088  0.00  0.00    +0.000 C 
ATOM     33  C   UNL     1       3.104  15.018  17.904  0.00  0.00    +0.000 C 
ATOM     34  C   UNL     1       4.261  14.801  20.112  0.00  0.00    +0.000 C 
ENDBRANCH   6  32
TORSDOF 4
ENDMDL
MODEL 9
REMARK VINA RESULT:      -7.7      4.841     10.516
REMARK  Name = 
REMARK  10 active torsions:
REMARK  status: ('A' for Active; 'I' for Inactive)
REMARK    1  A    between atoms: C_1  and  C_2
REMARK    2  A    between atoms: C_8  and  N_9
REMARK    3  A    between atoms: C_14  and  C_15
REMARK    4  A    between atoms: C_15  and  C_16
REMARK    5  A    between atoms: C_15  and  C_17
REMARK    6  A    between atoms: N_20  and  C_21
REMARK    7  A    between atoms: C_24  and  C_25
REMARK    8  A    between atoms: C_25  and  C_26
REMARK    9  A    between atoms: C_25  and  C_27
REMARK   10  A    between atoms: C_25  and  C_28
REMARK                            x       y       z     vdW  Elec       q    Type
REMARK                         _______ _______ _______ _____ _____    ______ ____
ROOT
ATOM      1  N   UNL     1      -3.102  14.494  21.898  0.00  0.00    +0.000 N 
ATOM      2  C   UNL     1      -1.869  14.442  22.704  0.00  0.00    +0.000 C 
ATOM      3  C   UNL     1      -0.681  15.027  21.911  0.00  0.00    +0.000 C 
ATOM      4  C   UNL     1      -0.006  14.086  20.929  0.00  0.00    +0.000 A 
ATOM      5  N   UNL     1       1.253  14.441  20.566  0.00  0.00    +0.000 NA
ATOM      6  C   UNL     1       1.964  13.554  19.848  0.00  0.00    +0.000 A 
ATOM      7  N   UNL     1       1.558  12.300  19.631  0.00  0.00    +0.000 NA
ATOM      8  C   UNL     1       0.310  11.957  19.985  0.00  0.00    +0.000 A 
ATOM      9  N   UNL     1      -0.087  10.590  19.888  0.00  0.00    +0.000 N 
ATOM     10  C   UNL     1      -0.590  12.907  20.477  0.00  0.00    +0.000 A 
ATOM     11  C   UNL     1      -2.084  12.658  20.480  0.00  0.00    +0.000 C 
ATOM     12  C   UNL     1      -2.993  13.909  20.548  0.00  0.00    +0.000 C 
ATOM     13  H   UNL     1      -0.595  10.357  20.736  0.00  0.00    +0.000 HD
ENDROOT
BRANCH   1  21
ATOM     14  C   UNL     1      -5.489  16.183  21.613  0.00  0.00    +0.000 C 
ATOM     15  C   UNL     1      -5.449  14.931  22.440  0.00  0.00    +0.000 A 
ATOM     16  C   UNL     1      -6.606  14.578  23.157  0.00  0.00    +0.000 A 
ATOM     17  C   UNL     1      -6.573  13.479  23.998  0.00  0.00    +0.000 A 
ATOM     18  F   UNL     1      -7.662  13.136  24.699  0.00  0.00    +0.000 F 
ATOM     19  C   UNL     1      -5.401  12.771  24.103  0.00  0.00    +0.000 A 
ATOM     20  N   UNL     1      -4.261  13.077  23.423  0.00  0.00    +0.000 NA
ATOM     21  C   UNL     1      -4.276  14.147  22.588  0.00  0.00    +0.000 A 
ENDBRANCH   1  21
BRANCH   9  22
ATOM     22  C   UNL     1       0.733   9.483  19.519  0.00  0.00    +0.000 A 
ATOM     23  C   UNL     1       1.188   8.528  20.429  0.00  0.00    +0.000 A 
ATOM     24  C   UNL     1       2.043   7.483  20.040  0.00  0.00    +0.000 A 
ATOM     25  C   UNL     1       2.514   7.361  18.725  0.00  0.00    +0.000 A 
ATOM     26  C   UNL     1       2.080   8.342  17.816  0.00  0.00    +0.000 A 
ATOM     27  C   UNL     1       1.217   9.384  18.207  0.00  0.00    +0.000 A 
BRANCH  25  28
ATOM     28  C   UNL     1       3.458   6.226  18.282  0.00  0.00    +0.000 C 
ATOM     29  C   UNL     1       4.337   5.671  19.430  0.00  0.00    +0.000 C 
ATOM     30  C   UNL     1       2.640   5.040  17.727  0.00  0.00    +0.000 C 
ATOM     31  C   UNL     1       4.420   6.723  17.181  0.00  0.00    +0.000 C 
ENDBRANCH  25  28
ENDBRANCH   9  22
BRANCH   6  32
ATOM     32  C   UNL     1       3.279  13.975  19.222  0.00  0.00    +0.000 C 
ATOM     33  C   UNL     1       3.056  14.786  17.944  0.00  0.00    +0.000 C 
ATOM     34  C   UNL     1       4.122  14.798  20.208  0.00  0.00    +0.000 C 
ENDBRANCH   6  32
TORSDOF 4
ENDMDL
