MODEL 1
REMARK VINA RESULT:      -8.5      0.000      0.000
REMARK  Name = 
REMARK  9 active torsions:
REMARK  status: ('A' for Active; 'I' for Inactive)
REMARK    1  A    between atoms: C_1  and  C_2
REMARK    2  A    between atoms: C_2  and  C_3
REMARK    3  A    between atoms: C_3  and  N_4
REMARK    4  A    between atoms: N_4  and  C_5
REMARK    5  A    between atoms: N_4  and  C_24
REMARK    6  A    between atoms: C_5  and  C_6
REMARK    7  A    between atoms: C_6  and  N_7
REMARK    8  A    between atoms: C_11  and  C_13
REMARK    9  A    between atoms: C_30  and  O_31
REMARK                            x       y       z     vdW  Elec       q    Type
REMARK                         _______ _______ _______ _____ _____    ______ ____
ROOT
ATOM      1  C   UNL     1       2.059   6.812  18.440  0.00  0.00    +0.000 C 
ENDROOT
BRANCH   1   2
ATOM      2  N   UNL     1       2.416   8.075  19.131  0.00  0.00    +0.000 NA
ATOM      3  C   UNL     1       2.389   9.282  18.268  0.00  0.00    +0.000 C 
ATOM      4  C   UNL     1       0.998   9.910  18.024  0.00  0.00    +0.000 C 
ATOM      5  N   UNL     1       0.295  10.150  19.285  0.00  0.00    +0.000 N 
ATOM      6  C   UNL     1      -0.485  11.304  19.409  0.00  0.00    +0.000 C 
ATOM      7  O   UNL     1      -0.640  12.099  18.476  0.00  0.00    +0.000 OA
ATOM      8  C   UNL     1       0.215   8.948  20.122  0.00  0.00    +0.000 C 
ATOM      9  C   UNL     1       1.617   8.337  20.352  0.00  0.00    +0.000 C 
BRANCH   6  10
ATOM     10  C   UNL     1      -1.181  11.618  20.692  0.00  0.00    +0.000 A 
ATOM     11  C   UNL     1      -0.648  11.229  21.925  0.00  0.00    +0.000 A 
ATOM     12  C   UNL     1      -1.370  11.385  23.113  0.00  0.00    +0.000 A 
ATOM     13  C   UNL     1      -2.611  12.024  23.034  0.00  0.00    +0.000 A 
ATOM     14  N   UNL     1      -3.544  12.275  24.016  0.00  0.00    +0.000 N 
ATOM     15  C   UNL     1      -4.610  12.955  23.491  0.00  0.00    +0.000 A 
ATOM     16  C   UNL     1      -4.361  13.160  22.154  0.00  0.00    +0.000 A 
ATOM     17  C   UNL     1      -3.120  12.538  21.841  0.00  0.00    +0.000 A 
ATOM     18  C   UNL     1      -2.386  12.345  20.651  0.00  0.00    +0.000 A 
ATOM     19  H   UNL     1      -3.456  11.985  24.981  0.00  0.00    +0.000 HD
ENDBRANCH   6  10
ENDBRANCH   1   2
BRANCH   1  20
ATOM     20  C   UNL     1       2.543   5.533  19.213  0.00  0.00    +0.000 C 
BRANCH  20  21
ATOM     21  N   UNL     1       2.275   4.170  18.668  0.00  0.00    +0.000 NA
BRANCH  21  22
ATOM     22  C   UNL     1       3.483   3.287  18.583  0.00  0.00    +0.000 C 
ATOM     23  C   UNL     1       3.908   2.865  17.148  0.00  0.00    +0.000 C 
ATOM     24  C   UNL     1       4.578   3.963  16.315  0.00  0.00    +0.000 C 
ATOM     25  C   UNL     1       5.557   4.806  17.081  0.00  0.00    +0.000 A 
ATOM     26  C   UNL     1       6.415   5.681  16.383  0.00  0.00    +0.000 A 
ATOM     27  C   UNL     1       7.373   6.445  17.060  0.00  0.00    +0.000 A 
ATOM     28  C   UNL     1       7.470   6.336  18.438  0.00  0.00    +0.000 A 
ATOM     29  C   UNL     1       6.619   5.497  19.141  0.00  0.00    +0.000 A 
ATOM     30  C   UNL     1       5.637   4.741  18.480  0.00  0.00    +0.000 A 
ATOM     31  C   UNL     1       4.777   3.797  19.281  0.00  0.00    +0.000 C 
BRANCH  28  32
ATOM     32  O   UNL     1       8.404   7.027  19.146  0.00  0.00    +0.000 OA
ATOM     33  H   UNL     1       8.162   7.009  20.086  0.00  0.00    +0.000 HD
ENDBRANCH  28  32
ENDBRANCH  21  22
BRANCH  21  34
ATOM     34  C   UNL     1       1.165   3.503  19.387  0.00  0.00    +0.000 C 
BRANCH  34  36
ATOM     35  C   UNL     1       1.891   2.950  21.791  0.00  0.00    +0.000 C 
ATOM     36  C   UNL     1       1.526   2.413  20.415  0.00  0.00    +0.000 C 
ENDBRANCH  34  36
ENDBRANCH  21  34
ENDBRANCH  20  21
ENDBRANCH   1  20
TORSDOF 8
ENDMDL
MODEL 2
REMARK VINA RESULT:      -8.4      1.775      2.195
REMARK  Name = 
REMARK  9 active torsions:
REMARK  status: ('A' for Active; 'I' for Inactive)
REMARK    1  A    between atoms: C_1  and  C_2
REMARK    2  A    between atoms: C_2  and  C_3
REMARK    3  A    between atoms: C_3  and  N_4
REMARK    4  A    between atoms: N_4  and  C_5
REMARK    5  A    between atoms: N_4  and  C_24
REMARK    6  A    between atoms: C_5  and  C_6
REMARK    7  A    between atoms: C_6  and  N_7
REMARK    8  A    between atoms: C_11  and  C_13
REMARK    9  A    between atoms: C_30  and  O_31
REMARK                            x       y       z     vdW  Elec       q    Type
REMARK                         _______ _______ _______ _____ _____    ______ ____
ROOT
ATOM      1  C   UNL     1       1.321   7.288  20.854  0.00  0.00    +0.000 C 
ENDROOT
BRANCH   1   2
ATOM      2  N   UNL     1       1.666   8.720  21.024  0.00  0.00    +0.000 NA
ATOM      3  C   UNL     1       1.327   9.581  19.864  0.00  0.00    +0.000 C 
ATOM      4  C   UNL     1      -0.146  10.038  19.767  0.00  0.00    +0.000 C 
ATOM      5  N   UNL     1      -0.599  10.644  21.020  0.00  0.00    +0.000 N 
ATOM      6  C   UNL     1      -1.461  11.742  20.962  0.00  0.00    +0.000 C 
ATOM      7  O   UNL     1      -1.893  12.186  19.892  0.00  0.00    +0.000 OA
ATOM      8  C   UNL     1      -0.369   9.774  22.179  0.00  0.00    +0.000 C 
ATOM      9  C   UNL     1       1.110   9.329  22.256  0.00  0.00    +0.000 C 
BRANCH   6  10
ATOM     10  C   UNL     1      -1.911  12.424  22.212  0.00  0.00    +0.000 A 
ATOM     11  C   UNL     1      -3.103  12.066  22.850  0.00  0.00    +0.000 A 
ATOM     12  C   UNL     1      -3.602  12.803  23.928  0.00  0.00    +0.000 A 
ATOM     13  C   UNL     1      -2.821  13.860  24.404  0.00  0.00    +0.000 A 
ATOM     14  N   UNL     1      -3.073  14.769  25.408  0.00  0.00    +0.000 N 
ATOM     15  C   UNL     1      -2.011  15.621  25.551  0.00  0.00    +0.000 A 
ATOM     16  C   UNL     1      -1.050  15.254  24.636  0.00  0.00    +0.000 A 
ATOM     17  C   UNL     1      -1.567  14.169  23.874  0.00  0.00    +0.000 A 
ATOM     18  C   UNL     1      -1.097  13.428  22.768  0.00  0.00    +0.000 A 
ATOM     19  H   UNL     1      -3.925  14.806  25.949  0.00  0.00    +0.000 HD
ENDBRANCH   6  10
ENDBRANCH   1   2
BRANCH   1  20
ATOM     20  C   UNL     1       2.252   6.549  19.828  0.00  0.00    +0.000 C 
BRANCH  20  21
ATOM     21  N   UNL     1       2.053   5.101  19.527  0.00  0.00    +0.000 NA
BRANCH  21  22
ATOM     22  C   UNL     1       3.285   4.262  19.675  0.00  0.00    +0.000 C 
ATOM     23  C   UNL     1       3.381   3.035  18.723  0.00  0.00    +0.000 C 
ATOM     24  C   UNL     1       3.709   3.365  17.263  0.00  0.00    +0.000 C 
ATOM     25  C   UNL     1       4.757   4.427  17.091  0.00  0.00    +0.000 A 
ATOM     26  C   UNL     1       5.321   4.646  15.818  0.00  0.00    +0.000 A 
ATOM     27  C   UNL     1       6.335   5.593  15.632  0.00  0.00    +0.000 A 
ATOM     28  C   UNL     1       6.781   6.325  16.720  0.00  0.00    +0.000 A 
ATOM     29  C   UNL     1       6.221   6.137  17.974  0.00  0.00    +0.000 A 
ATOM     30  C   UNL     1       5.188   5.207  18.175  0.00  0.00    +0.000 A 
ATOM     31  C   UNL     1       4.653   4.995  19.569  0.00  0.00    +0.000 C 
BRANCH  28  32
ATOM     32  O   UNL     1       7.787   7.235  16.607  0.00  0.00    +0.000 OA
ATOM     33  H   UNL     1       7.886   7.477  15.673  0.00  0.00    +0.000 HD
ENDBRANCH  28  32
ENDBRANCH  21  22
BRANCH  21  34
ATOM     34  C   UNL     1       0.916   4.536  20.291  0.00  0.00    +0.000 C 
BRANCH  34  36
ATOM     35  C   UNL     1       1.428   2.577  21.876  0.00  0.00    +0.000 C 
ATOM     36  C   UNL     1       0.891   3.013  20.521  0.00  0.00    +0.000 C 
ENDBRANCH  34  36
ENDBRANCH  21  34
ENDBRANCH  20  21
ENDBRANCH   1  20
TORSDOF 8
ENDMDL
MODEL 3
REMARK VINA RESULT:      -8.3      1.984      2.668
REMARK  Name = 
REMARK  9 active torsions:
REMARK  status: ('A' for Active; 'I' for Inactive)
REMARK    1  A    between atoms: C_1  and  C_2
REMARK    2  A    between atoms: C_2  and  C_3
REMARK    3  A    between atoms: C_3  and  N_4
REMARK    4  A    between atoms: N_4  and  C_5
REMARK    5  A    between atoms: N_4  and  C_24
REMARK    6  A    between atoms: C_5  and  C_6
REMARK    7  A    between atoms: C_6  and  N_7
REMARK    8  A    between atoms: C_11  and  C_13
REMARK    9  A    between atoms: C_30  and  O_31
REMARK                            x       y       z     vdW  Elec       q    Type
REMARK                         _______ _______ _______ _____ _____    ______ ____
ROOT
ATOM      1  C   UNL     1       1.069   7.577  20.739  0.00  0.00    +0.000 C 
ENDROOT
BRANCH   1   2
ATOM      2  N   UNL     1       1.413   9.010  20.911  0.00  0.00    +0.000 NA
ATOM      3  C   UNL     1       1.016   9.884  19.780  0.00  0.00    +0.000 C 
ATOM      4  C   UNL     1      -0.463  10.332  19.756  0.00  0.00    +0.000 C 
ATOM      5  N   UNL     1      -0.862  10.918  21.037  0.00  0.00    +0.000 N 
ATOM      6  C   UNL     1      -1.733  12.011  21.033  0.00  0.00    +0.000 C 
ATOM      7  O   UNL     1      -2.216  12.465  19.989  0.00  0.00    +0.000 OA
ATOM      8  C   UNL     1      -0.574  10.035  22.173  0.00  0.00    +0.000 C 
ATOM      9  C   UNL     1       0.909   9.599  22.176  0.00  0.00    +0.000 C 
BRANCH   6  10
ATOM     10  C   UNL     1      -2.130  12.673  22.310  0.00  0.00    +0.000 A 
ATOM     11  C   UNL     1      -3.326  12.351  22.958  0.00  0.00    +0.000 A 
ATOM     12  C   UNL     1      -3.772  13.077  24.068  0.00  0.00    +0.000 A 
ATOM     13  C   UNL     1      -2.934  14.082  24.561  0.00  0.00    +0.000 A 
ATOM     14  N   UNL     1      -3.127  14.970  25.597  0.00  0.00    +0.000 N 
ATOM     15  C   UNL     1      -2.023  15.766  25.746  0.00  0.00    +0.000 A 
ATOM     16  C   UNL     1      -1.097  15.383  24.804  0.00  0.00    +0.000 A 
ATOM     17  C   UNL     1      -1.676  14.348  24.018  0.00  0.00    +0.000 A 
ATOM     18  C   UNL     1      -1.260  13.621  22.882  0.00  0.00    +0.000 A 
ATOM     19  H   UNL     1      -3.967  15.028  26.154  0.00  0.00    +0.000 HD
ENDBRANCH   6  10
ENDBRANCH   1   2
BRANCH   1  20
ATOM     20  C   UNL     1       2.323   6.675  20.455  0.00  0.00    +0.000 C 
BRANCH  20  21
ATOM     21  N   UNL     1       2.165   5.334  19.820  0.00  0.00    +0.000 NA
BRANCH  21  22
ATOM     22  C   UNL     1       2.184   5.352  18.322  0.00  0.00    +0.000 C 
ATOM     23  C   UNL     1       2.257   6.761  17.667  0.00  0.00    +0.000 C 
ATOM     24  C   UNL     1       3.623   7.452  17.752  0.00  0.00    +0.000 C 
ATOM     25  C   UNL     1       4.791   6.539  17.508  0.00  0.00    +0.000 A 
ATOM     26  C   UNL     1       6.074   7.091  17.315  0.00  0.00    +0.000 A 
ATOM     27  C   UNL     1       7.176   6.274  17.035  0.00  0.00    +0.000 A 
ATOM     28  C   UNL     1       6.994   4.903  16.952  0.00  0.00    +0.000 A 
ATOM     29  C   UNL     1       5.743   4.343  17.161  0.00  0.00    +0.000 A 
ATOM     30  C   UNL     1       4.631   5.146  17.465  0.00  0.00    +0.000 A 
ATOM     31  C   UNL     1       3.279   4.497  17.622  0.00  0.00    +0.000 C 
BRANCH  28  32
ATOM     32  O   UNL     1       8.020   4.062  16.649  0.00  0.00    +0.000 OA
ATOM     33  H   UNL     1       8.293   4.219  15.731  0.00  0.00    +0.000 HD
ENDBRANCH  28  32
ENDBRANCH  21  22
BRANCH  21  34
ATOM     34  C   UNL     1       3.134   4.355  20.364  0.00  0.00    +0.000 C 
BRANCH  34  36
ATOM     35  C   UNL     1       1.061   2.972  20.998  0.00  0.00    +0.000 C 
ATOM     36  C   UNL     1       2.580   3.032  20.927  0.00  0.00    +0.000 C 
ENDBRANCH  34  36
ENDBRANCH  21  34
ENDBRANCH  20  21
ENDBRANCH   1  20
TORSDOF 8
ENDMDL
MODEL 4
REMARK VINA RESULT:      -8.3      3.005      9.768
REMARK  Name = 
REMARK  9 active torsions:
REMARK  status: ('A' for Active; 'I' for Inactive)
REMARK    1  A    between atoms: C_1  and  C_2
REMARK    2  A    between atoms: C_2  and  C_3
REMARK    3  A    between atoms: C_3  and  N_4
REMARK    4  A    between atoms: N_4  and  C_5
REMARK    5  A    between atoms: N_4  and  C_24
REMARK    6  A    between atoms: C_5  and  C_6
REMARK    7  A    between atoms: C_6  and  N_7
REMARK    8  A    between atoms: C_11  and  C_13
REMARK    9  A    between atoms: C_30  and  O_31
REMARK                            x       y       z     vdW  Elec       q    Type
REMARK                         _______ _______ _______ _____ _____    ______ ____
ROOT
ATOM      1  C   UNL     1       0.014   9.905  18.367  0.00  0.00    +0.000 C 
ENDROOT
BRANCH   1   2
ATOM      2  N   UNL     1       1.373   9.816  18.957  0.00  0.00    +0.000 NA
ATOM      3  C   UNL     1       1.489   8.892  20.111  0.00  0.00    +0.000 C 
ATOM      4  C   UNL     1       1.636   7.393  19.766  0.00  0.00    +0.000 C 
ATOM      5  N   UNL     1       2.718   7.171  18.806  0.00  0.00    +0.000 N 
ATOM      6  C   UNL     1       3.516   6.032  18.944  0.00  0.00    +0.000 C 
ATOM      7  O   UNL     1       3.306   5.182  19.817  0.00  0.00    +0.000 OA
ATOM      8  C   UNL     1       2.580   8.000  17.603  0.00  0.00    +0.000 C 
ATOM      9  C   UNL     1       2.434   9.495  17.972  0.00  0.00    +0.000 C 
BRANCH   6  10
ATOM     10  C   UNL     1       4.662   5.788  18.020  0.00  0.00    +0.000 A 
ATOM     11  C   UNL     1       5.948   6.254  18.314  0.00  0.00    +0.000 A 
ATOM     12  C   UNL     1       6.987   6.163  17.382  0.00  0.00    +0.000 A 
ATOM     13  C   UNL     1       6.716   5.509  16.176  0.00  0.00    +0.000 A 
ATOM     14  N   UNL     1       7.519   5.308  15.074  0.00  0.00    +0.000 N 
ATOM     15  C   UNL     1       6.846   4.589  14.124  0.00  0.00    +0.000 A 
ATOM     16  C   UNL     1       5.593   4.307  14.619  0.00  0.00    +0.000 A 
ATOM     17  C   UNL     1       5.481   4.920  15.898  0.00  0.00    +0.000 A 
ATOM     18  C   UNL     1       4.440   5.049  16.842  0.00  0.00    +0.000 A 
ATOM     19  H   UNL     1       8.464   5.655  14.982  0.00  0.00    +0.000 HD
ENDBRANCH   6  10
ENDBRANCH   1   2
BRANCH   1  20
ATOM     20  C   UNL     1      -1.046  10.508  19.356  0.00  0.00    +0.000 C 
BRANCH  20  21
ATOM     21  N   UNL     1      -0.716  11.703  20.186  0.00  0.00    +0.000 NA
BRANCH  21  22
ATOM     22  C   UNL     1      -0.832  13.011  19.464  0.00  0.00    +0.000 C 
ATOM     23  C   UNL     1      -0.906  14.273  20.369  0.00  0.00    +0.000 C 
ATOM     24  C   UNL     1       0.415  14.686  21.027  0.00  0.00    +0.000 C 
ATOM     25  C   UNL     1       1.612  14.579  20.125  0.00  0.00    +0.000 A 
ATOM     26  C   UNL     1       2.835  15.155  20.525  0.00  0.00    +0.000 A 
ATOM     27  C   UNL     1       3.957  15.118  19.688  0.00  0.00    +0.000 A 
ATOM     28  C   UNL     1       3.855  14.500  18.452  0.00  0.00    +0.000 A 
ATOM     29  C   UNL     1       2.666  13.910  18.054  0.00  0.00    +0.000 A 
ATOM     30  C   UNL     1       1.537  13.918  18.890  0.00  0.00    +0.000 A 
ATOM     31  C   UNL     1       0.248  13.317  18.387  0.00  0.00    +0.000 C 
BRANCH  28  32
ATOM     32  O   UNL     1       4.901  14.464  17.582  0.00  0.00    +0.000 OA
ATOM     33  H   UNL     1       4.752  13.750  16.942  0.00  0.00    +0.000 HD
ENDBRANCH  28  32
ENDBRANCH  21  22
BRANCH  21  34
ATOM     34  C   UNL     1      -1.481  11.714  21.455  0.00  0.00    +0.000 C 
BRANCH  34  36
ATOM     35  C   UNL     1      -0.728   9.908  23.123  0.00  0.00    +0.000 C 
ATOM     36  C   UNL     1      -0.722  11.384  22.755  0.00  0.00    +0.000 C 
ENDBRANCH  34  36
ENDBRANCH  21  34
ENDBRANCH  20  21
ENDBRANCH   1  20
TORSDOF 8
ENDMDL
MODEL 5
REMARK VINA RESULT:      -8.2      2.531     10.546
REMARK  Name = 
REMARK  9 active torsions:
REMARK  status: ('A' for Active; 'I' for Inactive)
REMARK    1  A    between atoms: C_1  and  C_2
REMARK    2  A    between atoms: C_2  and  C_3
REMARK    3  A    between atoms: C_3  and  N_4
REMARK    4  A    between atoms: N_4  and  C_5
REMARK    5  A    between atoms: N_4  and  C_24
REMARK    6  A    between atoms: C_5  and  C_6
REMARK    7  A    between atoms: C_6  and  N_7
REMARK    8  A    between atoms: C_11  and  C_13
REMARK    9  A    between atoms: C_30  and  O_31
REMARK                            x       y       z     vdW  Elec       q    Type
REMARK                         _______ _______ _______ _____ _____    ______ ____
ROOT
ATOM      1  C   UNL     1       0.060   9.892  18.222  0.00  0.00    +0.000 C 
ENDROOT
BRANCH   1   2
ATOM      2  N   UNL     1       1.382   9.785  18.887  0.00  0.00    +0.000 NA
ATOM      3  C   UNL     1       1.384   8.990  20.139  0.00  0.00    +0.000 C 
ATOM      4  C   UNL     1       1.445   7.455  19.966  0.00  0.00    +0.000 C 
ATOM      5  N   UNL     1       2.552   7.062  19.092  0.00  0.00    +0.000 N 
ATOM      6  C   UNL     1       3.264   5.897  19.394  0.00  0.00    +0.000 C 
ATOM      7  O   UNL     1       2.959   5.164  20.342  0.00  0.00    +0.000 OA
ATOM      8  C   UNL     1       2.523   7.758  17.802  0.00  0.00    +0.000 C 
ATOM      9  C   UNL     1       2.462   9.291  17.998  0.00  0.00    +0.000 C 
BRANCH   6  10
ATOM     10  C   UNL     1       4.431   5.481  18.561  0.00  0.00    +0.000 A 
ATOM     11  C   UNL     1       5.727   5.448  19.087  0.00  0.00    +0.000 A 
ATOM     12  C   UNL     1       6.837   5.209  18.272  0.00  0.00    +0.000 A 
ATOM     13  C   UNL     1       6.599   4.918  16.925  0.00  0.00    +0.000 A 
ATOM     14  N   UNL     1       7.485   4.686  15.896  0.00  0.00    +0.000 N 
ATOM     15  C   UNL     1       6.805   4.414  14.739  0.00  0.00    +0.000 A 
ATOM     16  C   UNL     1       5.459   4.457  15.023  0.00  0.00    +0.000 A 
ATOM     17  C   UNL     1       5.313   4.819  16.391  0.00  0.00    +0.000 A 
ATOM     18  C   UNL     1       4.208   5.091  17.227  0.00  0.00    +0.000 A 
ATOM     19  H   UNL     1       8.491   4.724  15.984  0.00  0.00    +0.000 HD
ENDBRANCH   6  10
ENDBRANCH   1   2
BRANCH   1  20
ATOM     20  C   UNL     1      -1.106  10.213  19.223  0.00  0.00    +0.000 C 
BRANCH  20  21
ATOM     21  N   UNL     1      -2.471  10.541  18.718  0.00  0.00    +0.000 NA
BRANCH  21  22
ATOM     22  C   UNL     1      -2.798  12.003  18.716  0.00  0.00    +0.000 C 
ATOM     23  C   UNL     1      -4.273  12.362  19.052  0.00  0.00    +0.000 C 
ATOM     24  C   UNL     1      -4.663  12.216  20.527  0.00  0.00    +0.000 C 
ATOM     25  C   UNL     1      -3.619  12.706  21.491  0.00  0.00    +0.000 A 
ATOM     26  C   UNL     1      -3.949  12.855  22.854  0.00  0.00    +0.000 A 
ATOM     27  C   UNL     1      -3.017  13.355  23.770  0.00  0.00    +0.000 A 
ATOM     28  C   UNL     1      -1.752  13.703  23.323  0.00  0.00    +0.000 A 
ATOM     29  C   UNL     1      -1.406  13.542  21.991  0.00  0.00    +0.000 A 
ATOM     30  C   UNL     1      -2.321  13.020  21.062  0.00  0.00    +0.000 A 
ATOM     31  C   UNL     1      -1.918  12.921  19.612  0.00  0.00    +0.000 C 
BRANCH  28  32
ATOM     32  O   UNL     1      -0.816  14.227  24.161  0.00  0.00    +0.000 OA
ATOM     33  H   UNL     1      -1.150  14.182  25.071  0.00  0.00    +0.000 HD
ENDBRANCH  28  32
ENDBRANCH  21  22
BRANCH  21  34
ATOM     34  C   UNL     1      -2.725   9.926  17.393  0.00  0.00    +0.000 C 
BRANCH  34  36
ATOM     35  C   UNL     1      -2.980  10.134  14.843  0.00  0.00    +0.000 C 
ATOM     36  C   UNL     1      -2.761  10.856  16.165  0.00  0.00    +0.000 C 
ENDBRANCH  34  36
ENDBRANCH  21  34
ENDBRANCH  20  21
ENDBRANCH   1  20
TORSDOF 8
ENDMDL
MODEL 6
REMARK VINA RESULT:      -8.1      2.601     10.059
REMARK  Name = 
REMARK  9 active torsions:
REMARK  status: ('A' for Active; 'I' for Inactive)
REMARK    1  A    between atoms: C_1  and  C_2
REMARK    2  A    between atoms: C_2  and  C_3
REMARK    3  A    between atoms: C_3  and  N_4
REMARK    4  A    between atoms: N_4  and  C_5
REMARK    5  A    between atoms: N_4  and  C_24
REMARK    6  A    between atoms: C_5  and  C_6
REMARK    7  A    between atoms: C_6  and  N_7
REMARK    8  A    between atoms: C_11  and  C_13
REMARK    9  A    between atoms: C_30  and  O_31
REMARK                            x       y       z     vdW  Elec       q    Type
REMARK                         _______ _______ _______ _____ _____    ______ ____
ROOT
ATOM      1  C   UNL     1       1.072   6.643  20.898  0.00  0.00    +0.000 C 
ENDROOT
BRANCH   1   2
ATOM      2  N   UNL     1       2.100   5.572  20.882  0.00  0.00    +0.000 NA
ATOM      3  C   UNL     1       1.621   4.261  20.381  0.00  0.00    +0.000 C 
ATOM      4  C   UNL     1       1.557   4.103  18.845  0.00  0.00    +0.000 C 
ATOM      5  N   UNL     1       2.829   4.471  18.220  0.00  0.00    +0.000 N 
ATOM      6  C   UNL     1       3.274   3.733  17.119  0.00  0.00    +0.000 C 
ATOM      7  O   UNL     1       2.607   2.815  16.628  0.00  0.00    +0.000 OA
ATOM      8  C   UNL     1       3.284   5.808  18.617  0.00  0.00    +0.000 C 
ATOM      9  C   UNL     1       3.339   5.943  20.156  0.00  0.00    +0.000 C 
BRANCH   6  10
ATOM     10  C   UNL     1       4.587   4.038  16.479  0.00  0.00    +0.000 A 
ATOM     11  C   UNL     1       5.683   4.470  17.233  0.00  0.00    +0.000 A 
ATOM     12  C   UNL     1       6.864   4.903  16.620  0.00  0.00    +0.000 A 
ATOM     13  C   UNL     1       6.941   4.806  15.228  0.00  0.00    +0.000 A 
ATOM     14  N   UNL     1       7.945   5.188  14.365  0.00  0.00    +0.000 N 
ATOM     15  C   UNL     1       7.603   4.879  13.076  0.00  0.00    +0.000 A 
ATOM     16  C   UNL     1       6.366   4.276  13.102  0.00  0.00    +0.000 A 
ATOM     17  C   UNL     1       5.916   4.263  14.452  0.00  0.00    +0.000 A 
ATOM     18  C   UNL     1       4.723   3.858  15.090  0.00  0.00    +0.000 A 
ATOM     19  H   UNL     1       8.803   5.642  14.647  0.00  0.00    +0.000 HD
ENDBRANCH   6  10
ENDBRANCH   1   2
BRANCH   1  20
ATOM     20  C   UNL     1       1.583   7.994  20.282  0.00  0.00    +0.000 C 
BRANCH  20  21
ATOM     21  N   UNL     1       1.106   9.301  20.819  0.00  0.00    +0.000 NA
BRANCH  21  22
ATOM     22  C   UNL     1       1.231  10.447  19.861  0.00  0.00    +0.000 C 
ATOM     23  C   UNL     1       1.485  10.058  18.377  0.00  0.00    +0.000 C 
ATOM     24  C   UNL     1       0.272   9.490  17.632  0.00  0.00    +0.000 C 
ATOM     25  C   UNL     1      -1.018  10.201  17.925  0.00  0.00    +0.000 A 
ATOM     26  C   UNL     1      -2.151   9.940  17.127  0.00  0.00    +0.000 A 
ATOM     27  C   UNL     1      -3.355  10.621  17.340  0.00  0.00    +0.000 A 
ATOM     28  C   UNL     1      -3.427  11.561  18.355  0.00  0.00    +0.000 A 
ATOM     29  C   UNL     1      -2.329  11.814  19.162  0.00  0.00    +0.000 A 
ATOM     30  C   UNL     1      -1.120  11.124  18.977  0.00  0.00    +0.000 A 
ATOM     31  C   UNL     1       0.065  11.477  19.840  0.00  0.00    +0.000 C 
BRANCH  28  32
ATOM     32  O   UNL     1      -4.560  12.279  18.586  0.00  0.00    +0.000 OA
ATOM     33  H   UNL     1      -4.359  13.223  18.488  0.00  0.00    +0.000 HD
ENDBRANCH  28  32
ENDBRANCH  21  22
BRANCH  21  34
ATOM     34  C   UNL     1      -0.266   9.199  21.366  0.00  0.00    +0.000 C 
BRANCH  34  36
ATOM     35  C   UNL     1      -1.221  10.754  23.178  0.00  0.00    +0.000 C 
ATOM     36  C   UNL     1      -0.463   9.471  22.870  0.00  0.00    +0.000 C 
ENDBRANCH  34  36
ENDBRANCH  21  34
ENDBRANCH  20  21
ENDBRANCH   1  20
TORSDOF 8
ENDMDL
MODEL 7
REMARK VINA RESULT:      -8.0      3.294     10.982
REMARK  Name = 
REMARK  9 active torsions:
REMARK  status: ('A' for Active; 'I' for Inactive)
REMARK    1  A    between atoms: C_1  and  C_2
REMARK    2  A    between atoms: C_2  and  C_3
REMARK    3  A    between atoms: C_3  and  N_4
REMARK    4  A    between atoms: N_4  and  C_5
REMARK    5  A    between atoms: N_4  and  C_24
REMARK    6  A    between atoms: C_5  and  C_6
REMARK    7  A    between atoms: C_6  and  N_7
REMARK    8  A    between atoms: C_11  and  C_13
REMARK    9  A    between atoms: C_30  and  O_31
REMARK                            x       y       z     vdW  Elec       q    Type
REMARK                         _______ _______ _______ _____ _____    ______ ____
ROOT
ATOM      1  C   UNL     1      -2.533  12.475  20.166  0.00  0.00    +0.000 C 
ENDROOT
BRANCH   1   2
ATOM      2  N   UNL     1      -1.079  12.384  19.888  0.00  0.00    +0.000 NA
ATOM      3  C   UNL     1      -0.216  12.366  21.094  0.00  0.00    +0.000 C 
ATOM      4  C   UNL     1      -0.076  11.001  21.806  0.00  0.00    +0.000 C 
ATOM      5  N   UNL     1       0.313   9.949  20.867  0.00  0.00    +0.000 N 
ATOM      6  C   UNL     1       1.204   8.961  21.297  0.00  0.00    +0.000 C 
ATOM      7  O   UNL     1       1.633   8.919  22.455  0.00  0.00    +0.000 OA
ATOM      8  C   UNL     1      -0.581   9.873  19.706  0.00  0.00    +0.000 C 
ATOM      9  C   UNL     1      -0.707  11.248  19.011  0.00  0.00    +0.000 C 
BRANCH   6  10
ATOM     10  C   UNL     1       1.668   7.895  20.360  0.00  0.00    +0.000 A 
ATOM     11  C   UNL     1       2.187   8.208  19.100  0.00  0.00    +0.000 A 
ATOM     12  C   UNL     1       2.478   7.210  18.164  0.00  0.00    +0.000 A 
ATOM     13  C   UNL     1       2.314   5.881  18.566  0.00  0.00    +0.000 A 
ATOM     14  N   UNL     1       2.481   4.711  17.856  0.00  0.00    +0.000 N 
ATOM     15  C   UNL     1       2.234   3.632  18.661  0.00  0.00    +0.000 A 
ATOM     16  C   UNL     1       1.915   4.105  19.914  0.00  0.00    +0.000 A 
ATOM     17  C   UNL     1       1.918   5.527  19.856  0.00  0.00    +0.000 A 
ATOM     18  C   UNL     1       1.604   6.552  20.775  0.00  0.00    +0.000 A 
ATOM     19  H   UNL     1       2.737   4.663  16.880  0.00  0.00    +0.000 HD
ENDBRANCH   6  10
ENDBRANCH   1   2
BRANCH   1  20
ATOM     20  C   UNL     1      -3.408  12.495  18.862  0.00  0.00    +0.000 C 
BRANCH  20  21
ATOM     21  N   UNL     1      -4.355  11.380  18.566  0.00  0.00    +0.000 NA
BRANCH  21  22
ATOM     22  C   UNL     1      -5.751  11.821  18.248  0.00  0.00    +0.000 C 
ATOM     23  C   UNL     1      -6.866  10.772  18.522  0.00  0.00    +0.000 C 
ATOM     24  C   UNL     1      -7.208  10.553  20.000  0.00  0.00    +0.000 C 
ATOM     25  C   UNL     1      -7.263  11.815  20.813  0.00  0.00    +0.000 A 
ATOM     26  C   UNL     1      -7.803  11.779  22.115  0.00  0.00    +0.000 A 
ATOM     27  C   UNL     1      -7.915  12.944  22.882  0.00  0.00    +0.000 A 
ATOM     28  C   UNL     1      -7.483  14.147  22.346  0.00  0.00    +0.000 A 
ATOM     29  C   UNL     1      -6.930  14.195  21.077  0.00  0.00    +0.000 A 
ATOM     30  C   UNL     1      -6.788  13.032  20.302  0.00  0.00    +0.000 A 
ATOM     31  C   UNL     1      -6.237  13.145  18.903  0.00  0.00    +0.000 C 
BRANCH  28  32
ATOM     32  O   UNL     1      -7.599  15.318  23.031  0.00  0.00    +0.000 OA
ATOM     33  H   UNL     1      -6.740  15.770  23.026  0.00  0.00    +0.000 HD
ENDBRANCH  28  32
ENDBRANCH  21  22
BRANCH  21  34
ATOM     34  C   UNL     1      -3.821  10.472  17.524  0.00  0.00    +0.000 C 
BRANCH  34  36
ATOM     35  C   UNL     1      -2.904  10.240  15.133  0.00  0.00    +0.000 C 
ATOM     36  C   UNL     1      -3.886  10.943  16.059  0.00  0.00    +0.000 C 
ENDBRANCH  34  36
ENDBRANCH  21  34
ENDBRANCH  20  21
ENDBRANCH   1  20
TORSDOF 8
ENDMDL
MODEL 8
REMARK VINA RESULT:      -7.9      1.444      1.514
REMARK  Name = 
REMARK  9 active torsions:
REMARK  status: ('A' for Active; 'I' for Inactive)
REMARK    1  A    between atoms: C_1  and  C_2
REMARK    2  A    between atoms: C_2  and  C_3
REMARK    3  A    between atoms: C_3  and  N_4
REMARK    4  A    between atoms: N_4  and  C_5
REMARK    5  A    between atoms: N_4  and  C_24
REMARK    6  A    between atoms: C_5  and  C_6
REMARK    7  A    between atoms: C_6  and  N_7
REMARK    8  A    between atoms: C_11  and  C_13
REMARK    9  A    between atoms: C_30  and  O_31
REMARK                            x       y       z     vdW  Elec       q    Type
REMARK                         _______ _______ _______ _____ _____    ______ ____
ROOT
ATOM      1  C   UNL     1       1.972   7.255  19.845  0.00  0.00    +0.000 C 
ENDROOT
BRANCH   1   2
ATOM      2  N   UNL     1       2.123   8.667  19.415  0.00  0.00    +0.000 NA
ATOM      3  C   UNL     1       1.725   8.934  18.011  0.00  0.00    +0.000 C 
ATOM      4  C   UNL     1       0.211   9.111  17.758  0.00  0.00    +0.000 C 
ATOM      5  N   UNL     1      -0.368  10.102  18.665  0.00  0.00    +0.000 N 
ATOM      6  C   UNL     1      -1.362  10.957  18.179  0.00  0.00    +0.000 C 
ATOM      7  O   UNL     1      -1.801  10.870  17.026  0.00  0.00    +0.000 OA
ATOM      8  C   UNL     1      -0.078   9.812  20.073  0.00  0.00    +0.000 C 
ATOM      9  C   UNL     1       1.441   9.639  20.303  0.00  0.00    +0.000 C 
BRANCH   6  10
ATOM     10  C   UNL     1      -1.948  12.017  19.051  0.00  0.00    +0.000 A 
ATOM     11  C   UNL     1      -1.169  13.068  19.545  0.00  0.00    +0.000 A 
ATOM     12  C   UNL     1      -1.676  13.973  20.483  0.00  0.00    +0.000 A 
ATOM     13  C   UNL     1      -3.020  13.840  20.846  0.00  0.00    +0.000 A 
ATOM     14  N   UNL     1      -3.767  14.549  21.762  0.00  0.00    +0.000 N 
ATOM     15  C   UNL     1      -5.057  14.092  21.773  0.00  0.00    +0.000 A 
ATOM     16  C   UNL     1      -5.154  13.082  20.844  0.00  0.00    +0.000 A 
ATOM     17  C   UNL     1      -3.863  12.882  20.281  0.00  0.00    +0.000 A 
ATOM     18  C   UNL     1      -3.321  11.963  19.356  0.00  0.00    +0.000 A 
ATOM     19  H   UNL     1      -3.406  15.290  22.347  0.00  0.00    +0.000 HD
ENDBRANCH   6  10
ENDBRANCH   1   2
BRANCH   1  20
ATOM     20  C   UNL     1       2.569   6.233  18.813  0.00  0.00    +0.000 C 
BRANCH  20  21
ATOM     21  N   UNL     1       2.107   4.814  18.796  0.00  0.00    +0.000 NA
BRANCH  21  22
ATOM     22  C   UNL     1       3.205   3.806  18.638  0.00  0.00    +0.000 C 
ATOM     23  C   UNL     1       3.538   3.400  17.174  0.00  0.00    +0.000 C 
ATOM     24  C   UNL     1       4.304   4.451  16.362  0.00  0.00    +0.000 C 
ATOM     25  C   UNL     1       5.394   5.146  17.127  0.00  0.00    +0.000 A 
ATOM     26  C   UNL     1       6.325   5.948  16.436  0.00  0.00    +0.000 A 
ATOM     27  C   UNL     1       7.382   6.570  17.110  0.00  0.00    +0.000 A 
ATOM     28  C   UNL     1       7.504   6.394  18.479  0.00  0.00    +0.000 A 
ATOM     29  C   UNL     1       6.585   5.627  19.176  0.00  0.00    +0.000 A 
ATOM     30  C   UNL     1       5.505   5.013  18.520  0.00  0.00    +0.000 A 
ATOM     31  C   UNL     1       4.566   4.138  19.312  0.00  0.00    +0.000 C 
BRANCH  28  32
ATOM     32  O   UNL     1       8.531   6.946  19.182  0.00  0.00    +0.000 OA
ATOM     33  H   UNL     1       9.012   7.559  18.605  0.00  0.00    +0.000 HD
ENDBRANCH  28  32
ENDBRANCH  21  22
BRANCH  21  34
ATOM     34  C   UNL     1       1.250   4.505  19.964  0.00  0.00    +0.000 C 
BRANCH  34  36
ATOM     35  C   UNL     1       1.545   2.665  21.736  0.00  0.00    +0.000 C 
ATOM     36  C   UNL     1       1.056   3.023  20.341  0.00  0.00    +0.000 C 
ENDBRANCH  34  36
ENDBRANCH  21  34
ENDBRANCH  20  21
ENDBRANCH   1  20
TORSDOF 8
ENDMDL
MODEL 9
REMARK VINA RESULT:      -7.9      1.029      1.289
REMARK  Name = 
REMARK  9 active torsions:
REMARK  status: ('A' for Active; 'I' for Inactive)
REMARK    1  A    between atoms: C_1  and  C_2
REMARK    2  A    between atoms: C_2  and  C_3
REMARK    3  A    between atoms: C_3  and  N_4
REMARK    4  A    between atoms: N_4  and  C_5
REMARK    5  A    between atoms: N_4  and  C_24
REMARK    6  A    between atoms: C_5  and  C_6
REMARK    7  A    between atoms: C_6  and  N_7
REMARK    8  A    between atoms: C_11  and  C_13
REMARK    9  A    between atoms: C_30  and  O_31
REMARK                            x       y       z     vdW  Elec       q    Type
REMARK                         _______ _______ _______ _____ _____    ______ ____
ROOT
ATOM      1  C   UNL     1       1.669   7.300  19.006  0.00  0.00    +0.000 C 
ENDROOT
BRANCH   1   2
ATOM      2  N   UNL     1       1.945   8.721  19.333  0.00  0.00    +0.000 NA
ATOM      3  C   UNL     1       1.618   9.681  18.251  0.00  0.00    +0.000 C 
ATOM      4  C   UNL     1       0.132  10.088  18.131  0.00  0.00    +0.000 C 
ATOM      5  N   UNL     1      -0.399  10.545  19.415  0.00  0.00    +0.000 N 
ATOM      6  C   UNL     1      -1.306  11.609  19.426  0.00  0.00    +0.000 C 
ATOM      7  O   UNL     1      -1.710  12.142  18.387  0.00  0.00    +0.000 OA
ATOM      8  C   UNL     1      -0.181   9.572  20.492  0.00  0.00    +0.000 C 
ATOM      9  C   UNL     1       1.311   9.179  20.593  0.00  0.00    +0.000 C 
BRANCH   6  10
ATOM     10  C   UNL     1      -1.837  12.143  20.715  0.00  0.00    +0.000 A 
ATOM     11  C   UNL     1      -0.991  12.421  21.793  0.00  0.00    +0.000 A 
ATOM     12  C   UNL     1      -1.500  12.773  23.047  0.00  0.00    +0.000 A 
ATOM     13  C   UNL     1      -2.886  12.923  23.162  0.00  0.00    +0.000 A 
ATOM     14  N   UNL     1      -3.659  13.218  24.264  0.00  0.00    +0.000 N 
ATOM     15  C   UNL     1      -4.979  13.292  23.907  0.00  0.00    +0.000 A 
ATOM     16  C   UNL     1      -5.064  13.055  22.554  0.00  0.00    +0.000 A 
ATOM     17  C   UNL     1      -3.752  12.777  22.078  0.00  0.00    +0.000 A 
ATOM     18  C   UNL     1      -3.218  12.394  20.828  0.00  0.00    +0.000 A 
ATOM     19  H   UNL     1      -3.301  13.347  25.200  0.00  0.00    +0.000 HD
ENDBRANCH   6  10
ENDBRANCH   1   2
BRANCH   1  20
ATOM     20  C   UNL     1       2.636   6.303  19.740  0.00  0.00    +0.000 C 
BRANCH  20  21
ATOM     21  N   UNL     1       2.441   4.829  19.618  0.00  0.00    +0.000 NA
BRANCH  21  22
ATOM     22  C   UNL     1       3.704   4.027  19.707  0.00  0.00    +0.000 C 
ATOM     23  C   UNL     1       3.807   2.824  18.727  0.00  0.00    +0.000 C 
ATOM     24  C   UNL     1       4.075   3.193  17.264  0.00  0.00    +0.000 C 
ATOM     25  C   UNL     1       5.082   4.293  17.081  0.00  0.00    +0.000 A 
ATOM     26  C   UNL     1       5.596   4.556  15.794  0.00  0.00    +0.000 A 
ATOM     27  C   UNL     1       6.572   5.539  15.595  0.00  0.00    +0.000 A 
ATOM     28  C   UNL     1       7.030   6.264  16.684  0.00  0.00    +0.000 A 
ATOM     29  C   UNL     1       6.519   6.032  17.951  0.00  0.00    +0.000 A 
ATOM     30  C   UNL     1       5.524   5.065  18.166  0.00  0.00    +0.000 A 
ATOM     31  C   UNL     1       5.043   4.807  19.572  0.00  0.00    +0.000 C 
BRANCH  28  32
ATOM     32  O   UNL     1       8.003   7.208  16.557  0.00  0.00    +0.000 OA
ATOM     33  H   UNL     1       8.846   6.766  16.369  0.00  0.00    +0.000 HD
ENDBRANCH  28  32
ENDBRANCH  21  22
BRANCH  21  34
ATOM     34  C   UNL     1       1.415   4.332  20.564  0.00  0.00    +0.000 C 
BRANCH  34  36
ATOM     35  C   UNL     1       0.407   2.581  18.974  0.00  0.00    +0.000 C 
ATOM     36  C   UNL     1       0.903   2.891  20.378  0.00  0.00    +0.000 C 
ENDBRANCH  34  36
ENDBRANCH  21  34
ENDBRANCH  20  21
ENDBRANCH   1  20
TORSDOF 8
ENDMDL
