MODEL 1
REMARK VINA RESULT:      -5.7      0.000      0.000
REMARK  Name = 
REMARK  13 active torsions:
REMARK  status: ('A' for Active; 'I' for Inactive)
REMARK    1  A    between atoms: C_1  and  O_2
REMARK    2  A    between atoms: O_2  and  C_3
REMARK    3  A    between atoms: C_3  and  C_4
REMARK    4  A    between atoms: C_4  and  C_5
REMARK    5  A    between atoms: C_5  and  N_6
REMARK    6  A    between atoms: N_6  and  C_19
REMARK    7  A    between atoms: C_7  and  S_8
REMARK    8  A    between atoms: N_9  and  C_10
REMARK    9  A    between atoms: C_11  and  C_12
REMARK   10  A    between atoms: C_14  and  C_15
REMARK   11  A    between atoms: C_17  and  C_18
REMARK   12  A    between atoms: C_19  and  C_20
REMARK   13  A    between atoms: C_19  and  C_21
REMARK                            x       y       z     vdW  Elec       q    Type
REMARK                         _______ _______ _______ _____ _____    ______ ____
ROOT
ATOM      1  N   UNL     1      -1.331  13.570  21.013  0.00  0.00    +0.000 N 
ATOM      2  C   UNL     1      -1.552  12.859  19.825  0.00  0.00    +0.000 C 
ATOM      3  N   UNL     1      -2.469  11.938  19.694  0.00  0.00    +0.000 NA
ENDROOT
BRANCH   3   4
ATOM      4  C   UNL     1      -2.810  11.323  18.458  0.00  0.00    +0.000 A 
ATOM      5  C   UNL     1      -1.987  10.414  17.757  0.00  0.00    +0.000 A 
ATOM      6  C   UNL     1      -0.759   9.765  18.338  0.00  0.00    +0.000 C 
ATOM      7  C   UNL     1      -2.281  10.077  16.421  0.00  0.00    +0.000 A 
ATOM      8  C   UNL     1      -3.449  10.512  15.799  0.00  0.00    +0.000 A 
ATOM      9  C   UNL     1      -3.730  10.155  14.371  0.00  0.00    +0.000 C 
ATOM     10  C   UNL     1      -4.375  11.222  16.561  0.00  0.00    +0.000 A 
ATOM     11  C   UNL     1      -4.077  11.621  17.882  0.00  0.00    +0.000 A 
ATOM     12  C   UNL     1      -5.151  12.347  18.658  0.00  0.00    +0.000 C 
ENDBRANCH   3   4
BRANCH   2  13
ATOM     13  S   UNL     1      -0.438  13.293  18.510  0.00  0.00    +0.000 S 
ATOM     14  H   UNL     1      -1.403  13.562  17.626  0.00  0.00    +0.000 HD
ENDBRANCH   2  13
BRANCH   1  15
ATOM     15  C   UNL     1      -1.215  12.926  22.352  0.00  0.00    +0.000 C 
ATOM     16  C   UNL     1      -2.504  12.826  23.166  0.00  0.00    +0.000 C 
BRANCH  15  17
ATOM     17  C   UNL     1      -0.514  11.568  22.259  0.00  0.00    +0.000 A 
ATOM     18  C   UNL     1      -0.994  10.472  22.992  0.00  0.00    +0.000 A 
ATOM     19  C   UNL     1      -0.352   9.242  22.874  0.00  0.00    +0.000 A 
ATOM     20  N   UNL     1       0.721   9.035  22.088  0.00  0.00    +0.000 NA
ATOM     21  C   UNL     1       1.173  10.098  21.388  0.00  0.00    +0.000 A 
ATOM     22  C   UNL     1       0.597  11.359  21.431  0.00  0.00    +0.000 A 
ENDBRANCH  15  17
ENDBRANCH   1  15
BRANCH   1  23
ATOM     23  C   UNL     1      -1.155  15.054  21.077  0.00  0.00    +0.000 C 
BRANCH  23  24
ATOM     24  C   UNL     1       0.080  15.592  21.811  0.00  0.00    +0.000 C 
BRANCH  24  25
ATOM     25  C   UNL     1       1.393  15.007  21.313  0.00  0.00    +0.000 C 
BRANCH  25  27
ATOM     26  C   UNL     1       2.816  16.220  22.760  0.00  0.00    +0.000 C 
ATOM     27  O   UNL     1       2.292  14.947  22.419  0.00  0.00    +0.000 OA
ENDBRANCH  25  27
ENDBRANCH  24  25
ENDBRANCH  23  24
ENDBRANCH   1  23
TORSDOF 8
ENDMDL
MODEL 2
REMARK VINA RESULT:      -5.6      2.609      4.490
REMARK  Name = 
REMARK  13 active torsions:
REMARK  status: ('A' for Active; 'I' for Inactive)
REMARK    1  A    between atoms: C_1  and  O_2
REMARK    2  A    between atoms: O_2  and  C_3
REMARK    3  A    between atoms: C_3  and  C_4
REMARK    4  A    between atoms: C_4  and  C_5
REMARK    5  A    between atoms: C_5  and  N_6
REMARK    6  A    between atoms: N_6  and  C_19
REMARK    7  A    between atoms: C_7  and  S_8
REMARK    8  A    between atoms: N_9  and  C_10
REMARK    9  A    between atoms: C_11  and  C_12
REMARK   10  A    between atoms: C_14  and  C_15
REMARK   11  A    between atoms: C_17  and  C_18
REMARK   12  A    between atoms: C_19  and  C_20
REMARK   13  A    between atoms: C_19  and  C_21
REMARK                            x       y       z     vdW  Elec       q    Type
REMARK                         _______ _______ _______ _____ _____    ______ ____
ROOT
ATOM      1  N   UNL     1      -0.663  13.650  21.873  0.00  0.00    +0.000 N 
ATOM      2  C   UNL     1       0.029  12.603  21.247  0.00  0.00    +0.000 C 
ATOM      3  N   UNL     1      -0.471  11.409  21.071  0.00  0.00    +0.000 NA
ENDROOT
BRANCH   3   4
ATOM      4  C   UNL     1       0.153  10.389  20.301  0.00  0.00    +0.000 A 
ATOM      5  C   UNL     1       0.940   9.346  20.836  0.00  0.00    +0.000 A 
ATOM      6  C   UNL     1       1.014   9.010  22.302  0.00  0.00    +0.000 C 
ATOM      7  C   UNL     1       1.739   8.554  19.988  0.00  0.00    +0.000 A 
ATOM      8  C   UNL     1       1.678   8.680  18.601  0.00  0.00    +0.000 A 
ATOM      9  C   UNL     1       2.551   7.839  17.721  0.00  0.00    +0.000 C 
ATOM     10  C   UNL     1       0.734   9.551  18.061  0.00  0.00    +0.000 A 
ATOM     11  C   UNL     1      -0.036  10.396  18.890  0.00  0.00    +0.000 A 
ATOM     12  C   UNL     1      -1.070  11.278  18.231  0.00  0.00    +0.000 C 
ENDBRANCH   3   4
BRANCH   2  13
ATOM     13  S   UNL     1       1.681  13.030  20.747  0.00  0.00    +0.000 S 
ATOM     14  H   UNL     1       1.526  12.626  19.483  0.00  0.00    +0.000 HD
ENDBRANCH   2  13
BRANCH   1  15
ATOM     15  C   UNL     1      -1.391  13.503  23.164  0.00  0.00    +0.000 C 
ATOM     16  C   UNL     1      -1.228  14.646  24.164  0.00  0.00    +0.000 C 
BRANCH  15  17
ATOM     17  C   UNL     1      -2.869  13.174  22.936  0.00  0.00    +0.000 A 
ATOM     18  C   UNL     1      -3.757  13.121  24.022  0.00  0.00    +0.000 A 
ATOM     19  C   UNL     1      -5.101  12.840  23.786  0.00  0.00    +0.000 A 
ATOM     20  N   UNL     1      -5.610  12.612  22.561  0.00  0.00    +0.000 NA
ATOM     21  C   UNL     1      -4.744  12.667  21.526  0.00  0.00    +0.000 A 
ATOM     22  C   UNL     1      -3.393  12.946  21.657  0.00  0.00    +0.000 A 
ENDBRANCH  15  17
ENDBRANCH   1  15
BRANCH   1  23
ATOM     23  C   UNL     1      -0.729  15.044  21.336  0.00  0.00    +0.000 C 
BRANCH  23  24
ATOM     24  C   UNL     1      -1.149  15.222  19.872  0.00  0.00    +0.000 C 
BRANCH  24  25
ATOM     25  C   UNL     1      -0.093  15.893  19.007  0.00  0.00    +0.000 C 
BRANCH  25  27
ATOM     26  C   UNL     1      -0.085  18.118  18.208  0.00  0.00    +0.000 C 
ATOM     27  O   UNL     1      -0.747  16.864  18.191  0.00  0.00    +0.000 OA
ENDBRANCH  25  27
ENDBRANCH  24  25
ENDBRANCH  23  24
ENDBRANCH   1  23
TORSDOF 8
ENDMDL
MODEL 3
REMARK VINA RESULT:      -5.6      0.955      1.414
REMARK  Name = 
REMARK  13 active torsions:
REMARK  status: ('A' for Active; 'I' for Inactive)
REMARK    1  A    between atoms: C_1  and  O_2
REMARK    2  A    between atoms: O_2  and  C_3
REMARK    3  A    between atoms: C_3  and  C_4
REMARK    4  A    between atoms: C_4  and  C_5
REMARK    5  A    between atoms: C_5  and  N_6
REMARK    6  A    between atoms: N_6  and  C_19
REMARK    7  A    between atoms: C_7  and  S_8
REMARK    8  A    between atoms: N_9  and  C_10
REMARK    9  A    between atoms: C_11  and  C_12
REMARK   10  A    between atoms: C_14  and  C_15
REMARK   11  A    between atoms: C_17  and  C_18
REMARK   12  A    between atoms: C_19  and  C_20
REMARK   13  A    between atoms: C_19  and  C_21
REMARK                            x       y       z     vdW  Elec       q    Type
REMARK                         _______ _______ _______ _____ _____    ______ ____
ROOT
ATOM      1  N   UNL     1      -1.622  13.620  21.003  0.00  0.00    +0.000 N 
ATOM      2  C   UNL     1      -1.759  12.901  19.808  0.00  0.00    +0.000 C 
ATOM      3  N   UNL     1      -2.628  11.940  19.637  0.00  0.00    +0.000 NA
ENDROOT
BRANCH   3   4
ATOM      4  C   UNL     1      -2.886  11.311  18.388  0.00  0.00    +0.000 A 
ATOM      5  C   UNL     1      -2.007  10.414  17.742  0.00  0.00    +0.000 A 
ATOM      6  C   UNL     1      -0.802   9.793  18.398  0.00  0.00    +0.000 C 
ATOM      7  C   UNL     1      -2.218  10.062  16.395  0.00  0.00    +0.000 A 
ATOM      8  C   UNL     1      -3.356  10.471  15.704  0.00  0.00    +0.000 A 
ATOM      9  C   UNL     1      -3.548  10.099  14.265  0.00  0.00    +0.000 C 
ATOM     10  C   UNL     1      -4.337  11.167  16.406  0.00  0.00    +0.000 A 
ATOM     11  C   UNL     1      -4.124  11.581  17.739  0.00  0.00    +0.000 A 
ATOM     12  C   UNL     1      -5.254  12.290  18.446  0.00  0.00    +0.000 C 
ENDBRANCH   3   4
BRANCH   2  13
ATOM     13  S   UNL     1      -0.606  13.382  18.543  0.00  0.00    +0.000 S 
ATOM     14  H   UNL     1      -1.540  13.584  17.608  0.00  0.00    +0.000 HD
ENDBRANCH   2  13
BRANCH   1  15
ATOM     15  C   UNL     1      -1.539  12.982  22.347  0.00  0.00    +0.000 C 
ATOM     16  C   UNL     1      -2.864  12.778  23.080  0.00  0.00    +0.000 C 
BRANCH  15  17
ATOM     17  C   UNL     1      -0.728  11.684  22.299  0.00  0.00    +0.000 A 
ATOM     18  C   UNL     1       0.404  11.588  21.475  0.00  0.00    +0.000 A 
ATOM     19  C   UNL     1       1.137  10.403  21.465  0.00  0.00    +0.000 A 
ATOM     20  N   UNL     1       0.821   9.326  22.208  0.00  0.00    +0.000 NA
ATOM     21  C   UNL     1      -0.270   9.433  22.996  0.00  0.00    +0.000 A 
ATOM     22  C   UNL     1      -1.059  10.571  23.082  0.00  0.00    +0.000 A 
ENDBRANCH  15  17
ENDBRANCH   1  15
BRANCH   1  23
ATOM     23  C   UNL     1      -1.514  15.111  21.071  0.00  0.00    +0.000 C 
BRANCH  23  24
ATOM     24  C   UNL     1      -0.495  15.705  22.052  0.00  0.00    +0.000 C 
BRANCH  24  25
ATOM     25  C   UNL     1       0.383  16.787  21.443  0.00  0.00    +0.000 C 
BRANCH  25  27
ATOM     26  C   UNL     1       1.469  17.370  19.426  0.00  0.00    +0.000 C 
ATOM     27  O   UNL     1       0.710  16.388  20.113  0.00  0.00    +0.000 OA
ENDBRANCH  25  27
ENDBRANCH  24  25
ENDBRANCH  23  24
ENDBRANCH   1  23
TORSDOF 8
ENDMDL
MODEL 4
REMARK VINA RESULT:      -5.6      1.243      1.467
REMARK  Name = 
REMARK  13 active torsions:
REMARK  status: ('A' for Active; 'I' for Inactive)
REMARK    1  A    between atoms: C_1  and  O_2
REMARK    2  A    between atoms: O_2  and  C_3
REMARK    3  A    between atoms: C_3  and  C_4
REMARK    4  A    between atoms: C_4  and  C_5
REMARK    5  A    between atoms: C_5  and  N_6
REMARK    6  A    between atoms: N_6  and  C_19
REMARK    7  A    between atoms: C_7  and  S_8
REMARK    8  A    between atoms: N_9  and  C_10
REMARK    9  A    between atoms: C_11  and  C_12
REMARK   10  A    between atoms: C_14  and  C_15
REMARK   11  A    between atoms: C_17  and  C_18
REMARK   12  A    between atoms: C_19  and  C_20
REMARK   13  A    between atoms: C_19  and  C_21
REMARK                            x       y       z     vdW  Elec       q    Type
REMARK                         _______ _______ _______ _____ _____    ______ ____
ROOT
ATOM      1  N   UNL     1      -1.399  13.669  20.941  0.00  0.00    +0.000 N 
ATOM      2  C   UNL     1      -1.598  12.931  19.766  0.00  0.00    +0.000 C 
ATOM      3  N   UNL     1      -2.504  11.999  19.642  0.00  0.00    +0.000 NA
ENDROOT
BRANCH   3   4
ATOM      4  C   UNL     1      -2.823  11.355  18.415  0.00  0.00    +0.000 A 
ATOM      5  C   UNL     1      -1.973  10.457  17.732  0.00  0.00    +0.000 A 
ATOM      6  C   UNL     1      -0.731   9.851  18.329  0.00  0.00    +0.000 C 
ATOM      7  C   UNL     1      -2.252  10.090  16.401  0.00  0.00    +0.000 A 
ATOM      8  C   UNL     1      -3.428  10.484  15.767  0.00  0.00    +0.000 A 
ATOM      9  C   UNL     1      -3.693  10.096  14.344  0.00  0.00    +0.000 C 
ATOM     10  C   UNL     1      -4.376  11.181  16.513  0.00  0.00    +0.000 A 
ATOM     11  C   UNL     1      -4.096  11.610  17.829  0.00  0.00    +0.000 A 
ATOM     12  C   UNL     1      -5.192  12.318  18.588  0.00  0.00    +0.000 C 
ENDBRANCH   3   4
BRANCH   2  13
ATOM     13  S   UNL     1      -0.470  13.347  18.456  0.00  0.00    +0.000 S 
ATOM     14  H   UNL     1       0.549  12.639  18.953  0.00  0.00    +0.000 HD
ENDBRANCH   2  13
BRANCH   1  15
ATOM     15  C   UNL     1      -1.296  13.054  22.295  0.00  0.00    +0.000 C 
ATOM     16  C   UNL     1      -2.597  12.948  23.088  0.00  0.00    +0.000 C 
BRANCH  15  17
ATOM     17  C   UNL     1      -0.569  11.707  22.242  0.00  0.00    +0.000 A 
ATOM     18  C   UNL     1      -1.026  10.627  23.011  0.00  0.00    +0.000 A 
ATOM     19  C   UNL     1      -0.361   9.405  22.930  0.00  0.00    +0.000 A 
ATOM     20  N   UNL     1       0.714   9.194  22.146  0.00  0.00    +0.000 NA
ATOM     21  C   UNL     1       1.142  10.243  21.411  0.00  0.00    +0.000 A 
ATOM     22  C   UNL     1       0.543  11.493  21.417  0.00  0.00    +0.000 A 
ENDBRANCH  15  17
ENDBRANCH   1  15
BRANCH   1  23
ATOM     23  C   UNL     1      -1.237  15.155  20.976  0.00  0.00    +0.000 C 
BRANCH  23  24
ATOM     24  C   UNL     1       0.159  15.710  21.286  0.00  0.00    +0.000 C 
BRANCH  24  25
ATOM     25  C   UNL     1       0.524  16.942  20.471  0.00  0.00    +0.000 C 
BRANCH  25  27
ATOM     26  C   UNL     1      -0.247  18.047  18.528  0.00  0.00    +0.000 C 
ATOM     27  O   UNL     1      -0.060  16.800  19.176  0.00  0.00    +0.000 OA
ENDBRANCH  25  27
ENDBRANCH  24  25
ENDBRANCH  23  24
ENDBRANCH   1  23
TORSDOF 8
ENDMDL
MODEL 5
REMARK VINA RESULT:      -5.5      9.739     12.785
REMARK  Name = 
REMARK  13 active torsions:
REMARK  status: ('A' for Active; 'I' for Inactive)
REMARK    1  A    between atoms: C_1  and  O_2
REMARK    2  A    between atoms: O_2  and  C_3
REMARK    3  A    between atoms: C_3  and  C_4
REMARK    4  A    between atoms: C_4  and  C_5
REMARK    5  A    between atoms: C_5  and  N_6
REMARK    6  A    between atoms: N_6  and  C_19
REMARK    7  A    between atoms: C_7  and  S_8
REMARK    8  A    between atoms: N_9  and  C_10
REMARK    9  A    between atoms: C_11  and  C_12
REMARK   10  A    between atoms: C_14  and  C_15
REMARK   11  A    between atoms: C_17  and  C_18
REMARK   12  A    between atoms: C_19  and  C_20
REMARK   13  A    between atoms: C_19  and  C_21
REMARK                            x       y       z     vdW  Elec       q    Type
REMARK                         _______ _______ _______ _____ _____    ______ ____
ROOT
ATOM      1  N   UNL     1       9.336  12.272  18.634  0.00  0.00    +0.000 N 
ATOM      2  C   UNL     1       9.571  12.713  19.944  0.00  0.00    +0.000 C 
ATOM      3  N   UNL     1       8.766  13.511  20.594  0.00  0.00    +0.000 NA
ENDROOT
BRANCH   3   4
ATOM      4  C   UNL     1       8.908  13.838  21.970  0.00  0.00    +0.000 A 
ATOM      5  C   UNL     1       8.457  13.034  23.040  0.00  0.00    +0.000 A 
ATOM      6  C   UNL     1       8.002  11.607  22.890  0.00  0.00    +0.000 C 
ATOM      7  C   UNL     1       8.390  13.562  24.344  0.00  0.00    +0.000 A 
ATOM      8  C   UNL     1       8.887  14.828  24.645  0.00  0.00    +0.000 A 
ATOM      9  C   UNL     1       8.788  15.375  26.036  0.00  0.00    +0.000 C 
ATOM     10  C   UNL     1       9.540  15.535  23.637  0.00  0.00    +0.000 A 
ATOM     11  C   UNL     1       9.569  15.053  22.310  0.00  0.00    +0.000 A 
ATOM     12  C   UNL     1      10.337  15.853  21.286  0.00  0.00    +0.000 C 
ENDBRANCH   3   4
BRANCH   2  13
ATOM     13  S   UNL     1      11.097  12.123  20.639  0.00  0.00    +0.000 S 
ATOM     14  H   UNL     1      11.196  13.100  21.545  0.00  0.00    +0.000 HD
ENDBRANCH   2  13
BRANCH   1  15
ATOM     15  C   UNL     1       8.941  13.175  17.517  0.00  0.00    +0.000 C 
ATOM     16  C   UNL     1       7.459  13.534  17.430  0.00  0.00    +0.000 C 
BRANCH  15  17
ATOM     17  C   UNL     1       9.817  14.431  17.478  0.00  0.00    +0.000 A 
ATOM     18  C   UNL     1      11.185  14.330  17.182  0.00  0.00    +0.000 A 
ATOM     19  C   UNL     1      11.956  15.489  17.133  0.00  0.00    +0.000 A 
ATOM     20  N   UNL     1      11.462  16.722  17.356  0.00  0.00    +0.000 NA
ATOM     21  C   UNL     1      10.144  16.803  17.640  0.00  0.00    +0.000 A 
ATOM     22  C   UNL     1       9.293  15.711  17.704  0.00  0.00    +0.000 A 
ENDBRANCH  15  17
ENDBRANCH   1  15
BRANCH   1  23
ATOM     23  C   UNL     1       9.481  10.849  18.194  0.00  0.00    +0.000 C 
BRANCH  23  24
ATOM     24  C   UNL     1       8.681   9.786  18.956  0.00  0.00    +0.000 C 
BRANCH  24  25
ATOM     25  C   UNL     1       8.567   8.460  18.220  0.00  0.00    +0.000 C 
BRANCH  25  27
ATOM     26  C   UNL     1       6.732   7.281  17.308  0.00  0.00    +0.000 C 
ATOM     27  O   UNL     1       7.414   8.522  17.382  0.00  0.00    +0.000 OA
ENDBRANCH  25  27
ENDBRANCH  24  25
ENDBRANCH  23  24
ENDBRANCH   1  23
TORSDOF 8
ENDMDL
MODEL 6
REMARK VINA RESULT:      -5.5      1.485      1.753
REMARK  Name = 
REMARK  13 active torsions:
REMARK  status: ('A' for Active; 'I' for Inactive)
REMARK    1  A    between atoms: C_1  and  O_2
REMARK    2  A    between atoms: O_2  and  C_3
REMARK    3  A    between atoms: C_3  and  C_4
REMARK    4  A    between atoms: C_4  and  C_5
REMARK    5  A    between atoms: C_5  and  N_6
REMARK    6  A    between atoms: N_6  and  C_19
REMARK    7  A    between atoms: C_7  and  S_8
REMARK    8  A    between atoms: N_9  and  C_10
REMARK    9  A    between atoms: C_11  and  C_12
REMARK   10  A    between atoms: C_14  and  C_15
REMARK   11  A    between atoms: C_17  and  C_18
REMARK   12  A    between atoms: C_19  and  C_20
REMARK   13  A    between atoms: C_19  and  C_21
REMARK                            x       y       z     vdW  Elec       q    Type
REMARK                         _______ _______ _______ _____ _____    ______ ____
ROOT
ATOM      1  N   UNL     1      -1.788  13.605  21.005  0.00  0.00    +0.000 N 
ATOM      2  C   UNL     1      -1.869  12.892  19.801  0.00  0.00    +0.000 C 
ATOM      3  N   UNL     1      -2.700  11.904  19.600  0.00  0.00    +0.000 NA
ENDROOT
BRANCH   3   4
ATOM      4  C   UNL     1      -2.904  11.278  18.339  0.00  0.00    +0.000 A 
ATOM      5  C   UNL     1      -1.995  10.389  17.725  0.00  0.00    +0.000 A 
ATOM      6  C   UNL     1      -0.812   9.773  18.425  0.00  0.00    +0.000 C 
ATOM      7  C   UNL     1      -2.150  10.042  16.369  0.00  0.00    +0.000 A 
ATOM      8  C   UNL     1      -3.263  10.446  15.635  0.00  0.00    +0.000 A 
ATOM      9  C   UNL     1      -3.395  10.078  14.188  0.00  0.00    +0.000 C 
ATOM     10  C   UNL     1      -4.275  11.133  16.301  0.00  0.00    +0.000 A 
ATOM     11  C   UNL     1      -4.117  11.542  17.643  0.00  0.00    +0.000 A 
ATOM     12  C   UNL     1      -5.279  12.241  18.308  0.00  0.00    +0.000 C 
ENDBRANCH   3   4
BRANCH   2  13
ATOM     13  S   UNL     1      -0.702  13.425  18.569  0.00  0.00    +0.000 S 
ATOM     14  H   UNL     1       0.312  12.701  19.052  0.00  0.00    +0.000 HD
ENDBRANCH   2  13
BRANCH   1  15
ATOM     15  C   UNL     1      -1.717  12.957  22.345  0.00  0.00    +0.000 C 
ATOM     16  C   UNL     1      -3.053  12.607  22.997  0.00  0.00    +0.000 C 
BRANCH  15  17
ATOM     17  C   UNL     1      -0.775  11.750  22.332  0.00  0.00    +0.000 A 
ATOM     18  C   UNL     1      -1.042  10.636  23.141  0.00  0.00    +0.000 A 
ATOM     19  C   UNL     1      -0.182   9.541  23.096  0.00  0.00    +0.000 A 
ATOM     20  N   UNL     1       0.910   9.485  22.310  0.00  0.00    +0.000 NA
ATOM     21  C   UNL     1       1.155  10.564  21.536  0.00  0.00    +0.000 A 
ATOM     22  C   UNL     1       0.355  11.696  21.504  0.00  0.00    +0.000 A 
ENDBRANCH  15  17
ENDBRANCH   1  15
BRANCH   1  23
ATOM     23  C   UNL     1      -1.733  15.097  21.089  0.00  0.00    +0.000 C 
BRANCH  23  24
ATOM     24  C   UNL     1      -1.294  15.718  22.421  0.00  0.00    +0.000 C 
BRANCH  24  25
ATOM     25  C   UNL     1      -2.384  16.522  23.113  0.00  0.00    +0.000 C 
BRANCH  25  27
ATOM     26  C   UNL     1      -1.854  17.468  25.213  0.00  0.00    +0.000 C 
ATOM     27  O   UNL     1      -1.759  17.602  23.805  0.00  0.00    +0.000 OA
ENDBRANCH  25  27
ENDBRANCH  24  25
ENDBRANCH  23  24
ENDBRANCH   1  23
TORSDOF 8
ENDMDL
MODEL 7
REMARK VINA RESULT:      -5.5      2.606      4.710
REMARK  Name = 
REMARK  13 active torsions:
REMARK  status: ('A' for Active; 'I' for Inactive)
REMARK    1  A    between atoms: C_1  and  O_2
REMARK    2  A    between atoms: O_2  and  C_3
REMARK    3  A    between atoms: C_3  and  C_4
REMARK    4  A    between atoms: C_4  and  C_5
REMARK    5  A    between atoms: C_5  and  N_6
REMARK    6  A    between atoms: N_6  and  C_19
REMARK    7  A    between atoms: C_7  and  S_8
REMARK    8  A    between atoms: N_9  and  C_10
REMARK    9  A    between atoms: C_11  and  C_12
REMARK   10  A    between atoms: C_14  and  C_15
REMARK   11  A    between atoms: C_17  and  C_18
REMARK   12  A    between atoms: C_19  and  C_20
REMARK   13  A    between atoms: C_19  and  C_21
REMARK                            x       y       z     vdW  Elec       q    Type
REMARK                         _______ _______ _______ _____ _____    ______ ____
ROOT
ATOM      1  N   UNL     1      -0.798  13.814  21.836  0.00  0.00    +0.000 N 
ATOM      2  C   UNL     1      -0.100  12.751  21.244  0.00  0.00    +0.000 C 
ATOM      3  N   UNL     1      -0.619  11.569  21.042  0.00  0.00    +0.000 NA
ENDROOT
BRANCH   3   4
ATOM      4  C   UNL     1       0.020  10.535  20.304  0.00  0.00    +0.000 A 
ATOM      5  C   UNL     1       0.799   9.503  20.872  0.00  0.00    +0.000 A 
ATOM      6  C   UNL     1       0.847   9.195  22.345  0.00  0.00    +0.000 C 
ATOM      7  C   UNL     1       1.612   8.696  20.053  0.00  0.00    +0.000 A 
ATOM      8  C   UNL     1       1.575   8.795  18.664  0.00  0.00    +0.000 A 
ATOM      9  C   UNL     1       2.464   7.938  17.815  0.00  0.00    +0.000 C 
ATOM     10  C   UNL     1       0.640   9.654  18.091  0.00  0.00    +0.000 A 
ATOM     11  C   UNL     1      -0.145  10.514  18.890  0.00  0.00    +0.000 A 
ATOM     12  C   UNL     1      -1.168  11.382  18.196  0.00  0.00    +0.000 C 
ENDBRANCH   3   4
BRANCH   2  13
ATOM     13  S   UNL     1       1.583  13.141  20.827  0.00  0.00    +0.000 S 
ATOM     14  H   UNL     1       2.057  12.937  22.059  0.00  0.00    +0.000 HD
ENDBRANCH   2  13
BRANCH   1  15
ATOM     15  C   UNL     1      -1.593  13.684  23.090  0.00  0.00    +0.000 C 
ATOM     16  C   UNL     1      -1.237  14.651  24.217  0.00  0.00    +0.000 C 
BRANCH  15  17
ATOM     17  C   UNL     1      -3.097  13.699  22.801  0.00  0.00    +0.000 A 
ATOM     18  C   UNL     1      -3.651  12.786  21.892  0.00  0.00    +0.000 A 
ATOM     19  C   UNL     1      -5.026  12.807  21.663  0.00  0.00    +0.000 A 
ATOM     20  N   UNL     1      -5.869  13.664  22.269  0.00  0.00    +0.000 NA
ATOM     21  C   UNL     1      -5.320  14.537  23.141  0.00  0.00    +0.000 A 
ATOM     22  C   UNL     1      -3.968  14.589  23.443  0.00  0.00    +0.000 A 
ENDBRANCH  15  17
ENDBRANCH   1  15
BRANCH   1  23
ATOM     23  C   UNL     1      -0.806  15.209  21.298  0.00  0.00    +0.000 C 
BRANCH  23  24
ATOM     24  C   UNL     1      -1.040  15.388  19.793  0.00  0.00    +0.000 C 
BRANCH  24  25
ATOM     25  C   UNL     1      -0.032  16.308  19.120  0.00  0.00    +0.000 C 
BRANCH  25  27
ATOM     26  C   UNL     1      -1.458  18.027  18.345  0.00  0.00    +0.000 C 
ATOM     27  O   UNL     1      -0.669  16.903  17.990  0.00  0.00    +0.000 OA
ENDBRANCH  25  27
ENDBRANCH  24  25
ENDBRANCH  23  24
ENDBRANCH   1  23
TORSDOF 8
ENDMDL
MODEL 8
REMARK VINA RESULT:      -5.5      1.937      2.794
REMARK  Name = 
REMARK  13 active torsions:
REMARK  status: ('A' for Active; 'I' for Inactive)
REMARK    1  A    between atoms: C_1  and  O_2
REMARK    2  A    between atoms: O_2  and  C_3
REMARK    3  A    between atoms: C_3  and  C_4
REMARK    4  A    between atoms: C_4  and  C_5
REMARK    5  A    between atoms: C_5  and  N_6
REMARK    6  A    between atoms: N_6  and  C_19
REMARK    7  A    between atoms: C_7  and  S_8
REMARK    8  A    between atoms: N_9  and  C_10
REMARK    9  A    between atoms: C_11  and  C_12
REMARK   10  A    between atoms: C_14  and  C_15
REMARK   11  A    between atoms: C_17  and  C_18
REMARK   12  A    between atoms: C_19  and  C_20
REMARK   13  A    between atoms: C_19  and  C_21
REMARK                            x       y       z     vdW  Elec       q    Type
REMARK                         _______ _______ _______ _____ _____    ______ ____
ROOT
ATOM      1  N   UNL     1      -1.769  13.591  21.055  0.00  0.00    +0.000 N 
ATOM      2  C   UNL     1      -1.866  12.887  19.846  0.00  0.00    +0.000 C 
ATOM      3  N   UNL     1      -2.707  11.907  19.645  0.00  0.00    +0.000 NA
ENDROOT
BRANCH   3   4
ATOM      4  C   UNL     1      -2.926  11.292  18.382  0.00  0.00    +0.000 A 
ATOM      5  C   UNL     1      -2.028  10.402  17.753  0.00  0.00    +0.000 A 
ATOM      6  C   UNL     1      -0.843   9.774  18.439  0.00  0.00    +0.000 C 
ATOM      7  C   UNL     1      -2.197  10.065  16.396  0.00  0.00    +0.000 A 
ATOM      8  C   UNL     1      -3.314  10.481  15.675  0.00  0.00    +0.000 A 
ATOM      9  C   UNL     1      -3.462  10.125  14.228  0.00  0.00    +0.000 C 
ATOM     10  C   UNL     1      -4.317  11.169  16.355  0.00  0.00    +0.000 A 
ATOM     11  C   UNL     1      -4.144  11.568  17.698  0.00  0.00    +0.000 A 
ATOM     12  C   UNL     1      -5.296  12.269  18.379  0.00  0.00    +0.000 C 
ENDBRANCH   3   4
BRANCH   2  13
ATOM     13  S   UNL     1      -0.704  13.417  18.610  0.00  0.00    +0.000 S 
ATOM     14  H   UNL     1       0.197  13.872  19.486  0.00  0.00    +0.000 HD
ENDBRANCH   2  13
BRANCH   1  15
ATOM     15  C   UNL     1      -1.694  12.934  22.390  0.00  0.00    +0.000 C 
ATOM     16  C   UNL     1      -3.029  12.611  23.059  0.00  0.00    +0.000 C 
BRANCH  15  17
ATOM     17  C   UNL     1      -0.781  11.705  22.356  0.00  0.00    +0.000 A 
ATOM     18  C   UNL     1       0.356  11.691  21.535  0.00  0.00    +0.000 A 
ATOM     19  C   UNL     1       1.182  10.569  21.538  0.00  0.00    +0.000 A 
ATOM     20  N   UNL     1       0.952   9.478  22.292  0.00  0.00    +0.000 NA
ATOM     21  C   UNL     1      -0.146   9.505  23.077  0.00  0.00    +0.000 A 
ATOM     22  C   UNL     1      -1.023  10.576  23.150  0.00  0.00    +0.000 A 
ENDBRANCH  15  17
ENDBRANCH   1  15
BRANCH   1  23
ATOM     23  C   UNL     1      -1.701  15.082  21.148  0.00  0.00    +0.000 C 
BRANCH  23  24
ATOM     24  C   UNL     1      -2.945  15.820  21.657  0.00  0.00    +0.000 C 
BRANCH  24  25
ATOM     25  C   UNL     1      -4.214  15.486  20.886  0.00  0.00    +0.000 C 
BRANCH  25  27
ATOM     26  C   UNL     1      -5.887  17.077  20.377  0.00  0.00    +0.000 C 
ATOM     27  O   UNL     1      -4.568  16.630  20.110  0.00  0.00    +0.000 OA
ENDBRANCH  25  27
ENDBRANCH  24  25
ENDBRANCH  23  24
ENDBRANCH   1  23
TORSDOF 8
ENDMDL
MODEL 9
REMARK VINA RESULT:      -5.4      2.615      3.814
REMARK  Name = 
REMARK  13 active torsions:
REMARK  status: ('A' for Active; 'I' for Inactive)
REMARK    1  A    between atoms: C_1  and  O_2
REMARK    2  A    between atoms: O_2  and  C_3
REMARK    3  A    between atoms: C_3  and  C_4
REMARK    4  A    between atoms: C_4  and  C_5
REMARK    5  A    between atoms: C_5  and  N_6
REMARK    6  A    between atoms: N_6  and  C_19
REMARK    7  A    between atoms: C_7  and  S_8
REMARK    8  A    between atoms: N_9  and  C_10
REMARK    9  A    between atoms: C_11  and  C_12
REMARK   10  A    between atoms: C_14  and  C_15
REMARK   11  A    between atoms: C_17  and  C_18
REMARK   12  A    between atoms: C_19  and  C_20
REMARK   13  A    between atoms: C_19  and  C_21
REMARK                            x       y       z     vdW  Elec       q    Type
REMARK                         _______ _______ _______ _____ _____    ______ ____
ROOT
ATOM      1  N   UNL     1      -2.093  13.789  21.163  0.00  0.00    +0.000 N 
ATOM      2  C   UNL     1      -2.057  13.037  19.980  0.00  0.00    +0.000 C 
ATOM      3  N   UNL     1      -2.842  12.019  19.747  0.00  0.00    +0.000 NA
ENDROOT
BRANCH   3   4
ATOM      4  C   UNL     1      -2.927  11.349  18.496  0.00  0.00    +0.000 A 
ATOM      5  C   UNL     1      -1.950  10.465  17.987  0.00  0.00    +0.000 A 
ATOM      6  C   UNL     1      -0.814   9.904  18.801  0.00  0.00    +0.000 C 
ATOM      7  C   UNL     1      -1.985  10.072  16.636  0.00  0.00    +0.000 A 
ATOM      8  C   UNL     1      -3.043  10.422  15.801  0.00  0.00    +0.000 A 
ATOM      9  C   UNL     1      -3.048  10.007  14.361  0.00  0.00    +0.000 C 
ATOM     10  C   UNL     1      -4.123  11.103  16.359  0.00  0.00    +0.000 A 
ATOM     11  C   UNL     1      -4.086  11.558  17.695  0.00  0.00    +0.000 A 
ATOM     12  C   UNL     1      -5.315  12.246  18.240  0.00  0.00    +0.000 C 
ENDBRANCH   3   4
BRANCH   2  13
ATOM     13  S   UNL     1      -0.810  13.566  18.829  0.00  0.00    +0.000 S 
ATOM     14  H   UNL     1       0.150  12.787  19.334  0.00  0.00    +0.000 HD
ENDBRANCH   2  13
BRANCH   1  15
ATOM     15  C   UNL     1      -2.112  13.185  22.525  0.00  0.00    +0.000 C 
ATOM     16  C   UNL     1      -1.295  13.907  23.595  0.00  0.00    +0.000 C 
BRANCH  15  17
ATOM     17  C   UNL     1      -3.545  12.931  23.002  0.00  0.00    +0.000 A 
ATOM     18  C   UNL     1      -3.788  12.521  24.322  0.00  0.00    +0.000 A 
ATOM     19  C   UNL     1      -5.102  12.317  24.738  0.00  0.00    +0.000 A 
ATOM     20  N   UNL     1      -6.171  12.489  23.938  0.00  0.00    +0.000 NA
ATOM     21  C   UNL     1      -5.922  12.883  22.671  0.00  0.00    +0.000 A 
ATOM     22  C   UNL     1      -4.653  13.121  22.166  0.00  0.00    +0.000 A 
ENDBRANCH  15  17
ENDBRANCH   1  15
BRANCH   1  23
ATOM     23  C   UNL     1      -2.086  15.284  21.202  0.00  0.00    +0.000 C 
BRANCH  23  24
ATOM     24  C   UNL     1      -3.366  16.011  20.773  0.00  0.00    +0.000 C 
BRANCH  24  25
ATOM     25  C   UNL     1      -3.118  17.385  20.169  0.00  0.00    +0.000 C 
BRANCH  25  27
ATOM     26  C   UNL     1      -4.933  17.719  21.647  0.00  0.00    +0.000 C 
ATOM     27  O   UNL     1      -3.893  18.332  20.904  0.00  0.00    +0.000 OA
ENDBRANCH  25  27
ENDBRANCH  24  25
ENDBRANCH  23  24
ENDBRANCH   1  23
TORSDOF 8
ENDMDL
