MODEL 1
REMARK VINA RESULT:      -8.7      0.000      0.000
REMARK  Name = 
REMARK  2 active torsions:
REMARK  status: ('A' for Active; 'I' for Inactive)
REMARK    1  A    between atoms: C_1  and  O_2
REMARK    2  A    between atoms: O_2  and  C_3
REMARK                            x       y       z     vdW  Elec       q    Type
REMARK                         _______ _______ _______ _____ _____    ______ ____
ROOT
ATOM      1  C   UNL     1       5.944   4.363  14.923  0.00  0.00    +0.000 A 
ATOM      2  C   UNL     1       5.832   5.747  14.877  0.00  0.00    +0.000 A 
ATOM      3  C   UNL     1       5.136   6.425  15.879  0.00  0.00    +0.000 A 
ATOM      4  C   UNL     1       4.527   5.739  16.945  0.00  0.00    +0.000 A 
ATOM      5  C   UNL     1       4.703   4.343  17.011  0.00  0.00    +0.000 A 
ATOM      6  C   UNL     1       5.385   3.665  15.991  0.00  0.00    +0.000 A 
ATOM      7  C   UNL     1       4.105   3.586  18.159  0.00  0.00    +0.000 C 
ATOM      8  C   UNL     1       4.066   4.474  19.393  0.00  0.00    +0.000 C 
ATOM      9  N   UNL     1       3.398   5.769  19.088  0.00  0.00    +0.000 N 
ATOM     10  C   UNL     1       2.567   6.311  20.014  0.00  0.00    +0.000 A 
ATOM     11  C   UNL     1       1.952   7.554  19.815  0.00  0.00    +0.000 A 
ATOM     12  C   UNL     1       1.078   8.134  20.759  0.00  0.00    +0.000 A 
ATOM     13  C   UNL     1       0.520   9.362  20.468  0.00  0.00    +0.000 A 
ATOM     14  C   UNL     1       0.799  10.025  19.300  0.00  0.00    +0.000 A 
ATOM     15  C   UNL     1       1.647   9.498  18.356  0.00  0.00    +0.000 A 
ATOM     16  C   UNL     1       2.227   8.248  18.615  0.00  0.00    +0.000 A 
ATOM     17  C   UNL     1       3.080   7.671  17.684  0.00  0.00    +0.000 A 
ATOM     18  C   UNL     1       3.673   6.426  17.926  0.00  0.00    +0.000 A 
ATOM     19  O   UNL     1       0.155  11.216  19.204  0.00  0.00    +0.000 OA
ATOM     20  C   UNL     1      -0.579  11.230  20.445  0.00  0.00    +0.000 C 
ATOM     21  O   UNL     1      -0.344  10.055  21.257  0.00  0.00    +0.000 OA
ENDROOT
BRANCH   1  23
ATOM     22  C   UNL     1       5.853   3.555  12.710  0.00  0.00    +0.000 C 
ATOM     23  O   UNL     1       6.539   3.594  13.964  0.00  0.00    +0.000 OA
ENDBRANCH   1  23
TORSDOF 1
ENDMDL
MODEL 2
REMARK VINA RESULT:      -8.5      2.654      8.373
REMARK  Name = 
REMARK  2 active torsions:
REMARK  status: ('A' for Active; 'I' for Inactive)
REMARK    1  A    between atoms: C_1  and  O_2
REMARK    2  A    between atoms: O_2  and  C_3
REMARK                            x       y       z     vdW  Elec       q    Type
REMARK                         _______ _______ _______ _____ _____    ______ ____
ROOT
ATOM      1  C   UNL     1      -0.851  11.066  22.469  0.00  0.00    +0.000 A 
ATOM      2  C   UNL     1      -0.237  10.016  23.139  0.00  0.00    +0.000 A 
ATOM      3  C   UNL     1       0.532   9.090  22.432  0.00  0.00    +0.000 A 
ATOM      4  C   UNL     1       0.700   9.185  21.039  0.00  0.00    +0.000 A 
ATOM      5  C   UNL     1       0.125  10.291  20.384  0.00  0.00    +0.000 A 
ATOM      6  C   UNL     1      -0.665  11.205  21.095  0.00  0.00    +0.000 A 
ATOM      7  C   UNL     1       0.323  10.448  18.906  0.00  0.00    +0.000 C 
ATOM      8  C   UNL     1       1.665   9.854  18.503  0.00  0.00    +0.000 C 
ATOM      9  N   UNL     1       1.792   8.457  19.003  0.00  0.00    +0.000 N 
ATOM     10  C   UNL     1       2.377   7.528  18.206  0.00  0.00    +0.000 A 
ATOM     11  C   UNL     1       2.581   6.210  18.636  0.00  0.00    +0.000 A 
ATOM     12  C   UNL     1       3.178   5.225  17.823  0.00  0.00    +0.000 A 
ATOM     13  C   UNL     1       3.333   3.954  18.338  0.00  0.00    +0.000 A 
ATOM     14  C   UNL     1       2.929   3.635  19.610  0.00  0.00    +0.000 A 
ATOM     15  C   UNL     1       2.346   4.565  20.436  0.00  0.00    +0.000 A 
ATOM     16  C   UNL     1       2.167   5.866  19.943  0.00  0.00    +0.000 A 
ATOM     17  C   UNL     1       1.572   6.835  20.738  0.00  0.00    +0.000 A 
ATOM     18  C   UNL     1       1.388   8.140  20.266  0.00  0.00    +0.000 A 
ATOM     19  O   UNL     1       3.170   2.338  19.929  0.00  0.00    +0.000 OA
ATOM     20  C   UNL     1       3.764   1.862  18.705  0.00  0.00    +0.000 C 
ATOM     21  O   UNL     1       3.877   2.889  17.691  0.00  0.00    +0.000 OA
ENDROOT
BRANCH   1  23
ATOM     22  C   UNL     1      -1.180  13.325  23.058  0.00  0.00    +0.000 C 
ATOM     23  O   UNL     1      -1.680  11.985  23.046  0.00  0.00    +0.000 OA
ENDBRANCH   1  23
TORSDOF 1
ENDMDL
MODEL 3
REMARK VINA RESULT:      -8.3      1.035      1.303
REMARK  Name = 
REMARK  2 active torsions:
REMARK  status: ('A' for Active; 'I' for Inactive)
REMARK    1  A    between atoms: C_1  and  O_2
REMARK    2  A    between atoms: O_2  and  C_3
REMARK                            x       y       z     vdW  Elec       q    Type
REMARK                         _______ _______ _______ _____ _____    ______ ____
ROOT
ATOM      1  C   UNL     1       5.238   4.642  15.867  0.00  0.00    +0.000 A 
ATOM      2  C   UNL     1       5.267   6.022  15.712  0.00  0.00    +0.000 A 
ATOM      3  C   UNL     1       4.553   6.839  16.590  0.00  0.00    +0.000 A 
ATOM      4  C   UNL     1       3.784   6.299  17.636  0.00  0.00    +0.000 A 
ATOM      5  C   UNL     1       3.816   4.903  17.819  0.00  0.00    +0.000 A 
ATOM      6  C   UNL     1       4.518   4.085  16.922  0.00  0.00    +0.000 A 
ATOM      7  C   UNL     1       3.044   4.298  18.954  0.00  0.00    +0.000 C 
ATOM      8  C   UNL     1       2.980   5.282  20.112  0.00  0.00    +0.000 C 
ATOM      9  N   UNL     1       2.473   6.604  19.650  0.00  0.00    +0.000 N 
ATOM     10  C   UNL     1       1.619   7.292  20.449  0.00  0.00    +0.000 A 
ATOM     11  C   UNL     1       1.150   8.566  20.103  0.00  0.00    +0.000 A 
ATOM     12  C   UNL     1       0.255   9.297  20.912  0.00  0.00    +0.000 A 
ATOM     13  C   UNL     1      -0.151  10.544  20.481  0.00  0.00    +0.000 A 
ATOM     14  C   UNL     1       0.298  11.083  19.302  0.00  0.00    +0.000 A 
ATOM     15  C   UNL     1       1.172  10.406  18.486  0.00  0.00    +0.000 A 
ATOM     16  C   UNL     1       1.600   9.133  18.889  0.00  0.00    +0.000 A 
ATOM     17  C   UNL     1       2.474   8.408  18.091  0.00  0.00    +0.000 A 
ATOM     18  C   UNL     1       2.917   7.138  18.477  0.00  0.00    +0.000 A 
ATOM     19  O   UNL     1      -0.214  12.316  19.058  0.00  0.00    +0.000 OA
ATOM     20  C   UNL     1      -1.054  12.496  20.217  0.00  0.00    +0.000 C 
ATOM     21  O   UNL     1      -1.010  11.374  21.130  0.00  0.00    +0.000 OA
ENDROOT
BRANCH   1  23
ATOM     22  C   UNL     1       6.715   4.324  14.057  0.00  0.00    +0.000 C 
ATOM     23  O   UNL     1       5.839   3.747  15.029  0.00  0.00    +0.000 OA
ENDBRANCH   1  23
TORSDOF 1
ENDMDL
MODEL 4
REMARK VINA RESULT:      -8.1      2.728      4.206
REMARK  Name = 
REMARK  2 active torsions:
REMARK  status: ('A' for Active; 'I' for Inactive)
REMARK    1  A    between atoms: C_1  and  O_2
REMARK    2  A    between atoms: O_2  and  C_3
REMARK                            x       y       z     vdW  Elec       q    Type
REMARK                         _______ _______ _______ _____ _____    ______ ____
ROOT
ATOM      1  C   UNL     1       3.523   3.648  19.582  0.00  0.00    +0.000 A 
ATOM      2  C   UNL     1       2.473   3.850  20.468  0.00  0.00    +0.000 A 
ATOM      3  C   UNL     1       1.845   5.095  20.534  0.00  0.00    +0.000 A 
ATOM      4  C   UNL     1       2.255   6.170  19.725  0.00  0.00    +0.000 A 
ATOM      5  C   UNL     1       3.277   5.931  18.787  0.00  0.00    +0.000 A 
ATOM      6  C   UNL     1       3.920   4.685  18.740  0.00  0.00    +0.000 A 
ATOM      7  C   UNL     1       3.707   7.042  17.876  0.00  0.00    +0.000 C 
ATOM      8  C   UNL     1       2.527   7.960  17.597  0.00  0.00    +0.000 C 
ATOM      9  N   UNL     1       1.897   8.408  18.870  0.00  0.00    +0.000 N 
ATOM     10  C   UNL     1       1.467   9.691  18.972  0.00  0.00    +0.000 A 
ATOM     11  C   UNL     1       0.814  10.161  20.118  0.00  0.00    +0.000 A 
ATOM     12  C   UNL     1       0.366  11.492  20.250  0.00  0.00    +0.000 A 
ATOM     13  C   UNL     1      -0.265  11.859  21.422  0.00  0.00    +0.000 A 
ATOM     14  C   UNL     1      -0.470  10.966  22.443  0.00  0.00    +0.000 A 
ATOM     15  C   UNL     1      -0.053   9.660  22.353  0.00  0.00    +0.000 A 
ATOM     16  C   UNL     1       0.599   9.254  21.180  0.00  0.00    +0.000 A 
ATOM     17  C   UNL     1       1.048   7.947  21.050  0.00  0.00    +0.000 A 
ATOM     18  C   UNL     1       1.696   7.521  19.885  0.00  0.00    +0.000 A 
ATOM     19  O   UNL     1      -1.109  11.519  23.505  0.00  0.00    +0.000 OA
ATOM     20  C   UNL     1      -1.277  12.875  23.046  0.00  0.00    +0.000 C 
ATOM     21  O   UNL     1      -0.749  13.095  21.717  0.00  0.00    +0.000 OA
ENDROOT
BRANCH   1  23
ATOM     22  C   UNL     1       3.716   1.516  18.594  0.00  0.00    +0.000 C 
ATOM     23  O   UNL     1       4.254   2.498  19.482  0.00  0.00    +0.000 OA
ENDBRANCH   1  23
TORSDOF 1
ENDMDL
MODEL 5
REMARK VINA RESULT:      -8.0      1.434      7.651
REMARK  Name = 
REMARK  2 active torsions:
REMARK  status: ('A' for Active; 'I' for Inactive)
REMARK    1  A    between atoms: C_1  and  O_2
REMARK    2  A    between atoms: O_2  and  C_3
REMARK                            x       y       z     vdW  Elec       q    Type
REMARK                         _______ _______ _______ _____ _____    ______ ____
ROOT
ATOM      1  C   UNL     1      -0.208  11.271  20.061  0.00  0.00    +0.000 A 
ATOM      2  C   UNL     1       0.119  11.103  18.722  0.00  0.00    +0.000 A 
ATOM      3  C   UNL     1       0.863   9.993  18.317  0.00  0.00    +0.000 A 
ATOM      4  C   UNL     1       1.307   9.030  19.241  0.00  0.00    +0.000 A 
ATOM      5  C   UNL     1       0.914   9.180  20.584  0.00  0.00    +0.000 A 
ATOM      6  C   UNL     1       0.185  10.307  20.988  0.00  0.00    +0.000 A 
ATOM      7  C   UNL     1       1.332   8.146  21.587  0.00  0.00    +0.000 C 
ATOM      8  C   UNL     1       1.449   6.791  20.906  0.00  0.00    +0.000 C 
ATOM      9  N   UNL     1       2.323   6.880  19.705  0.00  0.00    +0.000 N 
ATOM     10  C   UNL     1       3.183   5.863  19.443  0.00  0.00    +0.000 A 
ATOM     11  C   UNL     1       3.991   5.856  18.299  0.00  0.00    +0.000 A 
ATOM     12  C   UNL     1       4.897   4.814  18.011  0.00  0.00    +0.000 A 
ATOM     13  C   UNL     1       5.652   4.902  16.858  0.00  0.00    +0.000 A 
ATOM     14  C   UNL     1       5.535   5.962  15.996  0.00  0.00    +0.000 A 
ATOM     15  C   UNL     1       4.663   6.995  16.237  0.00  0.00    +0.000 A 
ATOM     16  C   UNL     1       3.884   6.943  17.403  0.00  0.00    +0.000 A 
ATOM     17  C   UNL     1       2.998   7.971  17.694  0.00  0.00    +0.000 A 
ATOM     18  C   UNL     1       2.209   7.935  18.849  0.00  0.00    +0.000 A 
ATOM     19  O   UNL     1       6.359   5.861  14.922  0.00  0.00    +0.000 OA
ATOM     20  C   UNL     1       7.027   4.615  15.208  0.00  0.00    +0.000 C 
ATOM     21  O   UNL     1       6.574   3.996  16.435  0.00  0.00    +0.000 OA
ENDROOT
BRANCH   1  23
ATOM     22  C   UNL     1      -0.663  12.569  21.975  0.00  0.00    +0.000 C 
ATOM     23  O   UNL     1      -0.868  12.349  20.578  0.00  0.00    +0.000 OA
ENDBRANCH   1  23
TORSDOF 1
ENDMDL
MODEL 6
REMARK VINA RESULT:      -8.0      1.192      7.573
REMARK  Name = 
REMARK  2 active torsions:
REMARK  status: ('A' for Active; 'I' for Inactive)
REMARK    1  A    between atoms: C_1  and  O_2
REMARK    2  A    between atoms: O_2  and  C_3
REMARK                            x       y       z     vdW  Elec       q    Type
REMARK                         _______ _______ _______ _____ _____    ______ ____
ROOT
ATOM      1  C   UNL     1       0.726   9.842  21.128  0.00  0.00    +0.000 A 
ATOM      2  C   UNL     1       1.122  10.151  19.833  0.00  0.00    +0.000 A 
ATOM      3  C   UNL     1       1.689   9.167  19.022  0.00  0.00    +0.000 A 
ATOM      4  C   UNL     1       1.884   7.854  19.486  0.00  0.00    +0.000 A 
ATOM      5  C   UNL     1       1.420   7.540  20.778  0.00  0.00    +0.000 A 
ATOM      6  C   UNL     1       0.871   8.538  21.596  0.00  0.00    +0.000 A 
ATOM      7  C   UNL     1       1.571   6.138  21.288  0.00  0.00    +0.000 C 
ATOM      8  C   UNL     1       1.502   5.161  20.124  0.00  0.00    +0.000 C 
ATOM      9  N   UNL     1       2.469   5.543  19.059  0.00  0.00    +0.000 N 
ATOM     10  C   UNL     1       3.155   4.564  18.416  0.00  0.00    +0.000 A 
ATOM     11  C   UNL     1       4.037   4.848  17.365  0.00  0.00    +0.000 A 
ATOM     12  C   UNL     1       4.766   3.850  16.688  0.00  0.00    +0.000 A 
ATOM     13  C   UNL     1       5.612   4.233  15.667  0.00  0.00    +0.000 A 
ATOM     14  C   UNL     1       5.751   5.547  15.297  0.00  0.00    +0.000 A 
ATOM     15  C   UNL     1       5.056   6.550  15.928  0.00  0.00    +0.000 A 
ATOM     16  C   UNL     1       4.192   6.198  16.975  0.00  0.00    +0.000 A 
ATOM     17  C   UNL     1       3.479   7.180  17.649  0.00  0.00    +0.000 A 
ATOM     18  C   UNL     1       2.608   6.849  18.694  0.00  0.00    +0.000 A 
ATOM     19  O   UNL     1       6.625   5.717  14.274  0.00  0.00    +0.000 OA
ATOM     20  C   UNL     1       7.040   4.355  14.041  0.00  0.00    +0.000 C 
ATOM     21  O   UNL     1       6.391   3.406  14.921  0.00  0.00    +0.000 OA
ENDROOT
BRANCH   1  23
ATOM     22  C   UNL     1      -0.542  10.164  23.090  0.00  0.00    +0.000 C 
ATOM     23  O   UNL     1       0.227  10.738  22.030  0.00  0.00    +0.000 OA
ENDBRANCH   1  23
TORSDOF 1
ENDMDL
MODEL 7
REMARK VINA RESULT:      -7.7      2.624      4.188
REMARK  Name = 
REMARK  2 active torsions:
REMARK  status: ('A' for Active; 'I' for Inactive)
REMARK    1  A    between atoms: C_1  and  O_2
REMARK    2  A    between atoms: O_2  and  C_3
REMARK                            x       y       z     vdW  Elec       q    Type
REMARK                         _______ _______ _______ _____ _____    ______ ____
ROOT
ATOM      1  C   UNL     1       3.982   2.962  19.950  0.00  0.00    +0.000 A 
ATOM      2  C   UNL     1       2.913   3.185  20.808  0.00  0.00    +0.000 A 
ATOM      3  C   UNL     1       2.249   4.413  20.794  0.00  0.00    +0.000 A 
ATOM      4  C   UNL     1       2.641   5.451  19.929  0.00  0.00    +0.000 A 
ATOM      5  C   UNL     1       3.684   5.188  19.021  0.00  0.00    +0.000 A 
ATOM      6  C   UNL     1       4.362   3.961  19.055  0.00  0.00    +0.000 A 
ATOM      7  C   UNL     1       4.097   6.257  18.054  0.00  0.00    +0.000 C 
ATOM      8  C   UNL     1       2.896   7.123  17.706  0.00  0.00    +0.000 C 
ATOM      9  N   UNL     1       2.234   7.624  18.941  0.00  0.00    +0.000 N 
ATOM     10  C   UNL     1       1.766   8.899  18.963  0.00  0.00    +0.000 A 
ATOM     11  C   UNL     1       1.083   9.415  20.070  0.00  0.00    +0.000 A 
ATOM     12  C   UNL     1       0.596  10.738  20.119  0.00  0.00    +0.000 A 
ATOM     13  C   UNL     1      -0.064  11.153  21.259  0.00  0.00    +0.000 A 
ATOM     14  C   UNL     1      -0.259  10.314  22.328  0.00  0.00    +0.000 A 
ATOM     15  C   UNL     1       0.196   9.018  22.319  0.00  0.00    +0.000 A 
ATOM     16  C   UNL     1       0.877   8.564  21.181  0.00  0.00    +0.000 A 
ATOM     17  C   UNL     1       1.365   7.266  21.133  0.00  0.00    +0.000 A 
ATOM     18  C   UNL     1       2.042   6.792  20.004  0.00  0.00    +0.000 A 
ATOM     19  O   UNL     1      -0.930  10.909  23.347  0.00  0.00    +0.000 OA
ATOM     20  C   UNL     1      -1.129  12.231  22.808  0.00  0.00    +0.000 C 
ATOM     21  O   UNL     1      -0.586  12.389  21.475  0.00  0.00    +0.000 OA
ENDROOT
BRANCH   1  23
ATOM     22  C   UNL     1       5.212   1.392  21.206  0.00  0.00    +0.000 C 
ATOM     23  O   UNL     1       4.746   1.831  19.927  0.00  0.00    +0.000 OA
ENDBRANCH   1  23
TORSDOF 1
ENDMDL
MODEL 8
REMARK VINA RESULT:      -7.7      2.773      8.789
REMARK  Name = 
REMARK  2 active torsions:
REMARK  status: ('A' for Active; 'I' for Inactive)
REMARK    1  A    between atoms: C_1  and  O_2
REMARK    2  A    between atoms: O_2  and  C_3
REMARK                            x       y       z     vdW  Elec       q    Type
REMARK                         _______ _______ _______ _____ _____    ______ ____
ROOT
ATOM      1  C   UNL     1      -2.085  12.021  22.493  0.00  0.00    +0.000 A 
ATOM      2  C   UNL     1      -1.315  11.046  23.114  0.00  0.00    +0.000 A 
ATOM      3  C   UNL     1      -0.360  10.339  22.381  0.00  0.00    +0.000 A 
ATOM      4  C   UNL     1      -0.156  10.581  21.011  0.00  0.00    +0.000 A 
ATOM      5  C   UNL     1      -0.899  11.616  20.411  0.00  0.00    +0.000 A 
ATOM      6  C   UNL     1      -1.873  12.308  21.146  0.00  0.00    +0.000 A 
ATOM      7  C   UNL     1      -0.675  11.931  18.963  0.00  0.00    +0.000 C 
ATOM      8  C   UNL     1       0.768  11.627  18.591  0.00  0.00    +0.000 C 
ATOM      9  N   UNL     1       1.132  10.239  18.988  0.00  0.00    +0.000 N 
ATOM     10  C   UNL     1       1.910   9.502  18.156  0.00  0.00    +0.000 A 
ATOM     11  C   UNL     1       2.337   8.212  18.494  0.00  0.00    +0.000 A 
ATOM     12  C   UNL     1       3.139   7.424  17.642  0.00  0.00    +0.000 A 
ATOM     13  C   UNL     1       3.505   6.163  18.066  0.00  0.00    +0.000 A 
ATOM     14  C   UNL     1       3.117   5.669  19.286  0.00  0.00    +0.000 A 
ATOM     15  C   UNL     1       2.339   6.405  20.147  0.00  0.00    +0.000 A 
ATOM     16  C   UNL     1       1.943   7.688  19.746  0.00  0.00    +0.000 A 
ATOM     17  C   UNL     1       1.147   8.463  20.579  0.00  0.00    +0.000 A 
ATOM     18  C   UNL     1       0.744   9.748  20.199  0.00  0.00    +0.000 A 
ATOM     19  O   UNL     1       3.581   4.415  19.518  0.00  0.00    +0.000 OA
ATOM     20  C   UNL     1       4.301   4.161  18.295  0.00  0.00    +0.000 C 
ATOM     21  O   UNL     1       4.263   5.274  17.371  0.00  0.00    +0.000 OA
ENDROOT
BRANCH   1  23
ATOM     22  C   UNL     1      -4.312  12.782  22.347  0.00  0.00    +0.000 C 
ATOM     23  O   UNL     1      -3.092  12.722  23.092  0.00  0.00    +0.000 OA
ENDBRANCH   1  23
TORSDOF 1
ENDMDL
MODEL 9
REMARK VINA RESULT:      -7.2      2.356      8.258
REMARK  Name = 
REMARK  2 active torsions:
REMARK  status: ('A' for Active; 'I' for Inactive)
REMARK    1  A    between atoms: C_1  and  O_2
REMARK    2  A    between atoms: O_2  and  C_3
REMARK                            x       y       z     vdW  Elec       q    Type
REMARK                         _______ _______ _______ _____ _____    ______ ____
ROOT
ATOM      1  C   UNL     1      -1.258  13.278  20.159  0.00  0.00    +0.000 A 
ATOM      2  C   UNL     1      -0.911  12.794  18.904  0.00  0.00    +0.000 A 
ATOM      3  C   UNL     1      -0.315  11.538  18.779  0.00  0.00    +0.000 A 
ATOM      4  C   UNL     1      -0.040  10.740  19.903  0.00  0.00    +0.000 A 
ATOM      5  C   UNL     1      -0.455  11.216  21.162  0.00  0.00    +0.000 A 
ATOM      6  C   UNL     1      -1.034  12.487  21.284  0.00  0.00    +0.000 A 
ATOM      7  C   UNL     1      -0.219  10.369  22.377  0.00  0.00    +0.000 C 
ATOM      8  C   UNL     1      -0.267   8.898  21.992  0.00  0.00    +0.000 C 
ATOM      9  N   UNL     1       0.652   8.622  20.854  0.00  0.00    +0.000 N 
ATOM     10  C   UNL     1       1.371   7.471  20.857  0.00  0.00    +0.000 A 
ATOM     11  C   UNL     1       2.210   7.122  19.792  0.00  0.00    +0.000 A 
ATOM     12  C   UNL     1       2.973   5.936  19.777  0.00  0.00    +0.000 A 
ATOM     13  C   UNL     1       3.772   5.684  18.680  0.00  0.00    +0.000 A 
ATOM     14  C   UNL     1       3.833   6.547  17.615  0.00  0.00    +0.000 A 
ATOM     15  C   UNL     1       3.104   7.711  17.588  0.00  0.00    +0.000 A 
ATOM     16  C   UNL     1       2.286   8.003  18.689  0.00  0.00    +0.000 A 
ATOM     17  C   UNL     1       1.540   9.174  18.711  0.00  0.00    +0.000 A 
ATOM     18  C   UNL     1       0.715   9.482  19.798  0.00  0.00    +0.000 A 
ATOM     19  O   UNL     1       4.672   6.119  16.637  0.00  0.00    +0.000 OA
ATOM     20  C   UNL     1       5.150   4.885  17.210  0.00  0.00    +0.000 C 
ATOM     21  O   UNL     1       4.574   4.599  18.506  0.00  0.00    +0.000 OA
ENDROOT
BRANCH   1  23
ATOM     22  C   UNL     1      -3.053  14.515  21.055  0.00  0.00    +0.000 C 
ATOM     23  O   UNL     1      -1.780  14.515  20.405  0.00  0.00    +0.000 OA
ENDBRANCH   1  23
TORSDOF 1
ENDMDL
