MODEL 1
REMARK VINA RESULT:      -7.4      0.000      0.000
REMARK  Name = 
REMARK  5 active torsions:
REMARK  status: ('A' for Active; 'I' for Inactive)
REMARK    1  A    between atoms: C_1  and  C_2
REMARK    2  A    between atoms: C_2  and  C_3
REMARK    3  A    between atoms: C_2  and  C_4
REMARK    4  A    between atoms: C_4  and  C_5
REMARK    5  A    between atoms: C_8  and  C_9
REMARK                            x       y       z     vdW  Elec       q    Type
REMARK                         _______ _______ _______ _____ _____    ______ ____
ROOT
ATOM      1  C   UNL     1       6.032   4.852  13.828  0.00  0.00    +0.000 C 
ATOM      2  C   UNL     1       4.838   4.480  14.787  0.00  0.00    +0.000 C 
ATOM      3  N   UNL     1       5.210   5.235  16.003  0.00  0.00    +0.000 N 
ATOM      4  C   UNL     1       4.802   4.940  17.324  0.00  0.00    +0.000 C 
ATOM      5  C   UNL     1       5.771   4.329  18.053  0.00  0.00    +0.000 C 
ATOM      6  S   UNL     1       7.363   4.615  17.341  0.00  0.00    +0.000 S 
ATOM      7  C   UNL     1       6.587   5.196  15.889  0.00  0.00    +0.000 C 
ATOM      8  N   UNL     1       7.168   5.246  14.738  0.00  0.00    +0.000 NA
ENDROOT
BRANCH   4   9
ATOM      9  C   UNL     1       4.234   6.034  18.211  0.00  0.00    +0.000 A 
ATOM     10  C   UNL     1       3.747   5.670  19.484  0.00  0.00    +0.000 A 
ATOM     11  C   UNL     1       2.741   6.414  20.121  0.00  0.00    +0.000 A 
ATOM     12  C   UNL     1       2.198   7.554  19.516  0.00  0.00    +0.000 A 
ATOM     13  C   UNL     1       1.088   8.208  20.075  0.00  0.00    +0.000 A 
ATOM     14  C   UNL     1       0.524   9.313  19.436  0.00  0.00    +0.000 A 
ATOM     15  C   UNL     1       1.077   9.778  18.253  0.00  0.00    +0.000 A 
ATOM     16  C   UNL     1       2.186   9.127  17.685  0.00  0.00    +0.000 A 
ATOM     17  C   UNL     1       2.750   7.998  18.293  0.00  0.00    +0.000 A 
ATOM     18  C   UNL     1       3.785   7.253  17.671  0.00  0.00    +0.000 A 
ENDBRANCH   4   9
BRANCH   1  19
ATOM     19  C   UNL     1       6.687   3.713  13.019  0.00  0.00    +0.000 C 
BRANCH  19  21
ATOM     20  C   UNL     1       4.690   3.369  11.481  0.00  0.00    +0.000 C 
ATOM     21  C   UNL     1       5.855   2.716  12.213  0.00  0.00    +0.000 C 
ATOM     22  C   UNL     1       6.788   2.045  11.188  0.00  0.00    +0.000 C 
ENDBRANCH  19  21
ENDBRANCH   1  19
TORSDOF 3
ENDMDL
MODEL 2
REMARK VINA RESULT:      -7.3      5.037      8.853
REMARK  Name = 
REMARK  5 active torsions:
REMARK  status: ('A' for Active; 'I' for Inactive)
REMARK    1  A    between atoms: C_1  and  C_2
REMARK    2  A    between atoms: C_2  and  C_3
REMARK    3  A    between atoms: C_2  and  C_4
REMARK    4  A    between atoms: C_4  and  C_5
REMARK    5  A    between atoms: C_8  and  C_9
REMARK                            x       y       z     vdW  Elec       q    Type
REMARK                         _______ _______ _______ _____ _____    ______ ____
ROOT
ATOM      1  C   UNL     1      -0.416  11.306  18.611  0.00  0.00    +0.000 C 
ATOM      2  C   UNL     1       1.073  10.891  18.915  0.00  0.00    +0.000 C 
ATOM      3  N   UNL     1       0.888   9.495  19.367  0.00  0.00    +0.000 N 
ATOM      4  C   UNL     1       1.765   8.768  20.203  0.00  0.00    +0.000 C 
ATOM      5  C   UNL     1       1.325   8.678  21.485  0.00  0.00    +0.000 C 
ATOM      6  S   UNL     1      -0.416   8.977  21.568  0.00  0.00    +0.000 S 
ATOM      7  C   UNL     1      -0.367   9.600  19.938  0.00  0.00    +0.000 C 
ATOM      8  N   UNL     1      -1.268  10.379  19.443  0.00  0.00    +0.000 NA
ENDROOT
BRANCH   4   9
ATOM      9  C   UNL     1       2.209   7.369  19.813  0.00  0.00    +0.000 A 
ATOM     10  C   UNL     1       2.572   7.138  18.470  0.00  0.00    +0.000 A 
ATOM     11  C   UNL     1       2.447   5.867  17.887  0.00  0.00    +0.000 A 
ATOM     12  C   UNL     1       1.970   4.779  18.630  0.00  0.00    +0.000 A 
ATOM     13  C   UNL     1       1.696   3.548  18.014  0.00  0.00    +0.000 A 
ATOM     14  C   UNL     1       1.174   2.488  18.755  0.00  0.00    +0.000 A 
ATOM     15  C   UNL     1       0.942   2.647  20.112  0.00  0.00    +0.000 A 
ATOM     16  C   UNL     1       1.211   3.878  20.737  0.00  0.00    +0.000 A 
ATOM     17  C   UNL     1       1.707   4.965  20.007  0.00  0.00    +0.000 A 
ATOM     18  C   UNL     1       1.863   6.249  20.591  0.00  0.00    +0.000 A 
ENDBRANCH   4   9
BRANCH   1  19
ATOM     19  C   UNL     1      -0.899  12.681  19.119  0.00  0.00    +0.000 C 
BRANCH  19  21
ATOM     20  C   UNL     1      -0.220  15.103  19.503  0.00  0.00    +0.000 C 
ATOM     21  C   UNL     1       0.038  13.643  19.849  0.00  0.00    +0.000 C 
ATOM     22  C   UNL     1      -0.160  13.435  21.362  0.00  0.00    +0.000 C 
ENDBRANCH  19  21
ENDBRANCH   1  19
TORSDOF 3
ENDMDL
MODEL 3
REMARK VINA RESULT:      -7.2      1.470      2.201
REMARK  Name = 
REMARK  5 active torsions:
REMARK  status: ('A' for Active; 'I' for Inactive)
REMARK    1  A    between atoms: C_1  and  C_2
REMARK    2  A    between atoms: C_2  and  C_3
REMARK    3  A    between atoms: C_2  and  C_4
REMARK    4  A    between atoms: C_4  and  C_5
REMARK    5  A    between atoms: C_8  and  C_9
REMARK                            x       y       z     vdW  Elec       q    Type
REMARK                         _______ _______ _______ _____ _____    ______ ____
ROOT
ATOM      1  C   UNL     1       6.396   5.355  15.745  0.00  0.00    +0.000 C 
ATOM      2  C   UNL     1       5.009   6.095  15.643  0.00  0.00    +0.000 C 
ATOM      3  N   UNL     1       4.563   6.052  17.052  0.00  0.00    +0.000 N 
ATOM      4  C   UNL     1       3.227   6.126  17.506  0.00  0.00    +0.000 C 
ATOM      5  C   UNL     1       2.722   4.918  17.868  0.00  0.00    +0.000 C 
ATOM      6  S   UNL     1       4.025   3.772  18.203  0.00  0.00    +0.000 S 
ATOM      7  C   UNL     1       5.156   4.867  17.448  0.00  0.00    +0.000 C 
ATOM      8  N   UNL     1       6.305   4.502  16.987  0.00  0.00    +0.000 NA
ENDROOT
BRANCH   4   9
ATOM      9  C   UNL     1       2.849   7.089  18.618  0.00  0.00    +0.000 A 
ATOM     10  C   UNL     1       2.523   6.551  19.880  0.00  0.00    +0.000 A 
ATOM     11  C   UNL     1       1.658   7.222  20.759  0.00  0.00    +0.000 A 
ATOM     12  C   UNL     1       1.101   8.460  20.414  0.00  0.00    +0.000 A 
ATOM     13  C   UNL     1       0.118   9.059  21.218  0.00  0.00    +0.000 A 
ATOM     14  C   UNL     1      -0.466  10.267  20.837  0.00  0.00    +0.000 A 
ATOM     15  C   UNL     1      -0.058  10.889  19.668  0.00  0.00    +0.000 A 
ATOM     16  C   UNL     1       0.925  10.295  18.855  0.00  0.00    +0.000 A 
ATOM     17  C   UNL     1       1.503   9.067  19.202  0.00  0.00    +0.000 A 
ATOM     18  C   UNL     1       2.399   8.391  18.334  0.00  0.00    +0.000 A 
ENDBRANCH   4   9
BRANCH   1  19
ATOM     19  C   UNL     1       6.723   4.287  14.681  0.00  0.00    +0.000 C 
BRANCH  19  21
ATOM     20  C   UNL     1       7.901   5.152  12.599  0.00  0.00    +0.000 C 
ATOM     21  C   UNL     1       6.617   4.583  13.186  0.00  0.00    +0.000 C 
ATOM     22  C   UNL     1       6.271   3.264  12.468  0.00  0.00    +0.000 C 
ENDBRANCH  19  21
ENDBRANCH   1  19
TORSDOF 3
ENDMDL
MODEL 4
REMARK VINA RESULT:      -7.1      1.629      2.425
REMARK  Name = 
REMARK  5 active torsions:
REMARK  status: ('A' for Active; 'I' for Inactive)
REMARK    1  A    between atoms: C_1  and  C_2
REMARK    2  A    between atoms: C_2  and  C_3
REMARK    3  A    between atoms: C_2  and  C_4
REMARK    4  A    between atoms: C_4  and  C_5
REMARK    5  A    between atoms: C_8  and  C_9
REMARK                            x       y       z     vdW  Elec       q    Type
REMARK                         _______ _______ _______ _____ _____    ______ ____
ROOT
ATOM      1  C   UNL     1       6.044   5.002  16.126  0.00  0.00    +0.000 C 
ATOM      2  C   UNL     1       4.611   5.642  15.979  0.00  0.00    +0.000 C 
ATOM      3  N   UNL     1       4.270   5.895  17.395  0.00  0.00    +0.000 N 
ATOM      4  C   UNL     1       2.967   6.012  17.930  0.00  0.00    +0.000 C 
ATOM      5  C   UNL     1       2.560   4.895  18.586  0.00  0.00    +0.000 C 
ATOM      6  S   UNL     1       3.949   3.907  19.056  0.00  0.00    +0.000 S 
ATOM      7  C   UNL     1       4.957   4.853  17.990  0.00  0.00    +0.000 C 
ATOM      8  N   UNL     1       6.090   4.444  17.527  0.00  0.00    +0.000 NA
ENDROOT
BRANCH   4   9
ATOM      9  C   UNL     1       2.612   7.182  18.831  0.00  0.00    +0.000 A 
ATOM     10  C   UNL     1       2.259   6.906  20.168  0.00  0.00    +0.000 A 
ATOM     11  C   UNL     1       1.410   7.760  20.890  0.00  0.00    +0.000 A 
ATOM     12  C   UNL     1       0.897   8.925  20.307  0.00  0.00    +0.000 A 
ATOM     13  C   UNL     1      -0.072   9.697  20.968  0.00  0.00    +0.000 A 
ATOM     14  C   UNL     1      -0.613  10.828  20.355  0.00  0.00    +0.000 A 
ATOM     15  C   UNL     1      -0.175  11.201  19.094  0.00  0.00    +0.000 A 
ATOM     16  C   UNL     1       0.793  10.432  18.424  0.00  0.00    +0.000 A 
ATOM     17  C   UNL     1       1.328   9.276  19.007  0.00  0.00    +0.000 A 
ATOM     18  C   UNL     1       2.207   8.419  18.297  0.00  0.00    +0.000 A 
ENDBRANCH   4   9
BRANCH   1  19
ATOM     19  C   UNL     1       6.357   3.738  15.298  0.00  0.00    +0.000 C 
BRANCH  19  21
ATOM     20  C   UNL     1       5.381   3.718  12.949  0.00  0.00    +0.000 C 
ATOM     21  C   UNL     1       6.641   3.810  13.798  0.00  0.00    +0.000 C 
ATOM     22  C   UNL     1       7.348   5.149  13.517  0.00  0.00    +0.000 C 
ENDBRANCH  19  21
ENDBRANCH   1  19
TORSDOF 3
ENDMDL
MODEL 5
REMARK VINA RESULT:      -7.0      4.779      8.524
REMARK  Name = 
REMARK  5 active torsions:
REMARK  status: ('A' for Active; 'I' for Inactive)
REMARK    1  A    between atoms: C_1  and  C_2
REMARK    2  A    between atoms: C_2  and  C_3
REMARK    3  A    between atoms: C_2  and  C_4
REMARK    4  A    between atoms: C_4  and  C_5
REMARK    5  A    between atoms: C_8  and  C_9
REMARK                            x       y       z     vdW  Elec       q    Type
REMARK                         _______ _______ _______ _____ _____    ______ ____
ROOT
ATOM      1  C   UNL     1      -2.091  10.501  18.453  0.00  0.00    +0.000 C 
ATOM      2  C   UNL     1      -1.075   9.819  17.460  0.00  0.00    +0.000 C 
ATOM      3  N   UNL     1       0.101   9.645  18.338  0.00  0.00    +0.000 N 
ATOM      4  C   UNL     1       1.446   9.529  17.917  0.00  0.00    +0.000 C 
ATOM      5  C   UNL     1       2.156  10.673  18.088  0.00  0.00    +0.000 C 
ATOM      6  S   UNL     1       1.373  11.721  19.278  0.00  0.00    +0.000 S 
ATOM      7  C   UNL     1      -0.064  10.737  19.170  0.00  0.00    +0.000 C 
ATOM      8  N   UNL     1      -1.238  11.144  19.519  0.00  0.00    +0.000 NA
ENDROOT
BRANCH   4   9
ATOM      9  C   UNL     1       2.320   8.408  18.451  0.00  0.00    +0.000 A 
ATOM     10  C   UNL     1       3.276   7.841  17.582  0.00  0.00    +0.000 A 
ATOM     11  C   UNL     1       3.711   6.515  17.740  0.00  0.00    +0.000 A 
ATOM     12  C   UNL     1       3.218   5.715  18.778  0.00  0.00    +0.000 A 
ATOM     13  C   UNL     1       3.529   4.348  18.847  0.00  0.00    +0.000 A 
ATOM     14  C   UNL     1       2.991   3.551  19.857  0.00  0.00    +0.000 A 
ATOM     15  C   UNL     1       2.159   4.118  20.810  0.00  0.00    +0.000 A 
ATOM     16  C   UNL     1       1.839   5.486  20.747  0.00  0.00    +0.000 A 
ATOM     17  C   UNL     1       2.344   6.300  19.724  0.00  0.00    +0.000 A 
ATOM     18  C   UNL     1       1.932   7.648  19.570  0.00  0.00    +0.000 A 
ENDBRANCH   4   9
BRANCH   1  19
ATOM     19  C   UNL     1      -2.889  11.719  17.943  0.00  0.00    +0.000 C 
BRANCH  19  21
ATOM     20  C   UNL     1      -4.034  10.836  15.851  0.00  0.00    +0.000 C 
ATOM     21  C   UNL     1      -4.203  11.558  17.180  0.00  0.00    +0.000 C 
ATOM     22  C   UNL     1      -5.171  10.760  18.074  0.00  0.00    +0.000 C 
ENDBRANCH  19  21
ENDBRANCH   1  19
TORSDOF 3
ENDMDL
MODEL 6
REMARK VINA RESULT:      -7.0      2.992      7.307
REMARK  Name = 
REMARK  5 active torsions:
REMARK  status: ('A' for Active; 'I' for Inactive)
REMARK    1  A    between atoms: C_1  and  C_2
REMARK    2  A    between atoms: C_2  and  C_3
REMARK    3  A    between atoms: C_2  and  C_4
REMARK    4  A    between atoms: C_4  and  C_5
REMARK    5  A    between atoms: C_8  and  C_9
REMARK                            x       y       z     vdW  Elec       q    Type
REMARK                         _______ _______ _______ _____ _____    ______ ____
ROOT
ATOM      1  C   UNL     1       1.505   2.553  18.213  0.00  0.00    +0.000 C 
ATOM      2  C   UNL     1       2.167   3.882  17.684  0.00  0.00    +0.000 C 
ATOM      3  N   UNL     1       3.584   3.473  17.593  0.00  0.00    +0.000 N 
ATOM      4  C   UNL     1       4.704   4.335  17.635  0.00  0.00    +0.000 C 
ATOM      5  C   UNL     1       5.334   4.328  18.838  0.00  0.00    +0.000 C 
ATOM      6  S   UNL     1       4.929   2.866  19.746  0.00  0.00    +0.000 S 
ATOM      7  C   UNL     1       3.628   2.554  18.624  0.00  0.00    +0.000 C 
ATOM      8  N   UNL     1       2.619   1.796  18.893  0.00  0.00    +0.000 NA
ENDROOT
BRANCH   4   9
ATOM      9  C   UNL     1       5.798   4.219  16.588  0.00  0.00    +0.000 A 
ATOM     10  C   UNL     1       6.846   5.162  16.616  0.00  0.00    +0.000 A 
ATOM     11  C   UNL     1       7.551   5.506  15.452  0.00  0.00    +0.000 A 
ATOM     12  C   UNL     1       7.243   4.910  14.222  0.00  0.00    +0.000 A 
ATOM     13  C   UNL     1       7.835   5.362  13.032  0.00  0.00    +0.000 A 
ATOM     14  C   UNL     1       7.482   4.795  11.808  0.00  0.00    +0.000 A 
ATOM     15  C   UNL     1       6.555   3.765  11.770  0.00  0.00    +0.000 A 
ATOM     16  C   UNL     1       5.955   3.308  12.957  0.00  0.00    +0.000 A 
ATOM     17  C   UNL     1       6.272   3.883  14.194  0.00  0.00    +0.000 A 
ATOM     18  C   UNL     1       5.585   3.525  15.382  0.00  0.00    +0.000 A 
ENDBRANCH   4   9
BRANCH   1  19
ATOM     19  C   UNL     1       0.484   2.665  19.363  0.00  0.00    +0.000 C 
BRANCH  19  21
ATOM     20  C   UNL     1       1.693   2.681  21.602  0.00  0.00    +0.000 C 
ATOM     21  C   UNL     1       0.793   3.445  20.640  0.00  0.00    +0.000 C 
ATOM     22  C   UNL     1       1.484   4.760  20.233  0.00  0.00    +0.000 C 
ENDBRANCH  19  21
ENDBRANCH   1  19
TORSDOF 3
ENDMDL
MODEL 7
REMARK VINA RESULT:      -6.9      4.343      9.526
REMARK  Name = 
REMARK  5 active torsions:
REMARK  status: ('A' for Active; 'I' for Inactive)
REMARK    1  A    between atoms: C_1  and  C_2
REMARK    2  A    between atoms: C_2  and  C_3
REMARK    3  A    between atoms: C_2  and  C_4
REMARK    4  A    between atoms: C_4  and  C_5
REMARK    5  A    between atoms: C_8  and  C_9
REMARK                            x       y       z     vdW  Elec       q    Type
REMARK                         _______ _______ _______ _____ _____    ______ ____
ROOT
ATOM      1  C   UNL     1      -0.215  10.474  22.629  0.00  0.00    +0.000 C 
ATOM      2  C   UNL     1      -0.400   9.223  21.688  0.00  0.00    +0.000 C 
ATOM      3  N   UNL     1       0.792   9.344  20.822  0.00  0.00    +0.000 N 
ATOM      4  C   UNL     1       0.933   8.812  19.520  0.00  0.00    +0.000 C 
ATOM      5  C   UNL     1       0.790   9.748  18.547  0.00  0.00    +0.000 C 
ATOM      6  S   UNL     1       1.049  11.371  19.198  0.00  0.00    +0.000 S 
ATOM      7  C   UNL     1       0.935  10.719  20.814  0.00  0.00    +0.000 C 
ATOM      8  N   UNL     1       0.658  11.431  21.854  0.00  0.00    +0.000 NA
ENDROOT
BRANCH   4   9
ATOM      9  C   UNL     1       2.167   8.008  19.152  0.00  0.00    +0.000 A 
ATOM     10  C   UNL     1       2.773   8.257  17.903  0.00  0.00    +0.000 A 
ATOM     11  C   UNL     1       3.507   7.263  17.236  0.00  0.00    +0.000 A 
ATOM     12  C   UNL     1       3.673   5.991  17.800  0.00  0.00    +0.000 A 
ATOM     13  C   UNL     1       4.269   4.950  17.071  0.00  0.00    +0.000 A 
ATOM     14  C   UNL     1       4.382   3.675  17.625  0.00  0.00    +0.000 A 
ATOM     15  C   UNL     1       3.921   3.441  18.911  0.00  0.00    +0.000 A 
ATOM     16  C   UNL     1       3.320   4.478  19.647  0.00  0.00    +0.000 A 
ATOM     17  C   UNL     1       3.168   5.758  19.100  0.00  0.00    +0.000 A 
ATOM     18  C   UNL     1       2.451   6.779  19.775  0.00  0.00    +0.000 A 
ENDBRANCH   4   9
BRANCH   1  19
ATOM     19  C   UNL     1      -1.449  11.359  22.901  0.00  0.00    +0.000 C 
BRANCH  19  21
ATOM     20  C   UNL     1      -2.809  13.011  21.523  0.00  0.00    +0.000 C 
ATOM     21  C   UNL     1      -1.554  12.783  22.355  0.00  0.00    +0.000 C 
ATOM     22  C   UNL     1      -1.556  13.748  23.556  0.00  0.00    +0.000 C 
ENDBRANCH  19  21
ENDBRANCH   1  19
TORSDOF 3
ENDMDL
MODEL 8
REMARK VINA RESULT:      -6.8      5.033      9.888
REMARK  Name = 
REMARK  5 active torsions:
REMARK  status: ('A' for Active; 'I' for Inactive)
REMARK    1  A    between atoms: C_1  and  C_2
REMARK    2  A    between atoms: C_2  and  C_3
REMARK    3  A    between atoms: C_2  and  C_4
REMARK    4  A    between atoms: C_4  and  C_5
REMARK    5  A    between atoms: C_8  and  C_9
REMARK                            x       y       z     vdW  Elec       q    Type
REMARK                         _______ _______ _______ _____ _____    ______ ____
ROOT
ATOM      1  C   UNL     1      -0.456  11.897  22.254  0.00  0.00    +0.000 C 
ATOM      2  C   UNL     1      -0.804  10.626  21.389  0.00  0.00    +0.000 C 
ATOM      3  N   UNL     1       0.495  10.369  20.732  0.00  0.00    +0.000 N 
ATOM      4  C   UNL     1       0.690   9.678  19.515  0.00  0.00    +0.000 C 
ATOM      5  C   UNL     1       0.927  10.506  18.466  0.00  0.00    +0.000 C 
ATOM      6  S   UNL     1       1.481  12.087  19.031  0.00  0.00    +0.000 S 
ATOM      7  C   UNL     1       0.973  11.664  20.647  0.00  0.00    +0.000 C 
ATOM      8  N   UNL     1       0.730  12.532  21.571  0.00  0.00    +0.000 NA
ENDROOT
BRANCH   4   9
ATOM      9  C   UNL     1       1.729   8.573  19.421  0.00  0.00    +0.000 A 
ATOM     10  C   UNL     1       2.403   8.398  18.195  0.00  0.00    +0.000 A 
ATOM     11  C   UNL     1       2.917   7.148  17.816  0.00  0.00    +0.000 A 
ATOM     12  C   UNL     1       2.790   6.033  18.655  0.00  0.00    +0.000 A 
ATOM     13  C   UNL     1       3.161   4.753  18.216  0.00  0.00    +0.000 A 
ATOM     14  C   UNL     1       2.982   3.643  19.043  0.00  0.00    +0.000 A 
ATOM     15  C   UNL     1       2.451   3.811  20.312  0.00  0.00    +0.000 A 
ATOM     16  C   UNL     1       2.073   5.090  20.759  0.00  0.00    +0.000 A 
ATOM     17  C   UNL     1       2.216   6.214  19.935  0.00  0.00    +0.000 A 
ATOM     18  C   UNL     1       1.724   7.488  20.317  0.00  0.00    +0.000 A 
ENDBRANCH   4   9
BRANCH   1  19
ATOM     19  C   UNL     1      -1.459  13.069  22.247  0.00  0.00    +0.000 C 
BRANCH  19  21
ATOM     20  C   UNL     1      -3.428  12.360  23.693  0.00  0.00    +0.000 C 
ATOM     21  C   UNL     1      -2.968  12.837  22.323  0.00  0.00    +0.000 C 
ATOM     22  C   UNL     1      -3.666  14.168  21.986  0.00  0.00    +0.000 C 
ENDBRANCH  19  21
ENDBRANCH   1  19
TORSDOF 3
ENDMDL
MODEL 9
REMARK VINA RESULT:      -6.8      1.358      2.348
REMARK  Name = 
REMARK  5 active torsions:
REMARK  status: ('A' for Active; 'I' for Inactive)
REMARK    1  A    between atoms: C_1  and  C_2
REMARK    2  A    between atoms: C_2  and  C_3
REMARK    3  A    between atoms: C_2  and  C_4
REMARK    4  A    between atoms: C_4  and  C_5
REMARK    5  A    between atoms: C_8  and  C_9
REMARK                            x       y       z     vdW  Elec       q    Type
REMARK                         _______ _______ _______ _____ _____    ______ ____
ROOT
ATOM      1  C   UNL     1       5.223   4.800  14.719  0.00  0.00    +0.000 C 
ATOM      2  C   UNL     1       4.402   4.348  15.986  0.00  0.00    +0.000 C 
ATOM      3  N   UNL     1       4.150   5.651  16.637  0.00  0.00    +0.000 N 
ATOM      4  C   UNL     1       3.885   5.859  18.009  0.00  0.00    +0.000 C 
ATOM      5  C   UNL     1       4.960   6.329  18.692  0.00  0.00    +0.000 C 
ATOM      6  S   UNL     1       6.130   7.061  17.588  0.00  0.00    +0.000 S 
ATOM      7  C   UNL     1       5.288   6.331  16.244  0.00  0.00    +0.000 C 
ATOM      8  N   UNL     1       5.824   6.134  15.087  0.00  0.00    +0.000 NA
ENDROOT
BRANCH   4   9
ATOM      9  C   UNL     1       2.707   6.717  18.439  0.00  0.00    +0.000 A 
ATOM     10  C   UNL     1       2.286   7.748  17.574  0.00  0.00    +0.000 A 
ATOM     11  C   UNL     1       1.645   8.897  18.065  0.00  0.00    +0.000 A 
ATOM     12  C   UNL     1       1.389   9.048  19.434  0.00  0.00    +0.000 A 
ATOM     13  C   UNL     1       0.893  10.257  19.946  0.00  0.00    +0.000 A 
ATOM     14  C   UNL     1       0.690  10.413  21.317  0.00  0.00    +0.000 A 
ATOM     15  C   UNL     1       0.962   9.359  22.176  0.00  0.00    +0.000 A 
ATOM     16  C   UNL     1       1.463   8.146  21.671  0.00  0.00    +0.000 A 
ATOM     17  C   UNL     1       1.703   7.977  20.302  0.00  0.00    +0.000 A 
ATOM     18  C   UNL     1       2.326   6.810  19.790  0.00  0.00    +0.000 A 
ENDBRANCH   4   9
BRANCH   1  19
ATOM     19  C   UNL     1       6.490   3.997  14.358  0.00  0.00    +0.000 C 
BRANCH  19  21
ATOM     20  C   UNL     1       5.567   3.227  12.116  0.00  0.00    +0.000 C 
ATOM     21  C   UNL     1       6.807   3.599  12.917  0.00  0.00    +0.000 C 
ATOM     22  C   UNL     1       7.510   4.792  12.243  0.00  0.00    +0.000 C 
ENDBRANCH  19  21
ENDBRANCH   1  19
TORSDOF 3
ENDMDL
