MODEL 1
REMARK VINA RESULT:      -7.0      0.000      0.000
REMARK  Name = 
REMARK  7 active torsions:
REMARK  status: ('A' for Active; 'I' for Inactive)
REMARK    1  A    between atoms: C_1  and  C_2
REMARK    2  A    between atoms: C_2  and  C_3
REMARK    3  A    between atoms: C_3  and  O_4
REMARK    4  A    between atoms: O_4  and  C_5
REMARK    5  A    between atoms: N_11  and  N_12
REMARK    6  A    between atoms: C_16  and  C_17
REMARK    7  A    between atoms: N_23  and  C_24
REMARK                            x       y       z     vdW  Elec       q    Type
REMARK                         _______ _______ _______ _____ _____    ______ ____
ROOT
ATOM      1  N   UNL     1      -1.578  11.445  22.808  0.00  0.00    +0.000 NA
ATOM      2  C   UNL     1      -0.752  10.594  22.288  0.00  0.00    +0.000 A 
ATOM      3  S   UNL     1       0.111   9.597  23.541  0.00  0.00    +0.000 S 
ATOM      4  C   UNL     1       1.084   8.832  22.330  0.00  0.00    +0.000 A 
ATOM      5  C   UNL     1       0.772   9.250  21.091  0.00  0.00    +0.000 A 
ATOM      6  N   UNL     1      -0.266  10.213  21.009  0.00  0.00    +0.000 N 
ENDROOT
BRANCH   5   7
ATOM      7  C   UNL     1       1.468   8.648  19.946  0.00  0.00    +0.000 A 
ATOM      8  C   UNL     1       1.650   9.372  18.762  0.00  0.00    +0.000 A 
ATOM      9  C   UNL     1       2.338   8.803  17.688  0.00  0.00    +0.000 A 
ATOM     10  C   UNL     1       2.858   7.513  17.792  0.00  0.00    +0.000 A 
ATOM     11  C   UNL     1       2.659   6.774  18.956  0.00  0.00    +0.000 A 
ATOM     12  C   UNL     1       1.940   7.328  20.017  0.00  0.00    +0.000 A 
ENDBRANCH   5   7
BRANCH   6  13
ATOM     13  C   UNL     1      -0.750  10.764  19.778  0.00  0.00    +0.000 A 
ATOM     14  C   UNL     1      -1.615  10.048  18.935  0.00  0.00    +0.000 A 
ATOM     15  C   UNL     1      -2.199  10.637  17.806  0.00  0.00    +0.000 A 
ATOM     16  C   UNL     1      -1.843  11.923  17.424  0.00  0.00    +0.000 A 
ATOM     17  C   UNL     1      -0.913  12.622  18.179  0.00  0.00    +0.000 A 
ATOM     18  C   UNL     1      -0.406  12.059  19.355  0.00  0.00    +0.000 A 
ENDBRANCH   6  13
BRANCH   1  21
ATOM     19  C   UNL     1      -3.872  12.669  23.722  0.00  0.00    +0.000 C 
ATOM     20  C   UNL     1      -3.325  12.812  22.323  0.00  0.00    +0.000 C 
ATOM     21  N   UNL     1      -2.213  12.281  21.912  0.00  0.00    +0.000 NA
BRANCH  20  22
ATOM     22  C   UNL     1      -4.133  13.627  21.319  0.00  0.00    +0.000 C 
BRANCH  22  23
ATOM     23  O   UNL     1      -5.526  13.335  21.461  0.00  0.00    +0.000 OA
BRANCH  23  24
ATOM     24  C   UNL     1      -6.002  12.336  20.648  0.00  0.00    +0.000 A 
ATOM     25  C   UNL     1      -5.406  12.226  19.389  0.00  0.00    +0.000 A 
ATOM     26  C   UNL     1      -5.817  11.239  18.489  0.00  0.00    +0.000 A 
ATOM     27  C   UNL     1      -6.815  10.336  18.855  0.00  0.00    +0.000 A 
ATOM     28  C   UNL     1      -7.397  10.421  20.117  0.00  0.00    +0.000 A 
ATOM     29  C   UNL     1      -6.992  11.416  21.013  0.00  0.00    +0.000 A 
ENDBRANCH  23  24
ENDBRANCH  22  23
ENDBRANCH  20  22
ENDBRANCH   1  21
TORSDOF 6
ENDMDL
MODEL 2
REMARK VINA RESULT:      -7.0      2.175      7.186
REMARK  Name = 
REMARK  7 active torsions:
REMARK  status: ('A' for Active; 'I' for Inactive)
REMARK    1  A    between atoms: C_1  and  C_2
REMARK    2  A    between atoms: C_2  and  C_3
REMARK    3  A    between atoms: C_3  and  O_4
REMARK    4  A    between atoms: O_4  and  C_5
REMARK    5  A    between atoms: N_11  and  N_12
REMARK    6  A    between atoms: C_16  and  C_17
REMARK    7  A    between atoms: N_23  and  C_24
REMARK                            x       y       z     vdW  Elec       q    Type
REMARK                         _______ _______ _______ _____ _____    ______ ____
ROOT
ATOM      1  N   UNL     1      -1.390  11.807  23.450  0.00  0.00    +0.000 NA
ATOM      2  C   UNL     1      -2.464  12.330  22.947  0.00  0.00    +0.000 A 
ATOM      3  S   UNL     1      -3.821  12.446  24.152  0.00  0.00    +0.000 S 
ATOM      4  C   UNL     1      -4.910  13.033  22.941  0.00  0.00    +0.000 A 
ATOM      5  C   UNL     1      -4.311  13.170  21.745  0.00  0.00    +0.000 A 
ATOM      6  N   UNL     1      -2.937  12.818  21.701  0.00  0.00    +0.000 N 
ENDROOT
BRANCH   5   7
ATOM      7  C   UNL     1      -5.086  13.719  20.625  0.00  0.00    +0.000 A 
ATOM      8  C   UNL     1      -5.625  12.871  19.649  0.00  0.00    +0.000 A 
ATOM      9  C   UNL     1      -6.387  13.398  18.603  0.00  0.00    +0.000 A 
ATOM     10  C   UNL     1      -6.623  14.770  18.529  0.00  0.00    +0.000 A 
ATOM     11  C   UNL     1      -6.069  15.625  19.479  0.00  0.00    +0.000 A 
ATOM     12  C   UNL     1      -5.278  15.104  20.505  0.00  0.00    +0.000 A 
ENDBRANCH   5   7
BRANCH   6  13
ATOM     13  C   UNL     1      -2.125  12.914  20.524  0.00  0.00    +0.000 A 
ATOM     14  C   UNL     1      -2.102  11.899  19.555  0.00  0.00    +0.000 A 
ATOM     15  C   UNL     1      -1.420  12.054  18.340  0.00  0.00    +0.000 A 
ATOM     16  C   UNL     1      -0.645  13.183  18.112  0.00  0.00    +0.000 A 
ATOM     17  C   UNL     1      -0.565  14.160  19.093  0.00  0.00    +0.000 A 
ATOM     18  C   UNL     1      -1.322  14.038  20.262  0.00  0.00    +0.000 A 
ENDBRANCH   6  13
BRANCH   1  21
ATOM     19  C   UNL     1      -0.775   9.194  22.832  0.00  0.00    +0.000 C 
ATOM     20  C   UNL     1      -0.019  10.395  22.321  0.00  0.00    +0.000 C 
ATOM     21  N   UNL     1      -0.346  11.627  22.567  0.00  0.00    +0.000 NA
BRANCH  20  22
ATOM     22  C   UNL     1       1.218  10.149  21.464  0.00  0.00    +0.000 C 
BRANCH  22  23
ATOM     23  O   UNL     1       0.835   9.932  20.103  0.00  0.00    +0.000 OA
BRANCH  23  24
ATOM     24  C   UNL     1       1.536   8.950  19.446  0.00  0.00    +0.000 A 
ATOM     25  C   UNL     1       1.793   7.783  20.170  0.00  0.00    +0.000 A 
ATOM     26  C   UNL     1       2.496   6.724  19.590  0.00  0.00    +0.000 A 
ATOM     27  C   UNL     1       2.926   6.816  18.267  0.00  0.00    +0.000 A 
ATOM     28  C   UNL     1       2.651   7.965  17.528  0.00  0.00    +0.000 A 
ATOM     29  C   UNL     1       1.956   9.028  18.113  0.00  0.00    +0.000 A 
ENDBRANCH  23  24
ENDBRANCH  22  23
ENDBRANCH  20  22
ENDBRANCH   1  21
TORSDOF 6
ENDMDL
MODEL 3
REMARK VINA RESULT:      -7.0      2.201      7.331
REMARK  Name = 
REMARK  7 active torsions:
REMARK  status: ('A' for Active; 'I' for Inactive)
REMARK    1  A    between atoms: C_1  and  C_2
REMARK    2  A    between atoms: C_2  and  C_3
REMARK    3  A    between atoms: C_3  and  O_4
REMARK    4  A    between atoms: O_4  and  C_5
REMARK    5  A    between atoms: N_11  and  N_12
REMARK    6  A    between atoms: C_16  and  C_17
REMARK    7  A    between atoms: N_23  and  C_24
REMARK                            x       y       z     vdW  Elec       q    Type
REMARK                         _______ _______ _______ _____ _____    ______ ____
ROOT
ATOM      1  N   UNL     1      -1.285  11.716  23.253  0.00  0.00    +0.000 NA
ATOM      2  C   UNL     1      -2.369  12.277  22.821  0.00  0.00    +0.000 A 
ATOM      3  S   UNL     1      -3.673  12.355  24.087  0.00  0.00    +0.000 S 
ATOM      4  C   UNL     1      -4.802  13.015  22.953  0.00  0.00    +0.000 A 
ATOM      5  C   UNL     1      -4.251  13.201  21.740  0.00  0.00    +0.000 A 
ATOM      6  N   UNL     1      -2.887  12.831  21.621  0.00  0.00    +0.000 N 
ENDROOT
BRANCH   5   7
ATOM      7  C   UNL     1      -5.064  13.813  20.681  0.00  0.00    +0.000 A 
ATOM      8  C   UNL     1      -5.748  13.014  19.757  0.00  0.00    +0.000 A 
ATOM      9  C   UNL     1      -6.543  13.603  18.771  0.00  0.00    +0.000 A 
ATOM     10  C   UNL     1      -6.668  14.991  18.707  0.00  0.00    +0.000 A 
ATOM     11  C   UNL     1      -5.970  15.795  19.604  0.00  0.00    +0.000 A 
ATOM     12  C   UNL     1      -5.146  15.210  20.568  0.00  0.00    +0.000 A 
ENDBRANCH   5   7
BRANCH   6  13
ATOM     13  C   UNL     1      -2.123  12.971  20.416  0.00  0.00    +0.000 A 
ATOM     14  C   UNL     1      -1.332  14.104  20.167  0.00  0.00    +0.000 A 
ATOM     15  C   UNL     1      -0.478  14.178  19.059  0.00  0.00    +0.000 A 
ATOM     16  C   UNL     1      -0.479  13.169  18.105  0.00  0.00    +0.000 A 
ATOM     17  C   UNL     1      -1.325  12.082  18.269  0.00  0.00    +0.000 A 
ATOM     18  C   UNL     1      -2.105  11.975  19.425  0.00  0.00    +0.000 A 
ENDBRANCH   6  13
BRANCH   1  21
ATOM     19  C   UNL     1      -0.676   9.121  22.555  0.00  0.00    +0.000 C 
ATOM     20  C   UNL     1       0.045  10.339  22.033  0.00  0.00    +0.000 C 
ATOM     21  N   UNL     1      -0.282  11.563  22.318  0.00  0.00    +0.000 NA
BRANCH  20  22
ATOM     22  C   UNL     1       1.242  10.121  21.114  0.00  0.00    +0.000 C 
BRANCH  22  23
ATOM     23  O   UNL     1       0.813   9.536  19.881  0.00  0.00    +0.000 OA
BRANCH  23  24
ATOM     24  C   UNL     1       1.618   8.535  19.395  0.00  0.00    +0.000 A 
ATOM     25  C   UNL     1       2.177   8.750  18.133  0.00  0.00    +0.000 A 
ATOM     26  C   UNL     1       3.014   7.792  17.552  0.00  0.00    +0.000 A 
ATOM     27  C   UNL     1       3.316   6.621  18.244  0.00  0.00    +0.000 A 
ATOM     28  C   UNL     1       2.785   6.410  19.514  0.00  0.00    +0.000 A 
ATOM     29  C   UNL     1       1.940   7.364  20.091  0.00  0.00    +0.000 A 
ENDBRANCH  23  24
ENDBRANCH  22  23
ENDBRANCH  20  22
ENDBRANCH   1  21
TORSDOF 6
ENDMDL
MODEL 4
REMARK VINA RESULT:      -6.8      2.112      7.066
REMARK  Name = 
REMARK  7 active torsions:
REMARK  status: ('A' for Active; 'I' for Inactive)
REMARK    1  A    between atoms: C_1  and  C_2
REMARK    2  A    between atoms: C_2  and  C_3
REMARK    3  A    between atoms: C_3  and  O_4
REMARK    4  A    between atoms: O_4  and  C_5
REMARK    5  A    between atoms: N_11  and  N_12
REMARK    6  A    between atoms: C_16  and  C_17
REMARK    7  A    between atoms: N_23  and  C_24
REMARK                            x       y       z     vdW  Elec       q    Type
REMARK                         _______ _______ _______ _____ _____    ______ ____
ROOT
ATOM      1  N   UNL     1      -1.584  12.242  23.240  0.00  0.00    +0.000 NA
ATOM      2  C   UNL     1      -2.733  12.523  22.713  0.00  0.00    +0.000 A 
ATOM      3  S   UNL     1      -4.042  12.744  23.956  0.00  0.00    +0.000 S 
ATOM      4  C   UNL     1      -5.245  12.935  22.726  0.00  0.00    +0.000 A 
ATOM      5  C   UNL     1      -4.718  12.878  21.490  0.00  0.00    +0.000 A 
ATOM      6  N   UNL     1      -3.315  12.678  21.427  0.00  0.00    +0.000 N 
ENDROOT
BRANCH   5   7
ATOM      7  C   UNL     1      -5.602  13.085  20.335  0.00  0.00    +0.000 A 
ATOM      8  C   UNL     1      -5.875  14.377  19.870  0.00  0.00    +0.000 A 
ATOM      9  C   UNL     1      -6.693  14.563  18.753  0.00  0.00    +0.000 A 
ATOM     10  C   UNL     1      -7.234  13.463  18.087  0.00  0.00    +0.000 A 
ATOM     11  C   UNL     1      -6.989  12.175  18.558  0.00  0.00    +0.000 A 
ATOM     12  C   UNL     1      -6.202  11.988  19.696  0.00  0.00    +0.000 A 
ENDBRANCH   5   7
BRANCH   6  13
ATOM     13  C   UNL     1      -2.572  12.609  20.204  0.00  0.00    +0.000 A 
ATOM     14  C   UNL     1      -1.656  13.606  19.836  0.00  0.00    +0.000 A 
ATOM     15  C   UNL     1      -0.827  13.470  18.714  0.00  0.00    +0.000 A 
ATOM     16  C   UNL     1      -0.976  12.383  17.863  0.00  0.00    +0.000 A 
ATOM     17  C   UNL     1      -1.943  11.430  18.143  0.00  0.00    +0.000 A 
ATOM     18  C   UNL     1      -2.700  11.528  19.314  0.00  0.00    +0.000 A 
ENDBRANCH   6  13
BRANCH   1  21
ATOM     19  C   UNL     1      -0.706   9.633  23.111  0.00  0.00    +0.000 C 
ATOM     20  C   UNL     1      -0.112  10.776  22.326  0.00  0.00    +0.000 C 
ATOM     21  N   UNL     1      -0.564  11.993  22.345  0.00  0.00    +0.000 NA
BRANCH  20  22
ATOM     22  C   UNL     1       1.108  10.487  21.457  0.00  0.00    +0.000 C 
BRANCH  22  23
ATOM     23  O   UNL     1       0.702  10.254  20.106  0.00  0.00    +0.000 OA
BRANCH  23  24
ATOM     24  C   UNL     1       1.354   9.229  19.466  0.00  0.00    +0.000 A 
ATOM     25  C   UNL     1       1.677   8.117  20.249  0.00  0.00    +0.000 A 
ATOM     26  C   UNL     1       2.338   7.020  19.690  0.00  0.00    +0.000 A 
ATOM     27  C   UNL     1       2.660   7.018  18.333  0.00  0.00    +0.000 A 
ATOM     28  C   UNL     1       2.318   8.111  17.540  0.00  0.00    +0.000 A 
ATOM     29  C   UNL     1       1.666   9.213  18.102  0.00  0.00    +0.000 A 
ENDBRANCH  23  24
ENDBRANCH  22  23
ENDBRANCH  20  22
ENDBRANCH   1  21
TORSDOF 6
ENDMDL
MODEL 5
REMARK VINA RESULT:      -6.8      2.890      8.153
REMARK  Name = 
REMARK  7 active torsions:
REMARK  status: ('A' for Active; 'I' for Inactive)
REMARK    1  A    between atoms: C_1  and  C_2
REMARK    2  A    between atoms: C_2  and  C_3
REMARK    3  A    between atoms: C_3  and  O_4
REMARK    4  A    between atoms: O_4  and  C_5
REMARK    5  A    between atoms: N_11  and  N_12
REMARK    6  A    between atoms: C_16  and  C_17
REMARK    7  A    between atoms: N_23  and  C_24
REMARK                            x       y       z     vdW  Elec       q    Type
REMARK                         _______ _______ _______ _____ _____    ______ ____
ROOT
ATOM      1  N   UNL     1      -3.858  11.545  18.223  0.00  0.00    +0.000 NA
ATOM      2  C   UNL     1      -4.810  11.886  19.033  0.00  0.00    +0.000 A 
ATOM      3  S   UNL     1      -6.456  11.409  18.423  0.00  0.00    +0.000 S 
ATOM      4  C   UNL     1      -7.230  12.199  19.755  0.00  0.00    +0.000 A 
ATOM      5  C   UNL     1      -6.343  12.741  20.607  0.00  0.00    +0.000 A 
ATOM      6  N   UNL     1      -4.977  12.571  20.265  0.00  0.00    +0.000 N 
ENDROOT
BRANCH   5   7
ATOM      7  C   UNL     1      -6.841  13.396  21.824  0.00  0.00    +0.000 A 
ATOM      8  C   UNL     1      -7.104  14.771  21.837  0.00  0.00    +0.000 A 
ATOM      9  C   UNL     1      -7.605  15.381  22.990  0.00  0.00    +0.000 A 
ATOM     10  C   UNL     1      -7.858  14.621  24.132  0.00  0.00    +0.000 A 
ATOM     11  C   UNL     1      -7.575  13.257  24.138  0.00  0.00    +0.000 A 
ATOM     12  C   UNL     1      -7.040  12.653  22.999  0.00  0.00    +0.000 A 
ENDBRANCH   5   7
BRANCH   6  13
ATOM     13  C   UNL     1      -3.888  13.061  21.057  0.00  0.00    +0.000 A 
ATOM     14  C   UNL     1      -3.277  12.274  22.045  0.00  0.00    +0.000 A 
ATOM     15  C   UNL     1      -2.125  12.699  22.720  0.00  0.00    +0.000 A 
ATOM     16  C   UNL     1      -1.619  13.974  22.507  0.00  0.00    +0.000 A 
ATOM     17  C   UNL     1      -2.260  14.816  21.610  0.00  0.00    +0.000 A 
ATOM     18  C   UNL     1      -3.354  14.348  20.875  0.00  0.00    +0.000 A 
ENDBRANCH   6  13
BRANCH   1  21
ATOM     19  C   UNL     1      -1.781  10.043  17.210  0.00  0.00    +0.000 C 
ATOM     20  C   UNL     1      -1.615  11.199  18.166  0.00  0.00    +0.000 C 
ATOM     21  N   UNL     1      -2.590  11.941  18.596  0.00  0.00    +0.000 NA
BRANCH  20  22
ATOM     22  C   UNL     1      -0.210  11.514  18.668  0.00  0.00    +0.000 C 
BRANCH  22  23
ATOM     23  O   UNL     1       0.122  10.655  19.762  0.00  0.00    +0.000 OA
BRANCH  23  24
ATOM     24  C   UNL     1       0.932   9.591  19.447  0.00  0.00    +0.000 A 
ATOM     25  C   UNL     1       1.545   9.631  18.191  0.00  0.00    +0.000 A 
ATOM     26  C   UNL     1       2.390   8.597  17.778  0.00  0.00    +0.000 A 
ATOM     27  C   UNL     1       2.649   7.526  18.632  0.00  0.00    +0.000 A 
ATOM     28  C   UNL     1       2.063   7.491  19.895  0.00  0.00    +0.000 A 
ATOM     29  C   UNL     1       1.209   8.520  20.304  0.00  0.00    +0.000 A 
ENDBRANCH  23  24
ENDBRANCH  22  23
ENDBRANCH  20  22
ENDBRANCH   1  21
TORSDOF 6
ENDMDL
MODEL 6
REMARK VINA RESULT:      -6.8      2.957      8.253
REMARK  Name = 
REMARK  7 active torsions:
REMARK  status: ('A' for Active; 'I' for Inactive)
REMARK    1  A    between atoms: C_1  and  C_2
REMARK    2  A    between atoms: C_2  and  C_3
REMARK    3  A    between atoms: C_3  and  O_4
REMARK    4  A    between atoms: O_4  and  C_5
REMARK    5  A    between atoms: N_11  and  N_12
REMARK    6  A    between atoms: C_16  and  C_17
REMARK    7  A    between atoms: N_23  and  C_24
REMARK                            x       y       z     vdW  Elec       q    Type
REMARK                         _______ _______ _______ _____ _____    ______ ____
ROOT
ATOM      1  N   UNL     1      -3.608  11.642  18.292  0.00  0.00    +0.000 NA
ATOM      2  C   UNL     1      -4.598  11.989  19.052  0.00  0.00    +0.000 A 
ATOM      3  S   UNL     1      -6.217  11.621  18.310  0.00  0.00    +0.000 S 
ATOM      4  C   UNL     1      -7.047  12.383  19.624  0.00  0.00    +0.000 A 
ATOM      5  C   UNL     1      -6.198  12.842  20.561  0.00  0.00    +0.000 A 
ATOM      6  N   UNL     1      -4.821  12.622  20.303  0.00  0.00    +0.000 N 
ENDROOT
BRANCH   5   7
ATOM      7  C   UNL     1      -6.750  13.461  21.773  0.00  0.00    +0.000 A 
ATOM      8  C   UNL     1      -6.959  14.844  21.834  0.00  0.00    +0.000 A 
ATOM      9  C   UNL     1      -7.512  15.421  22.980  0.00  0.00    +0.000 A 
ATOM     10  C   UNL     1      -7.870  14.622  24.066  0.00  0.00    +0.000 A 
ATOM     11  C   UNL     1      -7.641  13.249  24.025  0.00  0.00    +0.000 A 
ATOM     12  C   UNL     1      -7.054  12.675  22.895  0.00  0.00    +0.000 A 
ENDBRANCH   5   7
BRANCH   6  13
ATOM     13  C   UNL     1      -3.768  13.021  21.190  0.00  0.00    +0.000 A 
ATOM     14  C   UNL     1      -3.170  14.288  21.108  0.00  0.00    +0.000 A 
ATOM     15  C   UNL     1      -2.243  14.730  22.061  0.00  0.00    +0.000 A 
ATOM     16  C   UNL     1      -1.800  13.871  23.058  0.00  0.00    +0.000 A 
ATOM     17  C   UNL     1      -2.296  12.576  23.106  0.00  0.00    +0.000 A 
ATOM     18  C   UNL     1      -3.289  12.176  22.207  0.00  0.00    +0.000 A 
ENDBRANCH   6  13
BRANCH   1  21
ATOM     19  C   UNL     1      -1.564   9.972  17.502  0.00  0.00    +0.000 C 
ATOM     20  C   UNL     1      -1.400  11.139  18.444  0.00  0.00    +0.000 C 
ATOM     21  N   UNL     1      -2.353  11.959  18.769  0.00  0.00    +0.000 NA
BRANCH  20  22
ATOM     22  C   UNL     1      -0.026  11.369  19.064  0.00  0.00    +0.000 C 
BRANCH  22  23
ATOM     23  O   UNL     1       0.977  10.709  18.288  0.00  0.00    +0.000 OA
BRANCH  23  24
ATOM     24  C   UNL     1       1.391   9.493  18.775  0.00  0.00    +0.000 A 
ATOM     25  C   UNL     1       2.069   8.665  17.876  0.00  0.00    +0.000 A 
ATOM     26  C   UNL     1       2.534   7.409  18.276  0.00  0.00    +0.000 A 
ATOM     27  C   UNL     1       2.345   6.983  19.589  0.00  0.00    +0.000 A 
ATOM     28  C   UNL     1       1.694   7.812  20.499  0.00  0.00    +0.000 A 
ATOM     29  C   UNL     1       1.220   9.065  20.096  0.00  0.00    +0.000 A 
ENDBRANCH  23  24
ENDBRANCH  22  23
ENDBRANCH  20  22
ENDBRANCH   1  21
TORSDOF 6
ENDMDL
MODEL 7
REMARK VINA RESULT:      -6.8      0.515      1.059
REMARK  Name = 
REMARK  7 active torsions:
REMARK  status: ('A' for Active; 'I' for Inactive)
REMARK    1  A    between atoms: C_1  and  C_2
REMARK    2  A    between atoms: C_2  and  C_3
REMARK    3  A    between atoms: C_3  and  O_4
REMARK    4  A    between atoms: O_4  and  C_5
REMARK    5  A    between atoms: N_11  and  N_12
REMARK    6  A    between atoms: C_16  and  C_17
REMARK    7  A    between atoms: N_23  and  C_24
REMARK                            x       y       z     vdW  Elec       q    Type
REMARK                         _______ _______ _______ _____ _____    ______ ____
ROOT
ATOM      1  N   UNL     1      -1.633  11.333  22.886  0.00  0.00    +0.000 NA
ATOM      2  C   UNL     1      -0.780  10.538  22.323  0.00  0.00    +0.000 A 
ATOM      3  S   UNL     1       0.155   9.543  23.524  0.00  0.00    +0.000 S 
ATOM      4  C   UNL     1       1.136   8.863  22.271  0.00  0.00    +0.000 A 
ATOM      5  C   UNL     1       0.779   9.305  21.052  0.00  0.00    +0.000 A 
ATOM      6  N   UNL     1      -0.304  10.221  21.023  0.00  0.00    +0.000 N 
ENDROOT
BRANCH   5   7
ATOM      7  C   UNL     1       1.476   8.773  19.874  0.00  0.00    +0.000 A 
ATOM      8  C   UNL     1       1.631   9.556  18.724  0.00  0.00    +0.000 A 
ATOM      9  C   UNL     1       2.321   9.053  17.618  0.00  0.00    +0.000 A 
ATOM     10  C   UNL     1       2.871   7.771  17.658  0.00  0.00    +0.000 A 
ATOM     11  C   UNL     1       2.699   6.975  18.788  0.00  0.00    +0.000 A 
ATOM     12  C   UNL     1       1.978   7.462  19.880  0.00  0.00    +0.000 A 
ENDBRANCH   5   7
BRANCH   6  13
ATOM     13  C   UNL     1      -0.839  10.788  19.820  0.00  0.00    +0.000 A 
ATOM     14  C   UNL     1      -0.532  12.097  19.417  0.00  0.00    +0.000 A 
ATOM     15  C   UNL     1      -0.940  12.601  18.175  0.00  0.00    +0.000 A 
ATOM     16  C   UNL     1      -1.766  11.849  17.351  0.00  0.00    +0.000 A 
ATOM     17  C   UNL     1      -2.172  10.589  17.766  0.00  0.00    +0.000 A 
ATOM     18  C   UNL     1      -1.685  10.060  18.965  0.00  0.00    +0.000 A 
ENDBRANCH   6  13
BRANCH   1  21
ATOM     19  C   UNL     1      -3.669  12.802  24.022  0.00  0.00    +0.000 C 
ATOM     20  C   UNL     1      -3.321  12.814  22.554  0.00  0.00    +0.000 C 
ATOM     21  N   UNL     1      -2.324  12.166  22.031  0.00  0.00    +0.000 NA
BRANCH  20  22
ATOM     22  C   UNL     1      -4.201  13.636  21.618  0.00  0.00    +0.000 C 
BRANCH  22  23
ATOM     23  O   UNL     1      -4.061  13.164  20.275  0.00  0.00    +0.000 OA
BRANCH  23  24
ATOM     24  C   UNL     1      -5.117  12.427  19.799  0.00  0.00    +0.000 A 
ATOM     25  C   UNL     1      -5.162  12.233  18.416  0.00  0.00    +0.000 A 
ATOM     26  C   UNL     1      -6.195  11.494  17.833  0.00  0.00    +0.000 A 
ATOM     27  C   UNL     1      -7.180  10.921  18.637  0.00  0.00    +0.000 A 
ATOM     28  C   UNL     1      -7.128  11.086  20.019  0.00  0.00    +0.000 A 
ATOM     29  C   UNL     1      -6.100  11.835  20.600  0.00  0.00    +0.000 A 
ENDBRANCH  23  24
ENDBRANCH  22  23
ENDBRANCH  20  22
ENDBRANCH   1  21
TORSDOF 6
ENDMDL
MODEL 8
REMARK VINA RESULT:      -6.7      2.910      8.006
REMARK  Name = 
REMARK  7 active torsions:
REMARK  status: ('A' for Active; 'I' for Inactive)
REMARK    1  A    between atoms: C_1  and  C_2
REMARK    2  A    between atoms: C_2  and  C_3
REMARK    3  A    between atoms: C_3  and  O_4
REMARK    4  A    between atoms: O_4  and  C_5
REMARK    5  A    between atoms: N_11  and  N_12
REMARK    6  A    between atoms: C_16  and  C_17
REMARK    7  A    between atoms: N_23  and  C_24
REMARK                            x       y       z     vdW  Elec       q    Type
REMARK                         _______ _______ _______ _____ _____    ______ ____
ROOT
ATOM      1  N   UNL     1      -4.200  11.495  18.169  0.00  0.00    +0.000 NA
ATOM      2  C   UNL     1      -5.117  11.878  19.001  0.00  0.00    +0.000 A 
ATOM      3  S   UNL     1      -6.796  11.475  18.432  0.00  0.00    +0.000 S 
ATOM      4  C   UNL     1      -7.503  12.298  19.781  0.00  0.00    +0.000 A 
ATOM      5  C   UNL     1      -6.572  12.802  20.611  0.00  0.00    +0.000 A 
ATOM      6  N   UNL     1      -5.224  12.570  20.236  0.00  0.00    +0.000 N 
ENDROOT
BRANCH   5   7
ATOM      7  C   UNL     1      -7.011  13.478  21.838  0.00  0.00    +0.000 A 
ATOM      8  C   UNL     1      -7.277  14.852  21.838  0.00  0.00    +0.000 A 
ATOM      9  C   UNL     1      -7.723  15.483  23.003  0.00  0.00    +0.000 A 
ATOM     10  C   UNL     1      -7.917  14.744  24.170  0.00  0.00    +0.000 A 
ATOM     11  C   UNL     1      -7.630  13.382  24.188  0.00  0.00    +0.000 A 
ATOM     12  C   UNL     1      -7.149  12.757  23.035  0.00  0.00    +0.000 A 
ENDBRANCH   5   7
BRANCH   6  13
ATOM     13  C   UNL     1      -4.095  13.011  21.001  0.00  0.00    +0.000 A 
ATOM     14  C   UNL     1      -3.423  14.208  20.707  0.00  0.00    +0.000 A 
ATOM     15  C   UNL     1      -2.412  14.710  21.537  0.00  0.00    +0.000 A 
ATOM     16  C   UNL     1      -1.965  13.968  22.623  0.00  0.00    +0.000 A 
ATOM     17  C   UNL     1      -2.539  12.733  22.882  0.00  0.00    +0.000 A 
ATOM     18  C   UNL     1      -3.610  12.284  22.102  0.00  0.00    +0.000 A 
ENDBRANCH   6  13
BRANCH   1  21
ATOM     19  C   UNL     1      -2.207  10.153  16.820  0.00  0.00    +0.000 C 
ATOM     20  C   UNL     1      -1.969  11.161  17.918  0.00  0.00    +0.000 C 
ATOM     21  N   UNL     1      -2.908  11.834  18.511  0.00  0.00    +0.000 NA
BRANCH  20  22
ATOM     22  C   UNL     1      -0.532  11.402  18.367  0.00  0.00    +0.000 C 
BRANCH  22  23
ATOM     23  O   UNL     1      -0.498  11.678  19.770  0.00  0.00    +0.000 OA
BRANCH  23  24
ATOM     24  C   UNL     1      -0.014  10.661  20.556  0.00  0.00    +0.000 A 
ATOM     25  C   UNL     1       0.770   9.700  19.911  0.00  0.00    +0.000 A 
ATOM     26  C   UNL     1       1.312   8.627  20.624  0.00  0.00    +0.000 A 
ATOM     27  C   UNL     1       1.094   8.522  21.997  0.00  0.00    +0.000 A 
ATOM     28  C   UNL     1       0.337   9.490  22.653  0.00  0.00    +0.000 A 
ATOM     29  C   UNL     1      -0.215  10.557  21.937  0.00  0.00    +0.000 A 
ENDBRANCH  23  24
ENDBRANCH  22  23
ENDBRANCH  20  22
ENDBRANCH   1  21
TORSDOF 6
ENDMDL
MODEL 9
REMARK VINA RESULT:      -6.7      2.600      7.851
REMARK  Name = 
REMARK  7 active torsions:
REMARK  status: ('A' for Active; 'I' for Inactive)
REMARK    1  A    between atoms: C_1  and  C_2
REMARK    2  A    between atoms: C_2  and  C_3
REMARK    3  A    between atoms: C_3  and  O_4
REMARK    4  A    between atoms: O_4  and  C_5
REMARK    5  A    between atoms: N_11  and  N_12
REMARK    6  A    between atoms: C_16  and  C_17
REMARK    7  A    between atoms: N_23  and  C_24
REMARK                            x       y       z     vdW  Elec       q    Type
REMARK                         _______ _______ _______ _____ _____    ______ ____
ROOT
ATOM      1  N   UNL     1       0.127  11.938  19.779  0.00  0.00    +0.000 NA
ATOM      2  C   UNL     1      -1.122  12.245  19.942  0.00  0.00    +0.000 A 
ATOM      3  S   UNL     1      -1.404  13.295  21.399  0.00  0.00    +0.000 S 
ATOM      4  C   UNL     1      -3.118  13.236  21.169  0.00  0.00    +0.000 A 
ATOM      5  C   UNL     1      -3.459  12.528  20.078  0.00  0.00    +0.000 A 
ATOM      6  N   UNL     1      -2.380  11.977  19.341  0.00  0.00    +0.000 N 
ENDROOT
BRANCH   5   7
ATOM      7  C   UNL     1      -4.877  12.437  19.709  0.00  0.00    +0.000 A 
ATOM      8  C   UNL     1      -5.837  12.064  20.657  0.00  0.00    +0.000 A 
ATOM      9  C   UNL     1      -7.189  12.007  20.306  0.00  0.00    +0.000 A 
ATOM     10  C   UNL     1      -7.591  12.333  19.010  0.00  0.00    +0.000 A 
ATOM     11  C   UNL     1      -6.641  12.678  18.053  0.00  0.00    +0.000 A 
ATOM     12  C   UNL     1      -5.287  12.700  18.392  0.00  0.00    +0.000 A 
ENDBRANCH   5   7
BRANCH   6  13
ATOM     13  C   UNL     1      -2.541  11.209  18.141  0.00  0.00    +0.000 A 
ATOM     14  C   UNL     1      -2.922   9.859  18.172  0.00  0.00    +0.000 A 
ATOM     15  C   UNL     1      -3.216   9.148  17.000  0.00  0.00    +0.000 A 
ATOM     16  C   UNL     1      -3.024   9.737  15.758  0.00  0.00    +0.000 A 
ATOM     17  C   UNL     1      -2.550  11.039  15.691  0.00  0.00    +0.000 A 
ATOM     18  C   UNL     1      -2.348  11.768  16.866  0.00  0.00    +0.000 A 
ENDBRANCH   6  13
BRANCH   1  21
ATOM     19  C   UNL     1       0.980   9.411  20.472  0.00  0.00    +0.000 C 
ATOM     20  C   UNL     1       0.855   9.914  19.055  0.00  0.00    +0.000 C 
ATOM     21  N   UNL     1       0.397  11.085  18.730  0.00  0.00    +0.000 NA
BRANCH  20  22
ATOM     22  C   UNL     1       1.302   8.990  17.928  0.00  0.00    +0.000 C 
BRANCH  22  23
ATOM     23  O   UNL     1       2.710   8.754  18.017  0.00  0.00    +0.000 OA
BRANCH  23  24
ATOM     24  C   UNL     1       3.098   7.449  17.840  0.00  0.00    +0.000 A 
ATOM     25  C   UNL     1       2.190   6.471  18.256  0.00  0.00    +0.000 A 
ATOM     26  C   UNL     1       2.491   5.113  18.116  0.00  0.00    +0.000 A 
ATOM     27  C   UNL     1       3.696   4.724  17.534  0.00  0.00    +0.000 A 
ATOM     28  C   UNL     1       4.595   5.691  17.091  0.00  0.00    +0.000 A 
ATOM     29  C   UNL     1       4.299   7.050  17.242  0.00  0.00    +0.000 A 
ENDBRANCH  23  24
ENDBRANCH  22  23
ENDBRANCH  20  22
ENDBRANCH   1  21
TORSDOF 6
ENDMDL
