MODEL 1
REMARK VINA RESULT:      -6.2      0.000      0.000
REMARK  Name = 
REMARK  4 active torsions:
REMARK  status: ('A' for Active; 'I' for Inactive)
REMARK    1  A    between atoms: C_1  and  C_2
REMARK    2  A    between atoms: C_7  and  C_8
REMARK    3  A    between atoms: C_10  and  C_11
REMARK    4  A    between atoms: C_11  and  N_12
REMARK                            x       y       z     vdW  Elec       q    Type
REMARK                         _______ _______ _______ _____ _____    ______ ____
ROOT
ATOM      1  C   UNL     1       5.576   3.859  15.653  0.00  0.00    +0.000 C 
ATOM      2  C   UNL     1       4.740   4.688  16.584  0.00  0.00    +0.000 A 
ATOM      3  C   UNL     1       5.085   6.005  16.886  0.00  0.00    +0.000 A 
ATOM      4  C   UNL     1       4.286   6.748  17.751  0.00  0.00    +0.000 A 
ATOM      5  C   UNL     1       3.157   6.165  18.337  0.00  0.00    +0.000 A 
ATOM      6 CL   UNL     1       2.210   7.162  19.394  0.00  0.00    +0.000 Cl
ATOM      7  C   UNL     1       2.791   4.828  18.085  0.00  0.00    +0.000 A 
ATOM      8  C   UNL     1       3.589   4.134  17.160  0.00  0.00    +0.000 A 
ATOM      9  F   UNL     1       3.254   2.881  16.809  0.00  0.00    +0.000 F 
ENDROOT
BRANCH   7  10
ATOM     10  C   UNL     1       1.615   4.179  18.791  0.00  0.00    +0.000 C 
ATOM     11  C   UNL     1       1.167   2.758  18.545  0.00  0.00    +0.000 C 
ATOM     12  C   UNL     1       1.950   3.078  19.792  0.00  0.00    +0.000 C 
BRANCH  12  13
ATOM     13  C   UNL     1       1.337   3.094  21.150  0.00  0.00    +0.000 C 
BRANCH  13  14
ATOM     14  N   UNL     1       2.393   2.928  22.135  0.00  0.00    +0.000 NA
ATOM     15  H   UNL     1       2.476   1.939  22.367  0.00  0.00    +0.000 HD
ATOM     16  H   UNL     1       2.118   3.395  22.997  0.00  0.00    +0.000 HD
ENDBRANCH  13  14
ENDBRANCH  12  13
ENDBRANCH   7  10
TORSDOF 3
ENDMDL
MODEL 2
REMARK VINA RESULT:      -6.1      3.091      5.114
REMARK  Name = 
REMARK  4 active torsions:
REMARK  status: ('A' for Active; 'I' for Inactive)
REMARK    1  A    between atoms: C_1  and  C_2
REMARK    2  A    between atoms: C_7  and  C_8
REMARK    3  A    between atoms: C_10  and  C_11
REMARK    4  A    between atoms: C_11  and  N_12
REMARK                            x       y       z     vdW  Elec       q    Type
REMARK                         _______ _______ _______ _____ _____    ______ ____
ROOT
ATOM      1  C   UNL     1       1.432   7.196  20.951  0.00  0.00    +0.000 C 
ATOM      2  C   UNL     1       1.928   6.025  20.153  0.00  0.00    +0.000 A 
ATOM      3  C   UNL     1       1.596   4.717  20.507  0.00  0.00    +0.000 A 
ATOM      4  C   UNL     1       2.070   3.654  19.743  0.00  0.00    +0.000 A 
ATOM      5  C   UNL     1       2.899   3.896  18.642  0.00  0.00    +0.000 A 
ATOM      6 CL   UNL     1       3.436   2.518  17.736  0.00  0.00    +0.000 Cl
ATOM      7  C   UNL     1       3.284   5.199  18.269  0.00  0.00    +0.000 A 
ATOM      8  C   UNL     1       2.735   6.246  19.029  0.00  0.00    +0.000 A 
ATOM      9  F   UNL     1       2.993   7.518  18.683  0.00  0.00    +0.000 F 
ENDROOT
BRANCH   7  10
ATOM     10  C   UNL     1       4.251   5.447  17.126  0.00  0.00    +0.000 C 
ATOM     11  C   UNL     1       5.200   6.620  17.067  0.00  0.00    +0.000 C 
ATOM     12  C   UNL     1       5.732   5.259  17.439  0.00  0.00    +0.000 C 
BRANCH  12  13
ATOM     13  C   UNL     1       6.590   4.449  16.529  0.00  0.00    +0.000 C 
BRANCH  13  14
ATOM     14  N   UNL     1       7.881   4.250  17.168  0.00  0.00    +0.000 NA
ATOM     15  H   UNL     1       7.775   4.380  18.173  0.00  0.00    +0.000 HD
ATOM     16  H   UNL     1       8.519   4.980  16.857  0.00  0.00    +0.000 HD
ENDBRANCH  13  14
ENDBRANCH  12  13
ENDBRANCH   7  10
TORSDOF 3
ENDMDL
MODEL 3
REMARK VINA RESULT:      -6.0      2.830      4.715
REMARK  Name = 
REMARK  4 active torsions:
REMARK  status: ('A' for Active; 'I' for Inactive)
REMARK    1  A    between atoms: C_1  and  C_2
REMARK    2  A    between atoms: C_7  and  C_8
REMARK    3  A    between atoms: C_10  and  C_11
REMARK    4  A    between atoms: C_11  and  N_12
REMARK                            x       y       z     vdW  Elec       q    Type
REMARK                         _______ _______ _______ _____ _____    ______ ____
ROOT
ATOM      1  C   UNL     1       2.861   2.790  21.006  0.00  0.00    +0.000 C 
ATOM      2  C   UNL     1       2.861   4.066  20.217  0.00  0.00    +0.000 A 
ATOM      3  C   UNL     1       2.126   5.175  20.636  0.00  0.00    +0.000 A 
ATOM      4  C   UNL     1       2.152   6.345  19.882  0.00  0.00    +0.000 A 
ATOM      5  C   UNL     1       2.888   6.398  18.694  0.00  0.00    +0.000 A 
ATOM      6 CL   UNL     1       2.877   7.897  17.821  0.00  0.00    +0.000 Cl
ATOM      7  C   UNL     1       3.618   5.292  18.218  0.00  0.00    +0.000 A 
ATOM      8  C   UNL     1       3.616   4.151  19.039  0.00  0.00    +0.000 A 
ATOM      9  F   UNL     1       4.354   3.085  18.689  0.00  0.00    +0.000 F 
ENDROOT
BRANCH   7  10
ATOM     10  C   UNL     1       4.345   5.330  16.886  0.00  0.00    +0.000 C 
ATOM     11  C   UNL     1       5.068   6.546  16.357  0.00  0.00    +0.000 C 
ATOM     12  C   UNL     1       5.866   5.412  16.947  0.00  0.00    +0.000 C 
BRANCH  12  13
ATOM     13  C   UNL     1       6.696   4.491  16.120  0.00  0.00    +0.000 C 
BRANCH  13  14
ATOM     14  N   UNL     1       7.534   5.290  15.240  0.00  0.00    +0.000 NA
ATOM     15  H   UNL     1       8.183   5.834  15.806  0.00  0.00    +0.000 HD
ATOM     16  H   UNL     1       6.949   5.968  14.754  0.00  0.00    +0.000 HD
ENDBRANCH  13  14
ENDBRANCH  12  13
ENDBRANCH   7  10
TORSDOF 3
ENDMDL
MODEL 4
REMARK VINA RESULT:      -5.9      1.165      1.275
REMARK  Name = 
REMARK  4 active torsions:
REMARK  status: ('A' for Active; 'I' for Inactive)
REMARK    1  A    between atoms: C_1  and  C_2
REMARK    2  A    between atoms: C_7  and  C_8
REMARK    3  A    between atoms: C_10  and  C_11
REMARK    4  A    between atoms: C_11  and  N_12
REMARK                            x       y       z     vdW  Elec       q    Type
REMARK                         _______ _______ _______ _____ _____    ______ ____
ROOT
ATOM      1  C   UNL     1       7.090   4.625  15.886  0.00  0.00    +0.000 C 
ATOM      2  C   UNL     1       5.831   5.152  16.511  0.00  0.00    +0.000 A 
ATOM      3  C   UNL     1       5.717   6.491  16.886  0.00  0.00    +0.000 A 
ATOM      4  C   UNL     1       4.533   6.949  17.460  0.00  0.00    +0.000 A 
ATOM      5  C   UNL     1       3.475   6.062  17.686  0.00  0.00    +0.000 A 
ATOM      6 CL   UNL     1       2.032   6.715  18.393  0.00  0.00    +0.000 Cl
ATOM      7  C   UNL     1       3.560   4.696  17.352  0.00  0.00    +0.000 A 
ATOM      8  C   UNL     1       4.748   4.289  16.719  0.00  0.00    +0.000 A 
ATOM      9  F   UNL     1       4.869   3.019  16.300  0.00  0.00    +0.000 F 
ENDROOT
BRANCH   7  10
ATOM     10  C   UNL     1       2.440   3.725  17.677  0.00  0.00    +0.000 C 
ATOM     11  C   UNL     1       2.666   2.303  18.132  0.00  0.00    +0.000 C 
ATOM     12  C   UNL     1       2.277   3.348  19.146  0.00  0.00    +0.000 C 
BRANCH  12  13
ATOM     13  C   UNL     1       0.930   3.396  19.783  0.00  0.00    +0.000 C 
BRANCH  13  14
ATOM     14  N   UNL     1       1.051   2.924  21.153  0.00  0.00    +0.000 NA
ATOM     15  H   UNL     1       1.641   2.094  21.165  0.00  0.00    +0.000 HD
ATOM     16  H   UNL     1       0.136   2.622  21.480  0.00  0.00    +0.000 HD
ENDBRANCH  13  14
ENDBRANCH  12  13
ENDBRANCH   7  10
TORSDOF 3
ENDMDL
MODEL 5
REMARK VINA RESULT:      -5.9      2.568      3.399
REMARK  Name = 
REMARK  4 active torsions:
REMARK  status: ('A' for Active; 'I' for Inactive)
REMARK    1  A    between atoms: C_1  and  C_2
REMARK    2  A    between atoms: C_7  and  C_8
REMARK    3  A    between atoms: C_10  and  C_11
REMARK    4  A    between atoms: C_11  and  N_12
REMARK                            x       y       z     vdW  Elec       q    Type
REMARK                         _______ _______ _______ _____ _____    ______ ____
ROOT
ATOM      1  C   UNL     1       2.162   9.207  17.931  0.00  0.00    +0.000 C 
ATOM      2  C   UNL     1       2.870   7.885  17.997  0.00  0.00    +0.000 A 
ATOM      3  C   UNL     1       3.889   7.566  17.100  0.00  0.00    +0.000 A 
ATOM      4  C   UNL     1       4.528   6.332  17.191  0.00  0.00    +0.000 A 
ATOM      5  C   UNL     1       4.128   5.405  18.160  0.00  0.00    +0.000 A 
ATOM      6 CL   UNL     1       4.982   3.897  18.213  0.00  0.00    +0.000 Cl
ATOM      7  C   UNL     1       3.082   5.674  19.064  0.00  0.00    +0.000 A 
ATOM      8  C   UNL     1       2.506   6.954  18.978  0.00  0.00    +0.000 A 
ATOM      9  F   UNL     1       1.558   7.310  19.860  0.00  0.00    +0.000 F 
ENDROOT
BRANCH   7  10
ATOM     10  C   UNL     1       2.599   4.632  20.056  0.00  0.00    +0.000 C 
ATOM     11  C   UNL     1       1.193   4.583  20.606  0.00  0.00    +0.000 C 
ATOM     12  C   UNL     1       1.597   3.609  19.529  0.00  0.00    +0.000 C 
BRANCH  12  13
ATOM     13  C   UNL     1       1.808   2.157  19.788  0.00  0.00    +0.000 C 
BRANCH  13  14
ATOM     14  N   UNL     1       2.150   1.509  18.532  0.00  0.00    +0.000 NA
ATOM     15  H   UNL     1       2.366   0.530  18.714  0.00  0.00    +0.000 HD
ATOM     16  H   UNL     1       3.008   1.923  18.171  0.00  0.00    +0.000 HD
ENDBRANCH  13  14
ENDBRANCH  12  13
ENDBRANCH   7  10
TORSDOF 3
ENDMDL
MODEL 6
REMARK VINA RESULT:      -5.9      1.076      1.118
REMARK  Name = 
REMARK  4 active torsions:
REMARK  status: ('A' for Active; 'I' for Inactive)
REMARK    1  A    between atoms: C_1  and  C_2
REMARK    2  A    between atoms: C_7  and  C_8
REMARK    3  A    between atoms: C_10  and  C_11
REMARK    4  A    between atoms: C_11  and  N_12
REMARK                            x       y       z     vdW  Elec       q    Type
REMARK                         _______ _______ _______ _____ _____    ______ ____
ROOT
ATOM      1  C   UNL     1       6.057   5.308  15.310  0.00  0.00    +0.000 C 
ATOM      2  C   UNL     1       5.010   5.498  16.369  0.00  0.00    +0.000 A 
ATOM      3  C   UNL     1       4.765   6.755  16.923  0.00  0.00    +0.000 A 
ATOM      4  C   UNL     1       3.784   6.897  17.901  0.00  0.00    +0.000 A 
ATOM      5  C   UNL     1       3.068   5.780  18.345  0.00  0.00    +0.000 A 
ATOM      6 CL   UNL     1       1.856   6.046  19.556  0.00  0.00    +0.000 Cl
ATOM      7  C   UNL     1       3.307   4.489  17.835  0.00  0.00    +0.000 A 
ATOM      8  C   UNL     1       4.262   4.398  16.807  0.00  0.00    +0.000 A 
ATOM      9  F   UNL     1       4.485   3.213  16.217  0.00  0.00    +0.000 F 
ENDROOT
BRANCH   7  10
ATOM     10  C   UNL     1       2.586   3.270  18.382  0.00  0.00    +0.000 C 
ATOM     11  C   UNL     1       3.262   1.950  18.663  0.00  0.00    +0.000 C 
ATOM     12  C   UNL     1       2.929   2.866  19.812  0.00  0.00    +0.000 C 
BRANCH  12  13
ATOM     13  C   UNL     1       1.840   2.579  20.787  0.00  0.00    +0.000 C 
BRANCH  13  14
ATOM     14  N   UNL     1       2.238   3.093  22.088  0.00  0.00    +0.000 NA
ATOM     15  H   UNL     1       2.408   4.095  22.008  0.00  0.00    +0.000 HD
ATOM     16  H   UNL     1       3.130   2.677  22.348  0.00  0.00    +0.000 HD
ENDBRANCH  13  14
ENDBRANCH  12  13
ENDBRANCH   7  10
TORSDOF 3
ENDMDL
MODEL 7
REMARK VINA RESULT:      -5.9      2.281      3.095
REMARK  Name = 
REMARK  4 active torsions:
REMARK  status: ('A' for Active; 'I' for Inactive)
REMARK    1  A    between atoms: C_1  and  C_2
REMARK    2  A    between atoms: C_7  and  C_8
REMARK    3  A    between atoms: C_10  and  C_11
REMARK    4  A    between atoms: C_11  and  N_12
REMARK                            x       y       z     vdW  Elec       q    Type
REMARK                         _______ _______ _______ _____ _____    ______ ____
ROOT
ATOM      1  C   UNL     1       2.583   8.198  18.261  0.00  0.00    +0.000 C 
ATOM      2  C   UNL     1       3.351   7.032  17.710  0.00  0.00    +0.000 A 
ATOM      3  C   UNL     1       4.557   7.216  17.034  0.00  0.00    +0.000 A 
ATOM      4  C   UNL     1       5.246   6.112  16.539  0.00  0.00    +0.000 A 
ATOM      5  C   UNL     1       4.716   4.827  16.694  0.00  0.00    +0.000 A 
ATOM      6 CL   UNL     1       5.642   3.506  16.058  0.00  0.00    +0.000 Cl
ATOM      7  C   UNL     1       3.485   4.600  17.341  0.00  0.00    +0.000 A 
ATOM      8  C   UNL     1       2.853   5.734  17.879  0.00  0.00    +0.000 A 
ATOM      9  F   UNL     1       1.716   5.585  18.579  0.00  0.00    +0.000 F 
ENDROOT
BRANCH   7  10
ATOM     10  C   UNL     1       2.876   3.213  17.429  0.00  0.00    +0.000 C 
ATOM     11  C   UNL     1       3.583   2.021  18.029  0.00  0.00    +0.000 C 
ATOM     12  C   UNL     1       2.513   2.721  18.826  0.00  0.00    +0.000 C 
BRANCH  12  13
ATOM     13  C   UNL     1       1.172   2.123  19.081  0.00  0.00    +0.000 C 
BRANCH  13  14
ATOM     14  N   UNL     1       0.486   2.934  20.073  0.00  0.00    +0.000 NA
ATOM     15  H   UNL     1      -0.076   3.636  19.594  0.00  0.00    +0.000 HD
ATOM     16  H   UNL     1       1.178   3.450  20.613  0.00  0.00    +0.000 HD
ENDBRANCH  13  14
ENDBRANCH  12  13
ENDBRANCH   7  10
TORSDOF 3
ENDMDL
MODEL 8
REMARK VINA RESULT:      -5.8      3.114      4.346
REMARK  Name = 
REMARK  4 active torsions:
REMARK  status: ('A' for Active; 'I' for Inactive)
REMARK    1  A    between atoms: C_1  and  C_2
REMARK    2  A    between atoms: C_7  and  C_8
REMARK    3  A    between atoms: C_10  and  C_11
REMARK    4  A    between atoms: C_11  and  N_12
REMARK                            x       y       z     vdW  Elec       q    Type
REMARK                         _______ _______ _______ _____ _____    ______ ____
ROOT
ATOM      1  C   UNL     1       0.549   9.739  20.424  0.00  0.00    +0.000 C 
ATOM      2  C   UNL     1       1.407   8.793  19.636  0.00  0.00    +0.000 A 
ATOM      3  C   UNL     1       1.878   9.132  18.367  0.00  0.00    +0.000 A 
ATOM      4  C   UNL     1       2.675   8.233  17.664  0.00  0.00    +0.000 A 
ATOM      5  C   UNL     1       2.977   6.983  18.216  0.00  0.00    +0.000 A 
ATOM      6 CL   UNL     1       3.984   5.927  17.280  0.00  0.00    +0.000 Cl
ATOM      7  C   UNL     1       2.495   6.588  19.479  0.00  0.00    +0.000 A 
ATOM      8  C   UNL     1       1.746   7.548  20.181  0.00  0.00    +0.000 A 
ATOM      9  F   UNL     1       1.321   7.272  21.425  0.00  0.00    +0.000 F 
ENDROOT
BRANCH   7  10
ATOM     10  C   UNL     1       2.756   5.200  20.033  0.00  0.00    +0.000 C 
ATOM     11  C   UNL     1       1.785   4.448  20.911  0.00  0.00    +0.000 C 
ATOM     12  C   UNL     1       1.908   4.070  19.457  0.00  0.00    +0.000 C 
BRANCH  12  13
ATOM     13  C   UNL     1       2.556   2.809  19.001  0.00  0.00    +0.000 C 
BRANCH  13  14
ATOM     14  N   UNL     1       1.515   1.848  18.673  0.00  0.00    +0.000 NA
ATOM     15  H   UNL     1       0.612   2.233  18.947  0.00  0.00    +0.000 HD
ATOM     16  H   UNL     1       1.647   1.012  19.239  0.00  0.00    +0.000 HD
ENDBRANCH  13  14
ENDBRANCH  12  13
ENDBRANCH   7  10
TORSDOF 3
ENDMDL
MODEL 9
REMARK VINA RESULT:      -5.8      3.316      4.927
REMARK  Name = 
REMARK  4 active torsions:
REMARK  status: ('A' for Active; 'I' for Inactive)
REMARK    1  A    between atoms: C_1  and  C_2
REMARK    2  A    between atoms: C_7  and  C_8
REMARK    3  A    between atoms: C_10  and  C_11
REMARK    4  A    between atoms: C_11  and  N_12
REMARK                            x       y       z     vdW  Elec       q    Type
REMARK                         _______ _______ _______ _____ _____    ______ ____
ROOT
ATOM      1  C   UNL     1       1.226  10.502  18.672  0.00  0.00    +0.000 C 
ATOM      2  C   UNL     1       1.496   9.125  19.205  0.00  0.00    +0.000 A 
ATOM      3  C   UNL     1       1.106   8.761  20.494  0.00  0.00    +0.000 A 
ATOM      4  C   UNL     1       1.369   7.474  20.957  0.00  0.00    +0.000 A 
ATOM      5  C   UNL     1       2.046   6.560  20.142  0.00  0.00    +0.000 A 
ATOM      6 CL   UNL     1       2.323   4.975  20.789  0.00  0.00    +0.000 Cl
ATOM      7  C   UNL     1       2.486   6.898  18.846  0.00  0.00    +0.000 A 
ATOM      8  C   UNL     1       2.147   8.185  18.396  0.00  0.00    +0.000 A 
ATOM      9  F   UNL     1       2.462   8.549  17.142  0.00  0.00    +0.000 F 
ENDROOT
BRANCH   7  10
ATOM     10  C   UNL     1       3.294   5.930  18.002  0.00  0.00    +0.000 C 
ATOM     11  C   UNL     1       4.460   6.340  17.135  0.00  0.00    +0.000 C 
ATOM     12  C   UNL     1       4.725   5.666  18.457  0.00  0.00    +0.000 C 
BRANCH  12  13
ATOM     13  C   UNL     1       5.228   4.268  18.566  0.00  0.00    +0.000 C 
BRANCH  13  14
ATOM     14  N   UNL     1       6.674   4.284  18.408  0.00  0.00    +0.000 NA
ATOM     15  H   UNL     1       6.917   3.807  17.542  0.00  0.00    +0.000 HD
ATOM     16  H   UNL     1       7.093   3.737  19.157  0.00  0.00    +0.000 HD
ENDBRANCH  13  14
ENDBRANCH  12  13
ENDBRANCH   7  10
TORSDOF 3
ENDMDL
