MODEL 1
REMARK VINA RESULT:      -9.0      0.000      0.000
REMARK  Name = 
REMARK  5 active torsions:
REMARK  status: ('A' for Active; 'I' for Inactive)
REMARK    1  A    between atoms: C_2  and  C_3
REMARK    2  A    between atoms: C_3  and  C_4
REMARK    3  A    between atoms: C_3  and  N_20
REMARK    4  A    between atoms: C_4  and  C_5
REMARK    5  A    between atoms: C_21  and  C_23
REMARK                            x       y       z     vdW  Elec       q    Type
REMARK                         _______ _______ _______ _____ _____    ______ ____
ROOT
ATOM      1  C   UNL     1       0.236   8.973  21.193  0.00  0.00    +0.000 C 
ENDROOT
BRANCH   1   2
ATOM      2  C   UNL     1       1.160   8.237  20.245  0.00  0.00    +0.000 A 
ATOM      3  C   UNL     1       1.616   8.866  19.088  0.00  0.00    +0.000 A 
ATOM      4  C   UNL     1       2.522   8.223  18.238  0.00  0.00    +0.000 A 
ATOM      5  C   UNL     1       3.003   6.917  18.500  0.00  0.00    +0.000 A 
ATOM      6  C   UNL     1       2.534   6.292  19.667  0.00  0.00    +0.000 A 
ATOM      7  C   UNL     1       2.988   5.005  19.945  0.00  0.00    +0.000 A 
ATOM      8  N   UNL     1       3.854   4.315  19.172  0.00  0.00    +0.000 NA
ATOM      9  C   UNL     1       4.315   4.907  18.065  0.00  0.00    +0.000 A 
ATOM     10  C   UNL     1       5.211   4.193  17.286  0.00  0.00    +0.000 A 
ATOM     11  C   UNL     1       5.743   4.735  16.126  0.00  0.00    +0.000 A 
ATOM     12  F   UNL     1       6.609   4.023  15.396  0.00  0.00    +0.000 F 
ATOM     13  C   UNL     1       5.393   6.010  15.713  0.00  0.00    +0.000 A 
ATOM     14  C   UNL     1       4.493   6.742  16.480  0.00  0.00    +0.000 A 
ATOM     15  C   UNL     1       3.932   6.213  17.669  0.00  0.00    +0.000 A 
ATOM     16  C   UNL     1       1.642   6.954  20.533  0.00  0.00    +0.000 A 
ENDBRANCH   1   2
BRANCH   1  17
ATOM     17  C   UNL     1      -0.082  10.450  20.883  0.00  0.00    +0.000 C 
BRANCH  17  18
ATOM     18  N   UNL     1      -1.182  10.599  19.931  0.00  0.00    +0.000 N 
ATOM     19  C   UNL     1      -1.055  11.479  18.869  0.00  0.00    +0.000 C 
ATOM     20  O   UNL     1      -0.006  12.069  18.633  0.00  0.00    +0.000 OA
ATOM     21  H   UNL     1      -2.120  10.315  20.199  0.00  0.00    +0.000 HD
BRANCH  19  22
ATOM     22  C   UNL     1      -2.324  11.613  18.006  0.00  0.00    +0.000 C 
ATOM     23  N   UNL     1      -1.960  11.928  16.585  0.00  0.00    +0.000 NA
ATOM     24  C   UNL     1      -2.565  10.811  15.807  0.00  0.00    +0.000 C 
ATOM     25  C   UNL     1      -4.092  10.980  15.802  0.00  0.00    +0.000 C 
ATOM     26  C   UNL     1      -4.478  10.610  17.243  0.00  0.00    +0.000 C 
ATOM     27  C   UNL     1      -3.113  10.299  17.883  0.00  0.00    +0.000 C 
ATOM     28  C   UNL     1      -2.380   9.618  16.732  0.00  0.00    +0.000 C 
ATOM     29  H   UNL     1      -0.947  11.844  16.478  0.00  0.00    +0.000 HD
ENDBRANCH  19  22
ENDBRANCH  17  18
BRANCH  17  31
ATOM     30  N   UNL     1      -0.467  11.839  23.096  0.00  0.00    +0.000 NA
ATOM     31  C   UNL     1      -0.301  11.248  22.111  0.00  0.00    +0.000 C 
ENDBRANCH  17  31
ENDBRANCH   1  17
TORSDOF 5
ENDMDL
MODEL 2
REMARK VINA RESULT:      -8.8      1.004      1.150
REMARK  Name = 
REMARK  5 active torsions:
REMARK  status: ('A' for Active; 'I' for Inactive)
REMARK    1  A    between atoms: C_2  and  C_3
REMARK    2  A    between atoms: C_3  and  C_4
REMARK    3  A    between atoms: C_3  and  N_20
REMARK    4  A    between atoms: C_4  and  C_5
REMARK    5  A    between atoms: C_21  and  C_23
REMARK                            x       y       z     vdW  Elec       q    Type
REMARK                         _______ _______ _______ _____ _____    ______ ____
ROOT
ATOM      1  C   UNL     1       0.739   7.705  20.993  0.00  0.00    +0.000 C 
ENDROOT
BRANCH   1   2
ATOM      2  C   UNL     1       1.656   7.167  19.914  0.00  0.00    +0.000 A 
ATOM      3  C   UNL     1       2.150   8.022  18.930  0.00  0.00    +0.000 A 
ATOM      4  C   UNL     1       3.049   7.554  17.967  0.00  0.00    +0.000 A 
ATOM      5  C   UNL     1       3.487   6.207  17.937  0.00  0.00    +0.000 A 
ATOM      6  C   UNL     1       2.981   5.355  18.932  0.00  0.00    +0.000 A 
ATOM      7  C   UNL     1       3.390   4.024  18.922  0.00  0.00    +0.000 A 
ATOM      8  N   UNL     1       4.249   3.493  18.024  0.00  0.00    +0.000 NA
ATOM      9  C   UNL     1       4.745   4.300  17.080  0.00  0.00    +0.000 A 
ATOM     10  C   UNL     1       5.632   3.747  16.171  0.00  0.00    +0.000 A 
ATOM     11  C   UNL     1       6.199   4.516  15.165  0.00  0.00    +0.000 A 
ATOM     12  F   UNL     1       7.056   3.955  14.303  0.00  0.00    +0.000 F 
ATOM     13  C   UNL     1       5.895   5.861  15.042  0.00  0.00    +0.000 A 
ATOM     14  C   UNL     1       5.005   6.434  15.943  0.00  0.00    +0.000 A 
ATOM     15  C   UNL     1       4.408   5.674  16.980  0.00  0.00    +0.000 A 
ATOM     16  C   UNL     1       2.095   5.837  19.915  0.00  0.00    +0.000 A 
ENDBRANCH   1   2
BRANCH   1  17
ATOM     17  C   UNL     1       0.498   9.228  21.037  0.00  0.00    +0.000 C 
BRANCH  17  18
ATOM     18  N   UNL     1      -0.675   9.634  20.263  0.00  0.00    +0.000 N 
ATOM     19  C   UNL     1      -0.568  10.662  19.344  0.00  0.00    +0.000 C 
ATOM     20  O   UNL     1       0.508  11.186  19.073  0.00  0.00    +0.000 OA
ATOM     21  H   UNL     1      -1.604   9.395  20.600  0.00  0.00    +0.000 HD
BRANCH  19  22
ATOM     22  C   UNL     1      -1.899  11.054  18.676  0.00  0.00    +0.000 C 
ATOM     23  N   UNL     1      -1.651  11.933  17.486  0.00  0.00    +0.000 NA
ATOM     24  C   UNL     1      -2.272  11.187  16.357  0.00  0.00    +0.000 C 
ATOM     25  C   UNL     1      -3.801  11.251  16.501  0.00  0.00    +0.000 C 
ATOM     26  C   UNL     1      -4.068  10.311  17.687  0.00  0.00    +0.000 C 
ATOM     27  C   UNL     1      -2.649   9.854  18.075  0.00  0.00    +0.000 C 
ATOM     28  C   UNL     1      -1.979   9.737  16.710  0.00  0.00    +0.000 C 
ATOM     29  H   UNL     1      -0.646  11.961  17.302  0.00  0.00    +0.000 HD
ENDBRANCH  19  22
ENDBRANCH  17  18
BRANCH  17  31
ATOM     30  N   UNL     1       0.383  10.163  23.504  0.00  0.00    +0.000 NA
ATOM     31  C   UNL     1       0.457   9.751  22.421  0.00  0.00    +0.000 C 
ENDBRANCH  17  31
ENDBRANCH   1  17
TORSDOF 5
ENDMDL
MODEL 3
REMARK VINA RESULT:      -8.5      3.964      8.608
REMARK  Name = 
REMARK  5 active torsions:
REMARK  status: ('A' for Active; 'I' for Inactive)
REMARK    1  A    between atoms: C_2  and  C_3
REMARK    2  A    between atoms: C_3  and  C_4
REMARK    3  A    between atoms: C_3  and  N_20
REMARK    4  A    between atoms: C_4  and  C_5
REMARK    5  A    between atoms: C_21  and  C_23
REMARK                            x       y       z     vdW  Elec       q    Type
REMARK                         _______ _______ _______ _____ _____    ______ ____
ROOT
ATOM      1  C   UNL     1       3.567   7.745  16.947  0.00  0.00    +0.000 C 
ENDROOT
BRANCH   1   2
ATOM      2  C   UNL     1       2.633   8.304  18.000  0.00  0.00    +0.000 A 
ATOM      3  C   UNL     1       2.474   7.639  19.215  0.00  0.00    +0.000 A 
ATOM      4  C   UNL     1       1.667   8.178  20.221  0.00  0.00    +0.000 A 
ATOM      5  C   UNL     1       0.972   9.401  20.055  0.00  0.00    +0.000 A 
ATOM      6  C   UNL     1       1.137  10.060  18.826  0.00  0.00    +0.000 A 
ATOM      7  C   UNL     1       0.459  11.262  18.634  0.00  0.00    +0.000 A 
ATOM      8  N   UNL     1      -0.343  11.844  19.551  0.00  0.00    +0.000 NA
ATOM      9  C   UNL     1      -0.497  11.229  20.729  0.00  0.00    +0.000 A 
ATOM     10  C   UNL     1      -1.315  11.840  21.665  0.00  0.00    +0.000 A 
ATOM     11  C   UNL     1      -1.522  11.274  22.913  0.00  0.00    +0.000 A 
ATOM     12  F   UNL     1      -2.314  11.889  23.799  0.00  0.00    +0.000 F 
ATOM     13  C   UNL     1      -0.916  10.078  23.261  0.00  0.00    +0.000 A 
ATOM     14  C   UNL     1      -0.093   9.447  22.334  0.00  0.00    +0.000 A 
ATOM     15  C   UNL     1       0.136  10.001  21.049  0.00  0.00    +0.000 A 
ATOM     16  C   UNL     1       1.972   9.526  17.824  0.00  0.00    +0.000 A 
ENDBRANCH   1   2
BRANCH   1  17
ATOM     17  C   UNL     1       4.375   6.480  17.303  0.00  0.00    +0.000 C 
BRANCH  17  18
ATOM     18  N   UNL     1       3.550   5.442  17.922  0.00  0.00    +0.000 N 
ATOM     19  C   UNL     1       4.106   4.595  18.864  0.00  0.00    +0.000 C 
ATOM     20  O   UNL     1       5.249   4.746  19.284  0.00  0.00    +0.000 OA
ATOM     21  H   UNL     1       2.695   5.142  17.462  0.00  0.00    +0.000 HD
BRANCH  19  22
ATOM     22  C   UNL     1       3.156   3.487  19.356  0.00  0.00    +0.000 C 
ATOM     23  N   UNL     1       3.502   3.084  20.759  0.00  0.00    +0.000 NA
ATOM     24  C   UNL     1       2.248   3.335  21.522  0.00  0.00    +0.000 C 
ATOM     25  C   UNL     1       1.205   2.279  21.123  0.00  0.00    +0.000 C 
ATOM     26  C   UNL     1       0.807   2.717  19.705  0.00  0.00    +0.000 C 
ATOM     27  C   UNL     1       1.695   3.954  19.477  0.00  0.00    +0.000 C 
ATOM     28  C   UNL     1       1.699   4.590  20.862  0.00  0.00    +0.000 C 
ATOM     29  H   UNL     1       4.203   3.732  21.124  0.00  0.00    +0.000 HD
ENDBRANCH  19  22
ENDBRANCH  17  18
BRANCH  17  31
ATOM     30  N   UNL     1       5.753   5.593  15.232  0.00  0.00    +0.000 NA
ATOM     31  C   UNL     1       5.144   5.961  16.150  0.00  0.00    +0.000 C 
ENDBRANCH  17  31
ENDBRANCH   1  17
TORSDOF 5
ENDMDL
MODEL 4
REMARK VINA RESULT:      -8.3      4.253      8.397
REMARK  Name = 
REMARK  5 active torsions:
REMARK  status: ('A' for Active; 'I' for Inactive)
REMARK    1  A    between atoms: C_2  and  C_3
REMARK    2  A    between atoms: C_3  and  C_4
REMARK    3  A    between atoms: C_3  and  N_20
REMARK    4  A    between atoms: C_4  and  C_5
REMARK    5  A    between atoms: C_21  and  C_23
REMARK                            x       y       z     vdW  Elec       q    Type
REMARK                         _______ _______ _______ _____ _____    ______ ____
ROOT
ATOM      1  C   UNL     1       3.162   8.037  16.984  0.00  0.00    +0.000 C 
ENDROOT
BRANCH   1   2
ATOM      2  C   UNL     1       2.339   8.763  18.027  0.00  0.00    +0.000 A 
ATOM      3  C   UNL     1       1.774  10.002  17.730  0.00  0.00    +0.000 A 
ATOM      4  C   UNL     1       0.957  10.653  18.660  0.00  0.00    +0.000 A 
ATOM      5  C   UNL     1       0.676  10.100  19.933  0.00  0.00    +0.000 A 
ATOM      6  C   UNL     1       1.252   8.852  20.221  0.00  0.00    +0.000 A 
ATOM      7  C   UNL     1       0.996   8.288  21.469  0.00  0.00    +0.000 A 
ATOM      8  N   UNL     1       0.226   8.855  22.422  0.00  0.00    +0.000 NA
ATOM      9  C   UNL     1      -0.337  10.038  22.152  0.00  0.00    +0.000 A 
ATOM     10  C   UNL     1      -1.133  10.605  23.133  0.00  0.00    +0.000 A 
ATOM     11  C   UNL     1      -1.760  11.825  22.931  0.00  0.00    +0.000 A 
ATOM     12  F   UNL     1      -2.526  12.347  23.896  0.00  0.00    +0.000 F 
ATOM     13  C   UNL     1      -1.607  12.513  21.739  0.00  0.00    +0.000 A 
ATOM     14  C   UNL     1      -0.810  11.963  20.742  0.00  0.00    +0.000 A 
ATOM     15  C   UNL     1      -0.155  10.718  20.921  0.00  0.00    +0.000 A 
ATOM     16  C   UNL     1       2.054   8.188  19.273  0.00  0.00    +0.000 A 
ENDBRANCH   1   2
BRANCH   1  17
ATOM     17  C   UNL     1       4.106   6.916  17.465  0.00  0.00    +0.000 C 
BRANCH  17  18
ATOM     18  N   UNL     1       3.382   5.769  18.012  0.00  0.00    +0.000 N 
ATOM     19  C   UNL     1       3.961   5.004  19.010  0.00  0.00    +0.000 C 
ATOM     20  O   UNL     1       5.027   5.313  19.533  0.00  0.00    +0.000 OA
ATOM     21  H   UNL     1       2.625   5.353  17.477  0.00  0.00    +0.000 HD
BRANCH  19  22
ATOM     22  C   UNL     1       3.136   3.770  19.420  0.00  0.00    +0.000 C 
ATOM     23  N   UNL     1       3.343   3.460  20.872  0.00  0.00    +0.000 NA
ATOM     24  C   UNL     1       1.972   3.524  21.450  0.00  0.00    +0.000 C 
ATOM     25  C   UNL     1       1.170   2.307  20.963  0.00  0.00    +0.000 C 
ATOM     26  C   UNL     1       0.910   2.642  19.486  0.00  0.00    +0.000 C 
ATOM     27  C   UNL     1       1.618   4.000  19.323  0.00  0.00    +0.000 C 
ATOM     28  C   UNL     1       1.331   4.660  20.667  0.00  0.00    +0.000 C 
ATOM     29  H   UNL     1       3.876   4.220  21.299  0.00  0.00    +0.000 HD
ENDBRANCH  19  22
ENDBRANCH  17  18
BRANCH  17  31
ATOM     30  N   UNL     1       5.870   6.216  15.629  0.00  0.00    +0.000 NA
ATOM     31  C   UNL     1       5.077   6.513  16.424  0.00  0.00    +0.000 C 
ENDBRANCH  17  31
ENDBRANCH   1  17
TORSDOF 5
ENDMDL
MODEL 5
REMARK VINA RESULT:      -8.2      1.014      1.046
REMARK  Name = 
REMARK  5 active torsions:
REMARK  status: ('A' for Active; 'I' for Inactive)
REMARK    1  A    between atoms: C_2  and  C_3
REMARK    2  A    between atoms: C_3  and  C_4
REMARK    3  A    between atoms: C_3  and  N_20
REMARK    4  A    between atoms: C_4  and  C_5
REMARK    5  A    between atoms: C_21  and  C_23
REMARK                            x       y       z     vdW  Elec       q    Type
REMARK                         _______ _______ _______ _____ _____    ______ ____
ROOT
ATOM      1  C   UNL     1       0.662  10.050  20.454  0.00  0.00    +0.000 C 
ENDROOT
BRANCH   1   2
ATOM      2  C   UNL     1       1.464   9.039  19.662  0.00  0.00    +0.000 A 
ATOM      3  C   UNL     1       2.028   9.400  18.440  0.00  0.00    +0.000 A 
ATOM      4  C   UNL     1       2.826   8.498  17.730  0.00  0.00    +0.000 A 
ATOM      5  C   UNL     1       3.088   7.189  18.204  0.00  0.00    +0.000 A 
ATOM      6  C   UNL     1       2.512   6.836  19.436  0.00  0.00    +0.000 A 
ATOM      7  C   UNL     1       2.749   5.552  19.921  0.00  0.00    +0.000 A 
ATOM      8  N   UNL     1       3.501   4.622  19.294  0.00  0.00    +0.000 NA
ATOM      9  C   UNL     1       4.063   4.954  18.127  0.00  0.00    +0.000 A 
ATOM     10  C   UNL     1       4.839   3.995  17.497  0.00  0.00    +0.000 A 
ATOM     11  C   UNL     1       5.464   4.259  16.288  0.00  0.00    +0.000 A 
ATOM     12  F   UNL     1       6.211   3.314  15.705  0.00  0.00    +0.000 F 
ATOM     13  C   UNL     1       5.328   5.493  15.673  0.00  0.00    +0.000 A 
ATOM     14  C   UNL     1       4.551   6.468  16.287  0.00  0.00    +0.000 A 
ATOM     15  C   UNL     1       3.899   6.226  17.523  0.00  0.00    +0.000 A 
ATOM     16  C   UNL     1       1.730   7.756  20.159  0.00  0.00    +0.000 A 
ENDBRANCH   1   2
BRANCH   1  17
ATOM     17  C   UNL     1       0.671  11.514  19.969  0.00  0.00    +0.000 C 
BRANCH  17  18
ATOM     18  N   UNL     1      -0.305  11.760  18.908  0.00  0.00    +0.000 N 
ATOM     19  C   UNL     1      -1.658  11.686  19.190  0.00  0.00    +0.000 C 
ATOM     20  O   UNL     1      -2.079  11.522  20.331  0.00  0.00    +0.000 OA
ATOM     21  H   UNL     1      -0.020  11.678  17.935  0.00  0.00    +0.000 HD
BRANCH  19  22
ATOM     22  C   UNL     1      -2.571  11.864  17.962  0.00  0.00    +0.000 C 
ATOM     23  N   UNL     1      -1.819  11.558  16.701  0.00  0.00    +0.000 NA
ATOM     24  C   UNL     1      -2.604  10.458  16.075  0.00  0.00    +0.000 C 
ATOM     25  C   UNL     1      -3.925  11.033  15.541  0.00  0.00    +0.000 C 
ATOM     26  C   UNL     1      -4.722  11.301  16.827  0.00  0.00    +0.000 C 
ATOM     27  C   UNL     1      -3.737  10.861  17.926  0.00  0.00    +0.000 C 
ATOM     28  C   UNL     1      -3.071   9.652  17.278  0.00  0.00    +0.000 C 
ATOM     29  H   UNL     1      -0.908  11.165  16.948  0.00  0.00    +0.000 HD
ENDBRANCH  19  22
ENDBRANCH  17  18
BRANCH  17  31
ATOM     30  N   UNL     1       0.386  13.243  21.944  0.00  0.00    +0.000 NA
ATOM     31  C   UNL     1       0.533  12.477  21.083  0.00  0.00    +0.000 C 
ENDBRANCH  17  31
ENDBRANCH   1  17
TORSDOF 5
ENDMDL
MODEL 6
REMARK VINA RESULT:      -8.2      1.866      2.693
REMARK  Name = 
REMARK  5 active torsions:
REMARK  status: ('A' for Active; 'I' for Inactive)
REMARK    1  A    between atoms: C_2  and  C_3
REMARK    2  A    between atoms: C_3  and  C_4
REMARK    3  A    between atoms: C_3  and  N_20
REMARK    4  A    between atoms: C_4  and  C_5
REMARK    5  A    between atoms: C_21  and  C_23
REMARK                            x       y       z     vdW  Elec       q    Type
REMARK                         _______ _______ _______ _____ _____    ______ ____
ROOT
ATOM      1  C   UNL     1       0.900  10.202  20.332  0.00  0.00    +0.000 C 
ENDROOT
BRANCH   1   2
ATOM      2  C   UNL     1       1.395   8.785  20.133  0.00  0.00    +0.000 A 
ATOM      3  C   UNL     1       1.076   7.798  21.065  0.00  0.00    +0.000 A 
ATOM      4  C   UNL     1       1.469   6.472  20.860  0.00  0.00    +0.000 A 
ATOM      5  C   UNL     1       2.210   6.074  19.720  0.00  0.00    +0.000 A 
ATOM      6  C   UNL     1       2.528   7.078  18.790  0.00  0.00    +0.000 A 
ATOM      7  C   UNL     1       3.262   6.714  17.663  0.00  0.00    +0.000 A 
ATOM      8  N   UNL     1       3.685   5.459  17.397  0.00  0.00    +0.000 NA
ATOM      9  C   UNL     1       3.376   4.495  18.271  0.00  0.00    +0.000 A 
ATOM     10  C   UNL     1       3.807   3.211  17.982  0.00  0.00    +0.000 A 
ATOM     11  C   UNL     1       3.524   2.152  18.831  0.00  0.00    +0.000 A 
ATOM     12  F   UNL     1       3.950   0.921  18.524  0.00  0.00    +0.000 F 
ATOM     13  C   UNL     1       2.799   2.349  19.995  0.00  0.00    +0.000 A 
ATOM     14  C   UNL     1       2.360   3.631  20.304  0.00  0.00    +0.000 A 
ATOM     15  C   UNL     1       2.636   4.733  19.457  0.00  0.00    +0.000 A 
ATOM     16  C   UNL     1       2.108   8.407  18.988  0.00  0.00    +0.000 A 
ENDBRANCH   1   2
BRANCH   1  17
ATOM     17  C   UNL     1       1.190  11.229  19.219  0.00  0.00    +0.000 C 
BRANCH  17  18
ATOM     18  N   UNL     1       0.025  11.481  18.370  0.00  0.00    +0.000 N 
ATOM     19  C   UNL     1      -1.203  11.744  18.952  0.00  0.00    +0.000 C 
ATOM     20  O   UNL     1      -1.335  11.879  20.164  0.00  0.00    +0.000 OA
ATOM     21  H   UNL     1       0.033  11.169  17.403  0.00  0.00    +0.000 HD
BRANCH  19  22
ATOM     22  C   UNL     1      -2.360  11.888  17.945  0.00  0.00    +0.000 C 
ATOM     23  N   UNL     1      -1.862  11.701  16.543  0.00  0.00    +0.000 NA
ATOM     24  C   UNL     1      -2.669  10.561  16.027  0.00  0.00    +0.000 C 
ATOM     25  C   UNL     1      -4.114  11.035  15.804  0.00  0.00    +0.000 C 
ATOM     26  C   UNL     1      -4.647  11.179  17.238  0.00  0.00    +0.000 C 
ATOM     27  C   UNL     1      -3.424  10.787  18.089  0.00  0.00    +0.000 C 
ATOM     28  C   UNL     1      -2.812   9.669  17.251  0.00  0.00    +0.000 C 
ATOM     29  H   UNL     1      -0.892  11.382  16.578  0.00  0.00    +0.000 HD
ENDBRANCH  19  22
ENDBRANCH  17  18
BRANCH  17  31
ATOM     30  N   UNL     1       2.199  13.468  20.189  0.00  0.00    +0.000 NA
ATOM     31  C   UNL     1       1.773  12.482  19.746  0.00  0.00    +0.000 C 
ENDBRANCH  17  31
ENDBRANCH   1  17
TORSDOF 5
ENDMDL
MODEL 7
REMARK VINA RESULT:      -8.0      1.073      1.397
REMARK  Name = 
REMARK  5 active torsions:
REMARK  status: ('A' for Active; 'I' for Inactive)
REMARK    1  A    between atoms: C_2  and  C_3
REMARK    2  A    between atoms: C_3  and  C_4
REMARK    3  A    between atoms: C_3  and  N_20
REMARK    4  A    between atoms: C_4  and  C_5
REMARK    5  A    between atoms: C_21  and  C_23
REMARK                            x       y       z     vdW  Elec       q    Type
REMARK                         _______ _______ _______ _____ _____    ______ ____
ROOT
ATOM      1  C   UNL     1       1.005   8.197  21.176  0.00  0.00    +0.000 C 
ENDROOT
BRANCH   1   2
ATOM      2  C   UNL     1       1.822   7.530  20.089  0.00  0.00    +0.000 A 
ATOM      3  C   UNL     1       2.303   8.282  19.018  0.00  0.00    +0.000 A 
ATOM      4  C   UNL     1       3.114   7.693  18.042  0.00  0.00    +0.000 A 
ATOM      5  C   UNL     1       3.471   6.323  18.086  0.00  0.00    +0.000 A 
ATOM      6  C   UNL     1       2.979   5.575  19.169  0.00  0.00    +0.000 A 
ATOM      7  C   UNL     1       3.310   4.224  19.232  0.00  0.00    +0.000 A 
ATOM      8  N   UNL     1       4.080   3.581  18.328  0.00  0.00    +0.000 NA
ATOM      9  C   UNL     1       4.564   4.288  17.301  0.00  0.00    +0.000 A 
ATOM     10  C   UNL     1       5.360   3.620  16.385  0.00  0.00    +0.000 A 
ATOM     11  C   UNL     1       5.907   4.280  15.296  0.00  0.00    +0.000 A 
ATOM     12  F   UNL     1       6.676   3.608  14.430  0.00  0.00    +0.000 F 
ATOM     13  C   UNL     1       5.673   5.629  15.092  0.00  0.00    +0.000 A 
ATOM     14  C   UNL     1       4.874   6.318  15.998  0.00  0.00    +0.000 A 
ATOM     15  C   UNL     1       4.300   5.669  17.119  0.00  0.00    +0.000 A 
ATOM     16  C   UNL     1       2.183   6.178  20.162  0.00  0.00    +0.000 A 
ENDBRANCH   1   2
BRANCH   1  17
ATOM     17  C   UNL     1       0.312   9.532  20.836  0.00  0.00    +0.000 C 
BRANCH  17  18
ATOM     18  N   UNL     1      -0.568   9.428  19.673  0.00  0.00    +0.000 N 
ATOM     19  C   UNL     1      -0.521  10.398  18.687  0.00  0.00    +0.000 C 
ATOM     20  O   UNL     1       0.313  11.299  18.698  0.00  0.00    +0.000 OA
ATOM     21  H   UNL     1      -1.402   8.848  19.726  0.00  0.00    +0.000 HD
BRANCH  19  22
ATOM     22  C   UNL     1      -1.571  10.220  17.574  0.00  0.00    +0.000 C 
ATOM     23  N   UNL     1      -2.779   9.506  18.103  0.00  0.00    +0.000 NA
ATOM     24  C   UNL     1      -3.896  10.457  17.846  0.00  0.00    +0.000 C 
ATOM     25  C   UNL     1      -4.173  10.502  16.335  0.00  0.00    +0.000 C 
ATOM     26  C   UNL     1      -2.962  11.278  15.792  0.00  0.00    +0.000 C 
ATOM     27  C   UNL     1      -2.145  11.554  17.068  0.00  0.00    +0.000 C 
ATOM     28  C   UNL     1      -3.247  11.811  18.090  0.00  0.00    +0.000 C 
ATOM     29  H   UNL     1      -2.694   9.421  19.117  0.00  0.00    +0.000 HD
ENDBRANCH  19  22
ENDBRANCH  17  18
BRANCH  17  31
ATOM     30  N   UNL     1      -0.929  10.616  22.900  0.00  0.00    +0.000 NA
ATOM     31  C   UNL     1      -0.381  10.119  22.004  0.00  0.00    +0.000 C 
ENDBRANCH  17  31
ENDBRANCH   1  17
TORSDOF 5
ENDMDL
MODEL 8
REMARK VINA RESULT:      -7.8      3.920      9.312
REMARK  Name = 
REMARK  5 active torsions:
REMARK  status: ('A' for Active; 'I' for Inactive)
REMARK    1  A    between atoms: C_2  and  C_3
REMARK    2  A    between atoms: C_3  and  C_4
REMARK    3  A    between atoms: C_3  and  N_20
REMARK    4  A    between atoms: C_4  and  C_5
REMARK    5  A    between atoms: C_21  and  C_23
REMARK                            x       y       z     vdW  Elec       q    Type
REMARK                         _______ _______ _______ _____ _____    ______ ____
ROOT
ATOM      1  C   UNL     1       1.581   9.358  17.982  0.00  0.00    +0.000 C 
ENDROOT
BRANCH   1   2
ATOM      2  C   UNL     1       0.185   9.940  18.075  0.00  0.00    +0.000 A 
ATOM      3  C   UNL     1      -0.808   9.512  17.195  0.00  0.00    +0.000 A 
ATOM      4  C   UNL     1      -2.116   9.991  17.312  0.00  0.00    +0.000 A 
ATOM      5  C   UNL     1      -2.490  10.927  18.307  0.00  0.00    +0.000 A 
ATOM      6  C   UNL     1      -1.480  11.352  19.187  0.00  0.00    +0.000 A 
ATOM      7  C   UNL     1      -1.819  12.278  20.170  0.00  0.00    +0.000 A 
ATOM      8  N   UNL     1      -3.056  12.792  20.344  0.00  0.00    +0.000 NA
ATOM      9  C   UNL     1      -4.026  12.385  19.519  0.00  0.00    +0.000 A 
ATOM     10  C   UNL     1      -5.292  12.912  19.713  0.00  0.00    +0.000 A 
ATOM     11  C   UNL     1      -6.356  12.537  18.907  0.00  0.00    +0.000 A 
ATOM     12  F   UNL     1      -7.569  13.060  19.122  0.00  0.00    +0.000 F 
ATOM     13  C   UNL     1      -6.183  11.621  17.883  0.00  0.00    +0.000 A 
ATOM     14  C   UNL     1      -4.919  11.082  17.669  0.00  0.00    +0.000 A 
ATOM     15  C   UNL     1      -3.812  11.448  18.476  0.00  0.00    +0.000 A 
ATOM     16  C   UNL     1      -0.169  10.848  19.081  0.00  0.00    +0.000 A 
ENDBRANCH   1   2
BRANCH   1  17
ATOM     17  C   UNL     1       1.853   8.023  18.705  0.00  0.00    +0.000 C 
BRANCH  17  18
ATOM     18  N   UNL     1       3.180   7.485  18.408  0.00  0.00    +0.000 N 
ATOM     19  C   UNL     1       3.328   6.135  18.142  0.00  0.00    +0.000 C 
ATOM     20  O   UNL     1       2.366   5.380  18.042  0.00  0.00    +0.000 OA
ATOM     21  H   UNL     1       4.007   8.004  18.691  0.00  0.00    +0.000 HD
BRANCH  19  22
ATOM     22  C   UNL     1       4.789   5.685  17.948  0.00  0.00    +0.000 C 
ATOM     23  N   UNL     1       4.842   4.371  17.227  0.00  0.00    +0.000 NA
ATOM     24  C   UNL     1       5.654   4.664  16.013  0.00  0.00    +0.000 C 
ATOM     25  C   UNL     1       7.118   4.870  16.432  0.00  0.00    +0.000 C 
ATOM     26  C   UNL     1       7.080   6.240  17.128  0.00  0.00    +0.000 C 
ATOM     27  C   UNL     1       5.591   6.622  17.030  0.00  0.00    +0.000 C 
ATOM     28  C   UNL     1       5.223   6.078  15.654  0.00  0.00    +0.000 C 
ATOM     29  H   UNL     1       3.903   4.136  16.902  0.00  0.00    +0.000 HD
ENDBRANCH  19  22
ENDBRANCH  17  18
BRANCH  17  31
ATOM     30  N   UNL     1       1.371   8.195  21.296  0.00  0.00    +0.000 NA
ATOM     31  C   UNL     1       1.604   8.112  20.161  0.00  0.00    +0.000 C 
ENDBRANCH  17  31
ENDBRANCH   1  17
TORSDOF 5
ENDMDL
MODEL 9
REMARK VINA RESULT:      -7.8      1.288      1.488
REMARK  Name = 
REMARK  5 active torsions:
REMARK  status: ('A' for Active; 'I' for Inactive)
REMARK    1  A    between atoms: C_2  and  C_3
REMARK    2  A    between atoms: C_3  and  C_4
REMARK    3  A    between atoms: C_3  and  N_20
REMARK    4  A    between atoms: C_4  and  C_5
REMARK    5  A    between atoms: C_21  and  C_23
REMARK                            x       y       z     vdW  Elec       q    Type
REMARK                         _______ _______ _______ _____ _____    ______ ____
ROOT
ATOM      1  C   UNL     1       0.351   9.890  20.257  0.00  0.00    +0.000 C 
ENDROOT
BRANCH   1   2
ATOM      2  C   UNL     1       1.273   8.940  19.521  0.00  0.00    +0.000 A 
ATOM      3  C   UNL     1       1.834   9.318  18.302  0.00  0.00    +0.000 A 
ATOM      4  C   UNL     1       2.739   8.480  17.644  0.00  0.00    +0.000 A 
ATOM      5  C   UNL     1       3.115   7.219  18.169  0.00  0.00    +0.000 A 
ATOM      6  C   UNL     1       2.542   6.847  19.396  0.00  0.00    +0.000 A 
ATOM      7  C   UNL     1       2.890   5.610  19.931  0.00  0.00    +0.000 A 
ATOM      8  N   UNL     1       3.749   4.741  19.355  0.00  0.00    +0.000 NA
ATOM      9  C   UNL     1       4.309   5.091  18.192  0.00  0.00    +0.000 A 
ATOM     10  C   UNL     1       5.196   4.196  17.616  0.00  0.00    +0.000 A 
ATOM     11  C   UNL     1       5.826   4.485  16.415  0.00  0.00    +0.000 A 
ATOM     12  F   UNL     1       6.681   3.602  15.885  0.00  0.00    +0.000 F 
ATOM     13  C   UNL     1       5.587   5.680  15.756  0.00  0.00    +0.000 A 
ATOM     14  C   UNL     1       4.699   6.590  16.317  0.00  0.00    +0.000 A 
ATOM     15  C   UNL     1       4.038   6.322  17.542  0.00  0.00    +0.000 A 
ATOM     16  C   UNL     1       1.650   7.707  20.067  0.00  0.00    +0.000 A 
ENDBRANCH   1   2
BRANCH   1  17
ATOM     17  C   UNL     1       0.282  11.350  19.765  0.00  0.00    +0.000 C 
BRANCH  17  18
ATOM     18  N   UNL     1      -1.089  11.797  19.525  0.00  0.00    +0.000 N 
ATOM     19  C   UNL     1      -1.723  11.461  18.341  0.00  0.00    +0.000 C 
ATOM     20  O   UNL     1      -1.212  10.707  17.519  0.00  0.00    +0.000 OA
ATOM     21  H   UNL     1      -1.460  12.583  20.052  0.00  0.00    +0.000 HD
BRANCH  19  22
ATOM     22  C   UNL     1      -3.122  12.083  18.174  0.00  0.00    +0.000 C 
ATOM     23  N   UNL     1      -3.592  11.943  16.757  0.00  0.00    +0.000 NA
ATOM     24  C   UNL     1      -4.866  11.181  16.877  0.00  0.00    +0.000 C 
ATOM     25  C   UNL     1      -5.936  12.097  17.492  0.00  0.00    +0.000 C 
ATOM     26  C   UNL     1      -5.489  12.204  18.958  0.00  0.00    +0.000 C 
ATOM     27  C   UNL     1      -4.208  11.348  18.978  0.00  0.00    +0.000 C 
ATOM     28  C   UNL     1      -4.576  10.220  18.020  0.00  0.00    +0.000 C 
ATOM     29  H   UNL     1      -2.939  11.343  16.251  0.00  0.00    +0.000 HD
ENDBRANCH  19  22
ENDBRANCH  17  18
BRANCH  17  31
ATOM     30  N   UNL     1       1.617  12.972  21.366  0.00  0.00    +0.000 NA
ATOM     31  C   UNL     1       1.020  12.277  20.652  0.00  0.00    +0.000 C 
ENDBRANCH  17  31
ENDBRANCH   1  17
TORSDOF 5
ENDMDL
