MODEL 1
REMARK VINA RESULT:      -6.7      0.000      0.000
REMARK  Name = 
REMARK  7 active torsions:
REMARK  status: ('A' for Active; 'I' for Inactive)
REMARK    1  A    between atoms: C_1  and  C_2
REMARK    2  A    between atoms: C_2  and  N_3
REMARK    3  A    between atoms: N_3  and  C_4
REMARK    4  A    between atoms: C_4  and  C_5
REMARK    5  A    between atoms: C_17  and  C_19
REMARK    6  A    between atoms: N_22  and  C_23
REMARK    7  A    between atoms: C_24  and  C_25
REMARK                            x       y       z     vdW  Elec       q    Type
REMARK                         _______ _______ _______ _____ _____    ______ ____
ROOT
ATOM      1  C   UNL     1       1.422  10.870  19.682  0.00  0.00    +0.000 C 
ENDROOT
BRANCH   1   2
ATOM      2  C   UNL     1       1.010   9.497  19.098  0.00  0.00    +0.000 C 
ATOM      3  C   UNL     1       1.076   8.360  20.116  0.00  0.00    +0.000 C 
ATOM      4  C   UNL     1       2.263   7.433  20.041  0.00  0.00    +0.000 C 
ATOM      5  N   UNL     1       2.653   7.108  18.692  0.00  0.00    +0.000 N 
ATOM      6  C   UNL     1       2.661   5.771  18.332  0.00  0.00    +0.000 A 
ATOM      7  C   UNL     1       3.726   5.256  17.591  0.00  0.00    +0.000 A 
ATOM      8  C   UNL     1       3.688   3.936  17.154  0.00  0.00    +0.000 A 
ATOM      9  C   UNL     1       2.579   3.162  17.459  0.00  0.00    +0.000 A 
ATOM     10  C   UNL     1       1.576   3.735  18.218  0.00  0.00    +0.000 A 
ATOM     11  N   UNL     1       1.601   5.008  18.667  0.00  0.00    +0.000 NA
ATOM     12  C   UNL     1       2.634   8.060  17.601  0.00  0.00    +0.000 C 
ATOM     13  C   UNL     1       1.635   9.200  17.736  0.00  0.00    +0.000 C 
ENDBRANCH   1   2
BRANCH   1  14
ATOM     14  N   UNL     1       0.239  11.697  19.982  0.00  0.00    +0.000 N 
ATOM     15  C   UNL     1       0.351  12.614  21.046  0.00  0.00    +0.000 C 
ATOM     16  O   UNL     1       1.457  13.011  21.429  0.00  0.00    +0.000 OA
BRANCH  15  17
ATOM     17  C   UNL     1      -0.840  12.944  21.820  0.00  0.00    +0.000 A 
ATOM     18  C   UNL     1      -1.614  14.123  21.868  0.00  0.00    +0.000 A 
ATOM     19  N   UNL     1      -2.715  14.001  22.608  0.00  0.00    +0.000 NA
ATOM     20  N   UNL     1      -2.622  12.762  23.116  0.00  0.00    +0.000 N 
ATOM     21  C   UNL     1      -3.661  12.304  24.009  0.00  0.00    +0.000 C 
ATOM     22  C   UNL     1      -1.500  12.088  22.709  0.00  0.00    +0.000 A 
ATOM     23  C   UNL     1      -1.159  10.712  23.169  0.00  0.00    +0.000 C 
ENDBRANCH  15  17
BRANCH  14  25
ATOM     24  C   UNL     1      -1.454  12.115  18.136  0.00  0.00    +0.000 C 
ATOM     25  C   UNL     1      -1.015  11.293  19.344  0.00  0.00    +0.000 C 
ENDBRANCH  14  25
ENDBRANCH   1  14
TORSDOF 4
ENDMDL
MODEL 2
REMARK VINA RESULT:      -6.6      0.783      1.399
REMARK  Name = 
REMARK  7 active torsions:
REMARK  status: ('A' for Active; 'I' for Inactive)
REMARK    1  A    between atoms: C_1  and  C_2
REMARK    2  A    between atoms: C_2  and  N_3
REMARK    3  A    between atoms: N_3  and  C_4
REMARK    4  A    between atoms: C_4  and  C_5
REMARK    5  A    between atoms: C_17  and  C_19
REMARK    6  A    between atoms: N_22  and  C_23
REMARK    7  A    between atoms: C_24  and  C_25
REMARK                            x       y       z     vdW  Elec       q    Type
REMARK                         _______ _______ _______ _____ _____    ______ ____
ROOT
ATOM      1  C   UNL     1       1.046  10.860  19.882  0.00  0.00    +0.000 C 
ENDROOT
BRANCH   1   2
ATOM      2  C   UNL     1       0.813   9.504  19.174  0.00  0.00    +0.000 C 
ATOM      3  C   UNL     1       0.919   8.303  20.113  0.00  0.00    +0.000 C 
ATOM      4  C   UNL     1       2.194   7.499  20.063  0.00  0.00    +0.000 C 
ATOM      5  N   UNL     1       2.706   7.316  18.727  0.00  0.00    +0.000 N 
ATOM      6  C   UNL     1       2.870   6.017  18.277  0.00  0.00    +0.000 A 
ATOM      7  C   UNL     1       4.029   5.662  17.585  0.00  0.00    +0.000 A 
ATOM      8  C   UNL     1       4.151   4.381  17.055  0.00  0.00    +0.000 A 
ATOM      9  C   UNL     1       3.104   3.486  17.220  0.00  0.00    +0.000 A 
ATOM     10  C   UNL     1       2.000   3.904  17.939  0.00  0.00    +0.000 A 
ATOM     11  N   UNL     1       1.869   5.135  18.476  0.00  0.00    +0.000 NA
ATOM     12  C   UNL     1       2.668   8.343  17.707  0.00  0.00    +0.000 C 
ATOM     13  C   UNL     1       1.556   9.372  17.846  0.00  0.00    +0.000 C 
ENDBRANCH   1   2
BRANCH   1  14
ATOM     14  N   UNL     1      -0.232  11.533  20.179  0.00  0.00    +0.000 N 
ATOM     15  C   UNL     1      -0.287  12.320  21.347  0.00  0.00    +0.000 C 
ATOM     16  O   UNL     1       0.745  12.765  21.861  0.00  0.00    +0.000 OA
BRANCH  15  17
ATOM     17  C   UNL     1      -1.555  12.442  22.055  0.00  0.00    +0.000 A 
ATOM     18  C   UNL     1      -2.136  11.634  23.056  0.00  0.00    +0.000 A 
ATOM     19  N   UNL     1      -3.261  12.142  23.556  0.00  0.00    +0.000 NA
ATOM     20  N   UNL     1      -3.465  13.249  22.824  0.00  0.00    +0.000 N 
ATOM     21  C   UNL     1      -4.641  14.043  23.089  0.00  0.00    +0.000 C 
ATOM     22  C   UNL     1      -2.493  13.465  21.880  0.00  0.00    +0.000 A 
ATOM     23  C   UNL     1      -2.520  14.608  20.924  0.00  0.00    +0.000 C 
ENDBRANCH  15  17
BRANCH  14  25
ATOM     24  C   UNL     1      -1.816  12.010  18.253  0.00  0.00    +0.000 C 
ATOM     25  C   UNL     1      -1.391  11.097  19.399  0.00  0.00    +0.000 C 
ENDBRANCH  14  25
ENDBRANCH   1  14
TORSDOF 4
ENDMDL
MODEL 3
REMARK VINA RESULT:      -6.6      1.190      1.252
REMARK  Name = 
REMARK  7 active torsions:
REMARK  status: ('A' for Active; 'I' for Inactive)
REMARK    1  A    between atoms: C_1  and  C_2
REMARK    2  A    between atoms: C_2  and  N_3
REMARK    3  A    between atoms: N_3  and  C_4
REMARK    4  A    between atoms: C_4  and  C_5
REMARK    5  A    between atoms: C_17  and  C_19
REMARK    6  A    between atoms: N_22  and  C_23
REMARK    7  A    between atoms: C_24  and  C_25
REMARK                            x       y       z     vdW  Elec       q    Type
REMARK                         _______ _______ _______ _____ _____    ______ ____
ROOT
ATOM      1  C   UNL     1       1.479  10.731  19.273  0.00  0.00    +0.000 C 
ENDROOT
BRANCH   1   2
ATOM      2  C   UNL     1       0.997   9.265  19.150  0.00  0.00    +0.000 C 
ATOM      3  C   UNL     1       0.793   8.578  20.500  0.00  0.00    +0.000 C 
ATOM      4  C   UNL     1       1.867   7.623  20.957  0.00  0.00    +0.000 C 
ATOM      5  N   UNL     1       2.398   6.805  19.895  0.00  0.00    +0.000 N 
ATOM      6  C   UNL     1       2.302   5.430  20.038  0.00  0.00    +0.000 A 
ATOM      7  C   UNL     1       3.393   4.620  19.717  0.00  0.00    +0.000 A 
ATOM      8  C   UNL     1       3.265   3.237  19.774  0.00  0.00    +0.000 A 
ATOM      9  C   UNL     1       2.044   2.692  20.141  0.00  0.00    +0.000 A 
ATOM     10  C   UNL     1       1.018   3.559  20.468  0.00  0.00    +0.000 A 
ATOM     11  N   UNL     1       1.127   4.904  20.437  0.00  0.00    +0.000 NA
ATOM     12  C   UNL     1       2.636   7.290  18.552  0.00  0.00    +0.000 C 
ATOM     13  C   UNL     1       1.764   8.455  18.106  0.00  0.00    +0.000 C 
ENDBRANCH   1   2
BRANCH   1  14
ATOM     14  N   UNL     1       0.366  11.629  19.633  0.00  0.00    +0.000 N 
ATOM     15  C   UNL     1       0.531  12.426  20.783  0.00  0.00    +0.000 C 
ATOM     16  O   UNL     1       1.658  12.683  21.220  0.00  0.00    +0.000 OA
BRANCH  15  17
ATOM     17  C   UNL     1      -0.645  12.786  21.566  0.00  0.00    +0.000 A 
ATOM     18  C   UNL     1      -1.435  13.955  21.561  0.00  0.00    +0.000 A 
ATOM     19  N   UNL     1      -2.515  13.864  22.336  0.00  0.00    +0.000 NA
ATOM     20  N   UNL     1      -2.391  12.659  22.915  0.00  0.00    +0.000 N 
ATOM     21  C   UNL     1      -3.401  12.242  23.860  0.00  0.00    +0.000 C 
ATOM     22  C   UNL     1      -1.269  11.976  22.521  0.00  0.00    +0.000 A 
ATOM     23  C   UNL     1      -0.896  10.636  23.055  0.00  0.00    +0.000 C 
ENDBRANCH  15  17
BRANCH  14  25
ATOM     24  C   UNL     1      -1.285  12.431  17.878  0.00  0.00    +0.000 C 
ATOM     25  C   UNL     1      -0.902  11.402  18.938  0.00  0.00    +0.000 C 
ENDBRANCH  14  25
ENDBRANCH   1  14
TORSDOF 4
ENDMDL
MODEL 4
REMARK VINA RESULT:      -6.4      3.362      9.468
REMARK  Name = 
REMARK  7 active torsions:
REMARK  status: ('A' for Active; 'I' for Inactive)
REMARK    1  A    between atoms: C_1  and  C_2
REMARK    2  A    between atoms: C_2  and  N_3
REMARK    3  A    between atoms: N_3  and  C_4
REMARK    4  A    between atoms: C_4  and  C_5
REMARK    5  A    between atoms: C_17  and  C_19
REMARK    6  A    between atoms: N_22  and  C_23
REMARK    7  A    between atoms: C_24  and  C_25
REMARK                            x       y       z     vdW  Elec       q    Type
REMARK                         _______ _______ _______ _____ _____    ______ ____
ROOT
ATOM      1  C   UNL     1       3.489   4.945  19.773  0.00  0.00    +0.000 C 
ENDROOT
BRANCH   1   2
ATOM      2  C   UNL     1       2.204   5.732  19.420  0.00  0.00    +0.000 C 
ATOM      3  C   UNL     1       2.390   6.713  18.264  0.00  0.00    +0.000 C 
ATOM      4  C   UNL     1       2.543   8.172  18.614  0.00  0.00    +0.000 C 
ATOM      5  N   UNL     1       1.676   8.599  19.684  0.00  0.00    +0.000 N 
ATOM      6  C   UNL     1       0.791   9.631  19.417  0.00  0.00    +0.000 A 
ATOM      7  C   UNL     1       0.619  10.658  20.347  0.00  0.00    +0.000 A 
ATOM      8  C   UNL     1      -0.336  11.643  20.117  0.00  0.00    +0.000 A 
ATOM      9  C   UNL     1      -1.106  11.573  18.966  0.00  0.00    +0.000 A 
ATOM     10  C   UNL     1      -0.860  10.540  18.081  0.00  0.00    +0.000 A 
ATOM     11  N   UNL     1       0.074   9.585  18.276  0.00  0.00    +0.000 NA
ATOM     12  C   UNL     1       1.375   7.788  20.845  0.00  0.00    +0.000 C 
ATOM     13  C   UNL     1       1.469   6.283  20.641  0.00  0.00    +0.000 C 
ENDBRANCH   1   2
BRANCH   1  14
ATOM     14  N   UNL     1       4.010   4.222  18.598  0.00  0.00    +0.000 N 
ATOM     15  C   UNL     1       5.394   4.315  18.349  0.00  0.00    +0.000 C 
ATOM     16  O   UNL     1       6.183   4.613  19.252  0.00  0.00    +0.000 OA
BRANCH  15  17
ATOM     17  C   UNL     1       5.868   4.247  16.972  0.00  0.00    +0.000 A 
ATOM     18  C   UNL     1       5.667   3.271  15.973  0.00  0.00    +0.000 A 
ATOM     19  N   UNL     1       6.158   3.623  14.786  0.00  0.00    +0.000 NA
ATOM     20  N   UNL     1       6.757   4.801  15.025  0.00  0.00    +0.000 N 
ATOM     21  C   UNL     1       7.432   5.464  13.934  0.00  0.00    +0.000 C 
ATOM     22  C   UNL     1       6.649   5.213  16.328  0.00  0.00    +0.000 A 
ATOM     23  C   UNL     1       7.263   6.470  16.843  0.00  0.00    +0.000 C 
ENDBRANCH  15  17
BRANCH  14  25
ATOM     24  C   UNL     1       2.550   2.280  17.860  0.00  0.00    +0.000 C 
ATOM     25  C   UNL     1       3.013   3.719  17.652  0.00  0.00    +0.000 C 
ENDBRANCH  14  25
ENDBRANCH   1  14
TORSDOF 4
ENDMDL
MODEL 5
REMARK VINA RESULT:      -6.4      1.326      1.785
REMARK  Name = 
REMARK  7 active torsions:
REMARK  status: ('A' for Active; 'I' for Inactive)
REMARK    1  A    between atoms: C_1  and  C_2
REMARK    2  A    between atoms: C_2  and  N_3
REMARK    3  A    between atoms: N_3  and  C_4
REMARK    4  A    between atoms: C_4  and  C_5
REMARK    5  A    between atoms: C_17  and  C_19
REMARK    6  A    between atoms: N_22  and  C_23
REMARK    7  A    between atoms: C_24  and  C_25
REMARK                            x       y       z     vdW  Elec       q    Type
REMARK                         _______ _______ _______ _____ _____    ______ ____
ROOT
ATOM      1  C   UNL     1       0.981  10.926  19.461  0.00  0.00    +0.000 C 
ENDROOT
BRANCH   1   2
ATOM      2  C   UNL     1       0.652   9.425  19.280  0.00  0.00    +0.000 C 
ATOM      3  C   UNL     1       0.505   8.672  20.602  0.00  0.00    +0.000 C 
ATOM      4  C   UNL     1       1.665   7.814  21.041  0.00  0.00    +0.000 C 
ATOM      5  N   UNL     1       2.286   7.092  19.958  0.00  0.00    +0.000 N 
ATOM      6  C   UNL     1       2.329   5.711  20.051  0.00  0.00    +0.000 A 
ATOM      7  C   UNL     1       3.499   5.027  19.717  0.00  0.00    +0.000 A 
ATOM      8  C   UNL     1       3.511   3.637  19.724  0.00  0.00    +0.000 A 
ATOM      9  C   UNL     1       2.348   2.959  20.055  0.00  0.00    +0.000 A 
ATOM     10  C   UNL     1       1.236   3.706  20.399  0.00  0.00    +0.000 A 
ATOM     11  N   UNL     1       1.209   5.055  20.416  0.00  0.00    +0.000 NA
ATOM     12  C   UNL     1       2.487   7.647  18.636  0.00  0.00    +0.000 C 
ATOM     13  C   UNL     1       1.507   8.734  18.220  0.00  0.00    +0.000 C 
ENDBRANCH   1   2
BRANCH   1  14
ATOM     14  N   UNL     1      -0.205  11.683  19.902  0.00  0.00    +0.000 N 
ATOM     15  C   UNL     1      -0.096  12.398  21.111  0.00  0.00    +0.000 C 
ATOM     16  O   UNL     1       1.008  12.726  21.557  0.00  0.00    +0.000 OA
BRANCH  15  17
ATOM     17  C   UNL     1      -1.288  12.581  21.931  0.00  0.00    +0.000 A 
ATOM     18  C   UNL     1      -1.835  11.782  22.957  0.00  0.00    +0.000 A 
ATOM     19  N   UNL     1      -2.875  12.347  23.568  0.00  0.00    +0.000 NA
ATOM     20  N   UNL     1      -3.064  13.488  22.886  0.00  0.00    +0.000 N 
ATOM     21  C   UNL     1      -4.156  14.349  23.274  0.00  0.00    +0.000 C 
ATOM     22  C   UNL     1      -2.165  13.670  21.866  0.00  0.00    +0.000 A 
ATOM     23  C   UNL     1      -2.196  14.842  20.947  0.00  0.00    +0.000 C 
ENDBRANCH  15  17
BRANCH  14  25
ATOM     24  C   UNL     1      -1.637  12.048  17.837  0.00  0.00    +0.000 C 
ATOM     25  C   UNL     1      -1.458  11.391  19.202  0.00  0.00    +0.000 C 
ENDBRANCH  14  25
ENDBRANCH   1  14
TORSDOF 4
ENDMDL
MODEL 6
REMARK VINA RESULT:      -6.4      2.786      8.863
REMARK  Name = 
REMARK  7 active torsions:
REMARK  status: ('A' for Active; 'I' for Inactive)
REMARK    1  A    between atoms: C_1  and  C_2
REMARK    2  A    between atoms: C_2  and  N_3
REMARK    3  A    between atoms: N_3  and  C_4
REMARK    4  A    between atoms: C_4  and  C_5
REMARK    5  A    between atoms: C_17  and  C_19
REMARK    6  A    between atoms: N_22  and  C_23
REMARK    7  A    between atoms: C_24  and  C_25
REMARK                            x       y       z     vdW  Elec       q    Type
REMARK                         _______ _______ _______ _____ _____    ______ ____
ROOT
ATOM      1  C   UNL     1       1.991   6.037  20.069  0.00  0.00    +0.000 C 
ENDROOT
BRANCH   1   2
ATOM      2  C   UNL     1       2.250   7.562  20.074  0.00  0.00    +0.000 C 
ATOM      3  C   UNL     1       1.513   8.300  21.191  0.00  0.00    +0.000 C 
ATOM      4  C   UNL     1       0.264   9.056  20.812  0.00  0.00    +0.000 C 
ATOM      5  N   UNL     1       0.371   9.745  19.550  0.00  0.00    +0.000 N 
ATOM      6  C   UNL     1       0.178  11.116  19.551  0.00  0.00    +0.000 A 
ATOM      7  C   UNL     1      -0.599  11.711  18.556  0.00  0.00    +0.000 A 
ATOM      8  C   UNL     1      -0.716  13.096  18.507  0.00  0.00    +0.000 A 
ATOM      9  C   UNL     1      -0.043  13.858  19.450  0.00  0.00    +0.000 A 
ATOM     10  C   UNL     1       0.687  13.196  20.419  0.00  0.00    +0.000 A 
ATOM     11  N   UNL     1       0.799  11.853  20.495  0.00  0.00    +0.000 NA
ATOM     12  C   UNL     1       1.050   9.199  18.394  0.00  0.00    +0.000 C 
ATOM     13  C   UNL     1       2.161   8.202  18.689  0.00  0.00    +0.000 C 
ENDBRANCH   1   2
BRANCH   1  14
ATOM     14  N   UNL     1       2.608   5.395  18.894  0.00  0.00    +0.000 N 
ATOM     15  C   UNL     1       4.003   5.526  18.749  0.00  0.00    +0.000 C 
ATOM     16  O   UNL     1       4.721   5.782  19.721  0.00  0.00    +0.000 OA
BRANCH  15  17
ATOM     17  C   UNL     1       4.573   5.549  17.407  0.00  0.00    +0.000 A 
ATOM     18  C   UNL     1       4.936   6.631  16.576  0.00  0.00    +0.000 A 
ATOM     19  N   UNL     1       5.550   6.252  15.456  0.00  0.00    +0.000 NA
ATOM     20  N   UNL     1       5.516   4.911  15.512  0.00  0.00    +0.000 N 
ATOM     21  C   UNL     1       6.083   4.162  14.415  0.00  0.00    +0.000 C 
ATOM     22  C   UNL     1       4.910   4.427  16.643  0.00  0.00    +0.000 A 
ATOM     23  C   UNL     1       4.721   2.973  16.912  0.00  0.00    +0.000 C 
ENDBRANCH  15  17
BRANCH  14  25
ATOM     24  C   UNL     1       1.213   3.488  17.963  0.00  0.00    +0.000 C 
ATOM     25  C   UNL     1       1.690   4.933  17.851  0.00  0.00    +0.000 C 
ENDBRANCH  14  25
ENDBRANCH   1  14
TORSDOF 4
ENDMDL
MODEL 7
REMARK VINA RESULT:      -6.3      3.351      5.567
REMARK  Name = 
REMARK  7 active torsions:
REMARK  status: ('A' for Active; 'I' for Inactive)
REMARK    1  A    between atoms: C_1  and  C_2
REMARK    2  A    between atoms: C_2  and  N_3
REMARK    3  A    between atoms: N_3  and  C_4
REMARK    4  A    between atoms: C_4  and  C_5
REMARK    5  A    between atoms: C_17  and  C_19
REMARK    6  A    between atoms: N_22  and  C_23
REMARK    7  A    between atoms: C_24  and  C_25
REMARK                            x       y       z     vdW  Elec       q    Type
REMARK                         _______ _______ _______ _____ _____    ______ ____
ROOT
ATOM      1  C   UNL     1       3.598   5.891  19.148  0.00  0.00    +0.000 C 
ENDROOT
BRANCH   1   2
ATOM      2  C   UNL     1       3.573   5.644  17.621  0.00  0.00    +0.000 C 
ATOM      3  C   UNL     1       3.878   4.197  17.235  0.00  0.00    +0.000 C 
ATOM      4  C   UNL     1       5.264   3.897  16.719  0.00  0.00    +0.000 C 
ATOM      5  N   UNL     1       5.783   4.918  15.843  0.00  0.00    +0.000 N 
ATOM      6  C   UNL     1       6.145   4.537  14.562  0.00  0.00    +0.000 A 
ATOM      7  C   UNL     1       7.338   5.005  14.008  0.00  0.00    +0.000 A 
ATOM      8  C   UNL     1       7.654   4.695  12.689  0.00  0.00    +0.000 A 
ATOM      9  C   UNL     1       6.764   3.931  11.949  0.00  0.00    +0.000 A 
ATOM     10  C   UNL     1       5.615   3.484  12.575  0.00  0.00    +0.000 A 
ATOM     11  N   UNL     1       5.298   3.758  13.858  0.00  0.00    +0.000 NA
ATOM     12  C   UNL     1       5.573   6.335  16.050  0.00  0.00    +0.000 C 
ATOM     13  C   UNL     1       4.313   6.711  16.816  0.00  0.00    +0.000 C 
ENDBRANCH   1   2
BRANCH   1  14
ATOM     14  N   UNL     1       2.322   6.463  19.616  0.00  0.00    +0.000 N 
ATOM     15  C   UNL     1       2.123   7.843  19.409  0.00  0.00    +0.000 C 
ATOM     16  O   UNL     1       2.755   8.452  18.540  0.00  0.00    +0.000 OA
BRANCH  15  17
ATOM     17  C   UNL     1       1.305   8.587  20.359  0.00  0.00    +0.000 A 
ATOM     18  C   UNL     1       1.229   8.516  21.767  0.00  0.00    +0.000 A 
ATOM     19  N   UNL     1       0.448   9.454  22.300  0.00  0.00    +0.000 NA
ATOM     20  N   UNL     1      -0.057  10.094  21.233  0.00  0.00    +0.000 N 
ATOM     21  C   UNL     1      -0.987  11.176  21.456  0.00  0.00    +0.000 C 
ATOM     22  C   UNL     1       0.392   9.597  20.036  0.00  0.00    +0.000 A 
ATOM     23  C   UNL     1      -0.055  10.119  18.714  0.00  0.00    +0.000 C 
ENDBRANCH  15  17
BRANCH  14  25
ATOM     24  C   UNL     1       2.250   4.477  21.197  0.00  0.00    +0.000 C 
ATOM     25  C   UNL     1       1.515   5.616  20.495  0.00  0.00    +0.000 C 
ENDBRANCH  14  25
ENDBRANCH   1  14
TORSDOF 4
ENDMDL
MODEL 8
REMARK VINA RESULT:      -6.3      1.481      2.573
REMARK  Name = 
REMARK  7 active torsions:
REMARK  status: ('A' for Active; 'I' for Inactive)
REMARK    1  A    between atoms: C_1  and  C_2
REMARK    2  A    between atoms: C_2  and  N_3
REMARK    3  A    between atoms: N_3  and  C_4
REMARK    4  A    between atoms: C_4  and  C_5
REMARK    5  A    between atoms: C_17  and  C_19
REMARK    6  A    between atoms: N_22  and  C_23
REMARK    7  A    between atoms: C_24  and  C_25
REMARK                            x       y       z     vdW  Elec       q    Type
REMARK                         _______ _______ _______ _____ _____    ______ ____
ROOT
ATOM      1  C   UNL     1      -0.138   9.023  20.670  0.00  0.00    +0.000 C 
ENDROOT
BRANCH   1   2
ATOM      2  C   UNL     1       1.339   8.743  20.302  0.00  0.00    +0.000 C 
ATOM      3  C   UNL     1       1.685   9.107  18.859  0.00  0.00    +0.000 C 
ATOM      4  C   UNL     1       1.783   7.976  17.866  0.00  0.00    +0.000 C 
ATOM      5  N   UNL     1       2.420   6.798  18.400  0.00  0.00    +0.000 N 
ATOM      6  C   UNL     1       3.554   6.335  17.754  0.00  0.00    +0.000 A 
ATOM      7  C   UNL     1       3.711   4.969  17.516  0.00  0.00    +0.000 A 
ATOM      8  C   UNL     1       4.891   4.498  16.950  0.00  0.00    +0.000 A 
ATOM      9  C   UNL     1       5.894   5.404  16.644  0.00  0.00    +0.000 A 
ATOM     10  C   UNL     1       5.656   6.744  16.886  0.00  0.00    +0.000 A 
ATOM     11  N   UNL     1       4.511   7.223  17.418  0.00  0.00    +0.000 NA
ATOM     12  C   UNL     1       2.218   6.321  19.752  0.00  0.00    +0.000 C 
ATOM     13  C   UNL     1       1.840   7.380  20.777  0.00  0.00    +0.000 C 
ENDBRANCH   1   2
BRANCH   1  14
ATOM     14  N   UNL     1      -0.364  10.461  20.908  0.00  0.00    +0.000 N 
ATOM     15  C   UNL     1      -0.359  10.898  22.248  0.00  0.00    +0.000 C 
ATOM     16  O   UNL     1       0.205  10.239  23.128  0.00  0.00    +0.000 OA
BRANCH  15  17
ATOM     17  C   UNL     1      -1.189  12.036  22.621  0.00  0.00    +0.000 A 
ATOM     18  C   UNL     1      -2.489  12.092  23.167  0.00  0.00    +0.000 A 
ATOM     19  N   UNL     1      -2.871  13.326  23.495  0.00  0.00    +0.000 NA
ATOM     20  N   UNL     1      -1.848  14.095  23.088  0.00  0.00    +0.000 N 
ATOM     21  C   UNL     1      -1.947  15.524  23.268  0.00  0.00    +0.000 C 
ATOM     22  C   UNL     1      -0.822  13.383  22.521  0.00  0.00    +0.000 A 
ATOM     23  C   UNL     1       0.403  14.019  21.960  0.00  0.00    +0.000 C 
ENDBRANCH  15  17
BRANCH  14  25
ATOM     24  C   UNL     1      -1.588  10.457  18.683  0.00  0.00    +0.000 C 
ATOM     25  C   UNL     1      -0.852  11.238  19.768  0.00  0.00    +0.000 C 
ENDBRANCH  14  25
ENDBRANCH   1  14
TORSDOF 4
ENDMDL
MODEL 9
REMARK VINA RESULT:      -6.3      1.938      2.630
REMARK  Name = 
REMARK  7 active torsions:
REMARK  status: ('A' for Active; 'I' for Inactive)
REMARK    1  A    between atoms: C_1  and  C_2
REMARK    2  A    between atoms: C_2  and  N_3
REMARK    3  A    between atoms: N_3  and  C_4
REMARK    4  A    between atoms: C_4  and  C_5
REMARK    5  A    between atoms: C_17  and  C_19
REMARK    6  A    between atoms: N_22  and  C_23
REMARK    7  A    between atoms: C_24  and  C_25
REMARK                            x       y       z     vdW  Elec       q    Type
REMARK                         _______ _______ _______ _____ _____    ______ ____
ROOT
ATOM      1  C   UNL     1       1.076  11.025  19.840  0.00  0.00    +0.000 C 
ENDROOT
BRANCH   1   2
ATOM      2  C   UNL     1       0.815   9.663  19.153  0.00  0.00    +0.000 C 
ATOM      3  C   UNL     1       0.890   8.475  20.111  0.00  0.00    +0.000 C 
ATOM      4  C   UNL     1       2.147   7.642  20.080  0.00  0.00    +0.000 C 
ATOM      5  N   UNL     1       2.660   7.426  18.750  0.00  0.00    +0.000 N 
ATOM      6  C   UNL     1       2.796   6.116  18.322  0.00  0.00    +0.000 A 
ATOM      7  C   UNL     1       3.950   5.723  17.640  0.00  0.00    +0.000 A 
ATOM      8  C   UNL     1       4.045   4.432  17.132  0.00  0.00    +0.000 A 
ATOM      9  C   UNL     1       2.978   3.564  17.307  0.00  0.00    +0.000 A 
ATOM     10  C   UNL     1       1.880   4.018  18.014  0.00  0.00    +0.000 A 
ATOM     11  N   UNL     1       1.775   5.261  18.531  0.00  0.00    +0.000 NA
ATOM     12  C   UNL     1       2.650   8.437  17.713  0.00  0.00    +0.000 C 
ATOM     13  C   UNL     1       1.560   9.492  17.830  0.00  0.00    +0.000 C 
ENDBRANCH   1   2
BRANCH   1  14
ATOM     14  N   UNL     1      -0.083  11.925  19.697  0.00  0.00    +0.000 N 
ATOM     15  C   UNL     1      -1.217  11.641  20.483  0.00  0.00    +0.000 C 
ATOM     16  O   UNL     1      -1.121  10.966  21.514  0.00  0.00    +0.000 OA
BRANCH  15  17
ATOM     17  C   UNL     1      -2.536  11.986  19.968  0.00  0.00    +0.000 A 
ATOM     18  C   UNL     1      -3.490  12.921  20.423  0.00  0.00    +0.000 A 
ATOM     19  N   UNL     1      -4.537  13.045  19.609  0.00  0.00    +0.000 NA
ATOM     20  N   UNL     1      -4.309  12.128  18.655  0.00  0.00    +0.000 N 
ATOM     21  C   UNL     1      -5.287  11.971  17.603  0.00  0.00    +0.000 C 
ATOM     22  C   UNL     1      -3.140  11.433  18.833  0.00  0.00    +0.000 A 
ATOM     23  C   UNL     1      -2.691  10.341  17.926  0.00  0.00    +0.000 C 
ENDBRANCH  15  17
BRANCH  14  25
ATOM     24  C   UNL     1       0.850  14.066  18.700  0.00  0.00    +0.000 C 
ATOM     25  C   UNL     1      -0.053  12.845  18.558  0.00  0.00    +0.000 C 
ENDBRANCH  14  25
ENDBRANCH   1  14
TORSDOF 4
ENDMDL
