MODEL 1
REMARK VINA RESULT:      -8.1      0.000      0.000
REMARK  Name = 
REMARK  8 active torsions:
REMARK  status: ('A' for Active; 'I' for Inactive)
REMARK    1  A    between atoms: C_1  and  O_2
REMARK    2  A    between atoms: O_2  and  C_3
REMARK    3  A    between atoms: C_6  and  C_7
REMARK    4  A    between atoms: C_7  and  N_8
REMARK    5  A    between atoms: N_8  and  S_9
REMARK    6  A    between atoms: S_9  and  C_12
REMARK    7  A    between atoms: C_15  and  S_16
REMARK    8  A    between atoms: S_16  and  N_19
REMARK                            x       y       z     vdW  Elec       q    Type
REMARK                         _______ _______ _______ _____ _____    ______ ____
ROOT
ATOM      1  C   UNL     1       1.599   7.369  20.461  0.00  0.00    +0.000 A 
ATOM      2  C   UNL     1       2.354   7.539  19.297  0.00  0.00    +0.000 A 
ATOM      3  C   UNL     1       2.975   6.437  18.714  0.00  0.00    +0.000 A 
ATOM      4  C   UNL     1       2.880   5.174  19.311  0.00  0.00    +0.000 A 
ATOM      5  C   UNL     1       2.089   4.995  20.451  0.00  0.00    +0.000 A 
ATOM      6  C   UNL     1       1.488   6.100  21.031  0.00  0.00    +0.000 A 
ENDROOT
BRANCH   1   7
ATOM      7  S   UNL     1       0.881   8.774  21.273  0.00  0.00    +0.000 S 
ATOM      8  O   UNL     1       1.804   9.227  22.284  0.00  0.00    +0.000 OA
ATOM      9  O   UNL     1      -0.494   8.431  21.602  0.00  0.00    +0.000 OA
BRANCH   7  10
ATOM     10  N   UNL     1       0.852   9.960  20.078  0.00  0.00    +0.000 NA
ATOM     11  H   UNL     1       1.779  10.388  19.994  0.00  0.00    +0.000 HD
BRANCH  10  12
ATOM     12  C   UNL     1      -0.255  10.915  20.183  0.00  0.00    +0.000 C 
BRANCH  12  16
ATOM     13  C   UNL     1      -3.051  10.750  16.903  0.00  0.00    +0.000 A 
ATOM     14  C   UNL     1      -3.253  11.636  17.959  0.00  0.00    +0.000 A 
ATOM     15  C   UNL     1      -2.332  11.714  19.005  0.00  0.00    +0.000 A 
ATOM     16  C   UNL     1      -1.222  10.858  19.036  0.00  0.00    +0.000 A 
ATOM     17  C   UNL     1      -1.020   9.977  17.968  0.00  0.00    +0.000 A 
ATOM     18  C   UNL     1      -1.926   9.924  16.907  0.00  0.00    +0.000 A 
BRANCH  13  20
ATOM     19  C   UNL     1      -3.603  10.227  14.670  0.00  0.00    +0.000 C 
ATOM     20  O   UNL     1      -4.010  10.759  15.927  0.00  0.00    +0.000 OA
ENDBRANCH  13  20
ENDBRANCH  12  16
ENDBRANCH  10  12
ENDBRANCH   7  10
ENDBRANCH   1   7
BRANCH   4  21
ATOM     21  S   UNL     1       3.776   3.820  18.563  0.00  0.00    +0.000 S 
ATOM     22  O   UNL     1       4.514   3.160  19.605  0.00  0.00    +0.000 OA
ATOM     23  O   UNL     1       2.828   3.088  17.732  0.00  0.00    +0.000 OA
BRANCH  21  24
ATOM     24  N   UNL     1       4.898   4.588  17.508  0.00  0.00    +0.000 NA
ATOM     25  C   UNL     1       6.257   4.806  18.068  0.00  0.00    +0.000 C 
ATOM     26  C   UNL     1       7.164   5.582  17.119  0.00  0.00    +0.000 C 
ATOM     27  C   UNL     1       7.157   4.978  15.724  0.00  0.00    +0.000 C 
ATOM     28  C   UNL     1       5.740   4.945  15.179  0.00  0.00    +0.000 C 
ATOM     29  C   UNL     1       4.805   4.161  16.089  0.00  0.00    +0.000 C 
ENDBRANCH  21  24
ENDBRANCH   4  21
TORSDOF 7
ENDMDL
MODEL 2
REMARK VINA RESULT:      -8.0      0.501      1.682
REMARK  Name = 
REMARK  8 active torsions:
REMARK  status: ('A' for Active; 'I' for Inactive)
REMARK    1  A    between atoms: C_1  and  O_2
REMARK    2  A    between atoms: O_2  and  C_3
REMARK    3  A    between atoms: C_6  and  C_7
REMARK    4  A    between atoms: C_7  and  N_8
REMARK    5  A    between atoms: N_8  and  S_9
REMARK    6  A    between atoms: S_9  and  C_12
REMARK    7  A    between atoms: C_15  and  S_16
REMARK    8  A    between atoms: S_16  and  N_19
REMARK                            x       y       z     vdW  Elec       q    Type
REMARK                         _______ _______ _______ _____ _____    ______ ____
ROOT
ATOM      1  C   UNL     1       1.642   7.382  20.401  0.00  0.00    +0.000 A 
ATOM      2  C   UNL     1       1.603   6.116  20.990  0.00  0.00    +0.000 A 
ATOM      3  C   UNL     1       2.119   5.021  20.301  0.00  0.00    +0.000 A 
ATOM      4  C   UNL     1       2.636   5.179  19.008  0.00  0.00    +0.000 A 
ATOM      5  C   UNL     1       2.715   6.453  18.436  0.00  0.00    +0.000 A 
ATOM      6  C   UNL     1       2.185   7.532  19.125  0.00  0.00    +0.000 A 
ENDROOT
BRANCH   1   7
ATOM      7  S   UNL     1       0.903   8.773  21.220  0.00  0.00    +0.000 S 
ATOM      8  O   UNL     1       1.848   9.281  22.183  0.00  0.00    +0.000 OA
ATOM      9  O   UNL     1      -0.442   8.381  21.613  0.00  0.00    +0.000 OA
BRANCH   7  10
ATOM     10  N   UNL     1       0.776   9.934  20.007  0.00  0.00    +0.000 NA
ATOM     11  H   UNL     1       1.687  10.377  19.857  0.00  0.00    +0.000 HD
BRANCH  10  12
ATOM     12  C   UNL     1      -0.340  10.872  20.165  0.00  0.00    +0.000 C 
BRANCH  12  16
ATOM     13  C   UNL     1      -3.109  10.859  16.858  0.00  0.00    +0.000 A 
ATOM     14  C   UNL     1      -1.951  10.087  16.811  0.00  0.00    +0.000 A 
ATOM     15  C   UNL     1      -1.069  10.065  17.894  0.00  0.00    +0.000 A 
ATOM     16  C   UNL     1      -1.310  10.866  19.019  0.00  0.00    +0.000 A 
ATOM     17  C   UNL     1      -2.480  11.633  19.063  0.00  0.00    +0.000 A 
ATOM     18  C   UNL     1      -3.376  11.628  17.992  0.00  0.00    +0.000 A 
BRANCH  13  20
ATOM     19  C   UNL     1      -3.343  10.126  14.629  0.00  0.00    +0.000 C 
ATOM     20  O   UNL     1      -3.906  10.803  15.748  0.00  0.00    +0.000 OA
ENDBRANCH  13  20
ENDBRANCH  12  16
ENDBRANCH  10  12
ENDBRANCH   7  10
ENDBRANCH   1   7
BRANCH   4  21
ATOM     21  S   UNL     1       3.198   3.719  18.144  0.00  0.00    +0.000 S 
ATOM     22  O   UNL     1       3.296   2.656  19.107  0.00  0.00    +0.000 OA
ATOM     23  O   UNL     1       2.368   3.582  16.953  0.00  0.00    +0.000 OA
BRANCH  21  24
ATOM     24  N   UNL     1       4.786   4.124  17.620  0.00  0.00    +0.000 NA
ATOM     25  C   UNL     1       4.885   4.680  16.245  0.00  0.00    +0.000 C 
ATOM     26  C   UNL     1       6.327   4.918  15.812  0.00  0.00    +0.000 C 
ATOM     27  C   UNL     1       7.101   5.705  16.856  0.00  0.00    +0.000 C 
ATOM     28  C   UNL     1       7.071   4.973  18.187  0.00  0.00    +0.000 C 
ATOM     29  C   UNL     1       5.646   4.733  18.666  0.00  0.00    +0.000 C 
ENDBRANCH  21  24
ENDBRANCH   4  21
TORSDOF 7
ENDMDL
MODEL 3
REMARK VINA RESULT:      -8.0      0.416      1.000
REMARK  Name = 
REMARK  8 active torsions:
REMARK  status: ('A' for Active; 'I' for Inactive)
REMARK    1  A    between atoms: C_1  and  O_2
REMARK    2  A    between atoms: O_2  and  C_3
REMARK    3  A    between atoms: C_6  and  C_7
REMARK    4  A    between atoms: C_7  and  N_8
REMARK    5  A    between atoms: N_8  and  S_9
REMARK    6  A    between atoms: S_9  and  C_12
REMARK    7  A    between atoms: C_15  and  S_16
REMARK    8  A    between atoms: S_16  and  N_19
REMARK                            x       y       z     vdW  Elec       q    Type
REMARK                         _______ _______ _______ _____ _____    ______ ____
ROOT
ATOM      1  C   UNL     1       1.481   7.596  20.507  0.00  0.00    +0.000 A 
ATOM      2  C   UNL     1       2.180   7.750  19.306  0.00  0.00    +0.000 A 
ATOM      3  C   UNL     1       2.689   6.628  18.659  0.00  0.00    +0.000 A 
ATOM      4  C   UNL     1       2.541   5.356  19.226  0.00  0.00    +0.000 A 
ATOM      5  C   UNL     1       1.804   5.196  20.405  0.00  0.00    +0.000 A 
ATOM      6  C   UNL     1       1.315   6.321  21.048  0.00  0.00    +0.000 A 
ENDROOT
BRANCH   1   7
ATOM      7  S   UNL     1       0.909   9.021  21.397  0.00  0.00    +0.000 S 
ATOM      8  O   UNL     1       1.916   9.379  22.365  0.00  0.00    +0.000 OA
ATOM      9  O   UNL     1      -0.466   8.761  21.796  0.00  0.00    +0.000 OA
BRANCH   7  10
ATOM     10  N   UNL     1       0.896  10.242  20.238  0.00  0.00    +0.000 NA
ATOM     11  H   UNL     1       1.802  10.720  20.230  0.00  0.00    +0.000 HD
BRANCH  10  12
ATOM     12  C   UNL     1      -0.265  11.136  20.297  0.00  0.00    +0.000 C 
BRANCH  12  16
ATOM     13  C   UNL     1      -2.983  10.682  16.979  0.00  0.00    +0.000 A 
ATOM     14  C   UNL     1      -1.823   9.914  17.051  0.00  0.00    +0.000 A 
ATOM     15  C   UNL     1      -0.958  10.036  18.140  0.00  0.00    +0.000 A 
ATOM     16  C   UNL     1      -1.217  10.977  19.147  0.00  0.00    +0.000 A 
ATOM     17  C   UNL     1      -2.389  11.740  19.073  0.00  0.00    +0.000 A 
ATOM     18  C   UNL     1      -3.268  11.592  17.998  0.00  0.00    +0.000 A 
BRANCH  13  20
ATOM     19  C   UNL     1      -3.053  10.185  14.674  0.00  0.00    +0.000 C 
ATOM     20  O   UNL     1      -3.763  10.478  15.873  0.00  0.00    +0.000 OA
ENDBRANCH  13  20
ENDBRANCH  12  16
ENDBRANCH  10  12
ENDBRANCH   7  10
ENDBRANCH   1   7
BRANCH   4  21
ATOM     21  S   UNL     1       3.297   3.969  18.391  0.00  0.00    +0.000 S 
ATOM     22  O   UNL     1       3.723   3.035  19.398  0.00  0.00    +0.000 OA
ATOM     23  O   UNL     1       2.388   3.563  17.325  0.00  0.00    +0.000 OA
BRANCH  21  24
ATOM     24  N   UNL     1       4.697   4.636  17.646  0.00  0.00    +0.000 NA
ATOM     25  C   UNL     1       5.925   4.648  18.482  0.00  0.00    +0.000 C 
ATOM     26  C   UNL     1       7.094   5.346  17.798  0.00  0.00    +0.000 C 
ATOM     27  C   UNL     1       7.310   4.819  16.389  0.00  0.00    +0.000 C 
ATOM     28  C   UNL     1       6.044   4.998  15.568  0.00  0.00    +0.000 C 
ATOM     29  C   UNL     1       4.854   4.298  16.208  0.00  0.00    +0.000 C 
ENDBRANCH  21  24
ENDBRANCH   4  21
TORSDOF 7
ENDMDL
MODEL 4
REMARK VINA RESULT:      -8.0      2.894      4.877
REMARK  Name = 
REMARK  8 active torsions:
REMARK  status: ('A' for Active; 'I' for Inactive)
REMARK    1  A    between atoms: C_1  and  O_2
REMARK    2  A    between atoms: O_2  and  C_3
REMARK    3  A    between atoms: C_6  and  C_7
REMARK    4  A    between atoms: C_7  and  N_8
REMARK    5  A    between atoms: N_8  and  S_9
REMARK    6  A    between atoms: S_9  and  C_12
REMARK    7  A    between atoms: C_15  and  S_16
REMARK    8  A    between atoms: S_16  and  N_19
REMARK                            x       y       z     vdW  Elec       q    Type
REMARK                         _______ _______ _______ _____ _____    ______ ____
ROOT
ATOM      1  C   UNL     1       3.334   4.047  18.542  0.00  0.00    +0.000 A 
ATOM      2  C   UNL     1       4.581   3.723  19.084  0.00  0.00    +0.000 A 
ATOM      3  C   UNL     1       5.741   4.135  18.433  0.00  0.00    +0.000 A 
ATOM      4  C   UNL     1       5.662   4.832  17.221  0.00  0.00    +0.000 A 
ATOM      5  C   UNL     1       4.415   5.193  16.700  0.00  0.00    +0.000 A 
ATOM      6  C   UNL     1       3.267   4.766  17.348  0.00  0.00    +0.000 A 
ENDROOT
BRANCH   1   7
ATOM      7  S   UNL     1       1.846   3.449  19.303  0.00  0.00    +0.000 S 
ATOM      8  O   UNL     1       2.206   2.413  20.239  0.00  0.00    +0.000 OA
ATOM      9  O   UNL     1       0.881   3.208  18.242  0.00  0.00    +0.000 OA
BRANCH   7  10
ATOM     10  N   UNL     1       1.306   4.758  20.214  0.00  0.00    +0.000 NA
ATOM     11  H   UNL     1       0.430   5.114  19.821  0.00  0.00    +0.000 HD
BRANCH  10  12
ATOM     12  C   UNL     1       2.318   5.786  20.477  0.00  0.00    +0.000 C 
BRANCH  12  16
ATOM     13  C   UNL     1       1.170   9.759  19.250  0.00  0.00    +0.000 A 
ATOM     14  C   UNL     1       1.876   8.929  18.383  0.00  0.00    +0.000 A 
ATOM     15  C   UNL     1       2.221   7.631  18.766  0.00  0.00    +0.000 A 
ATOM     16  C   UNL     1       1.911   7.168  20.053  0.00  0.00    +0.000 A 
ATOM     17  C   UNL     1       1.193   8.003  20.916  0.00  0.00    +0.000 A 
ATOM     18  C   UNL     1       0.822   9.289  20.518  0.00  0.00    +0.000 A 
BRANCH  13  20
ATOM     19  C   UNL     1      -0.499  11.369  18.822  0.00  0.00    +0.000 C 
ATOM     20  O   UNL     1       0.877  11.007  18.773  0.00  0.00    +0.000 OA
ENDBRANCH  13  20
ENDBRANCH  12  16
ENDBRANCH  10  12
ENDBRANCH   7  10
ENDBRANCH   1   7
BRANCH   4  21
ATOM     21  S   UNL     1       7.188   5.251  16.390  0.00  0.00    +0.000 S 
ATOM     22  O   UNL     1       7.413   6.658  16.581  0.00  0.00    +0.000 OA
ATOM     23  O   UNL     1       8.183   4.267  16.802  0.00  0.00    +0.000 OA
BRANCH  21  24
ATOM     24  N   UNL     1       6.852   4.977  14.725  0.00  0.00    +0.000 NA
ATOM     25  C   UNL     1       7.923   5.384  13.780  0.00  0.00    +0.000 C 
ATOM     26  C   UNL     1       7.516   5.209  12.321  0.00  0.00    +0.000 C 
ATOM     27  C   UNL     1       6.957   3.819  12.062  0.00  0.00    +0.000 C 
ATOM     28  C   UNL     1       5.766   3.561  12.970  0.00  0.00    +0.000 C 
ATOM     29  C   UNL     1       6.136   3.707  14.439  0.00  0.00    +0.000 C 
ENDBRANCH  21  24
ENDBRANCH   4  21
TORSDOF 7
ENDMDL
MODEL 5
REMARK VINA RESULT:      -7.8      1.276      1.729
REMARK  Name = 
REMARK  8 active torsions:
REMARK  status: ('A' for Active; 'I' for Inactive)
REMARK    1  A    between atoms: C_1  and  O_2
REMARK    2  A    between atoms: O_2  and  C_3
REMARK    3  A    between atoms: C_6  and  C_7
REMARK    4  A    between atoms: C_7  and  N_8
REMARK    5  A    between atoms: N_8  and  S_9
REMARK    6  A    between atoms: S_9  and  C_12
REMARK    7  A    between atoms: C_15  and  S_16
REMARK    8  A    between atoms: S_16  and  N_19
REMARK                            x       y       z     vdW  Elec       q    Type
REMARK                         _______ _______ _______ _____ _____    ______ ____
ROOT
ATOM      1  C   UNL     1       1.385   8.848  19.932  0.00  0.00    +0.000 A 
ATOM      2  C   UNL     1       1.871   8.682  18.632  0.00  0.00    +0.000 A 
ATOM      3  C   UNL     1       2.378   7.446  18.240  0.00  0.00    +0.000 A 
ATOM      4  C   UNL     1       2.440   6.386  19.153  0.00  0.00    +0.000 A 
ATOM      5  C   UNL     1       1.915   6.537  20.441  0.00  0.00    +0.000 A 
ATOM      6  C   UNL     1       1.426   7.776  20.824  0.00  0.00    +0.000 A 
ENDROOT
BRANCH   1   7
ATOM      7  S   UNL     1       0.826  10.440  20.481  0.00  0.00    +0.000 S 
ATOM      8  O   UNL     1       1.287  11.428  19.537  0.00  0.00    +0.000 OA
ATOM      9  O   UNL     1       1.135  10.545  21.899  0.00  0.00    +0.000 OA
BRANCH   7  10
ATOM     10  N   UNL     1      -0.848  10.358  20.316  0.00  0.00    +0.000 NA
ATOM     11  H   UNL     1      -1.116   9.430  19.975  0.00  0.00    +0.000 HD
BRANCH  10  12
ATOM     12  C   UNL     1      -1.452  11.475  19.582  0.00  0.00    +0.000 C 
BRANCH  12  16
ATOM     13  C   UNL     1      -3.527  10.297  15.989  0.00  0.00    +0.000 A 
ATOM     14  C   UNL     1      -2.318   9.697  16.334  0.00  0.00    +0.000 A 
ATOM     15  C   UNL     1      -1.661  10.053  17.514  0.00  0.00    +0.000 A 
ATOM     16  C   UNL     1      -2.181  11.063  18.335  0.00  0.00    +0.000 A 
ATOM     17  C   UNL     1      -3.400  11.656  17.987  0.00  0.00    +0.000 A 
ATOM     18  C   UNL     1      -4.071  11.274  16.823  0.00  0.00    +0.000 A 
BRANCH  13  20
ATOM     19  C   UNL     1      -3.308  10.095  13.649  0.00  0.00    +0.000 C 
ATOM     20  O   UNL     1      -4.090   9.869  14.818  0.00  0.00    +0.000 OA
ENDBRANCH  13  20
ENDBRANCH  12  16
ENDBRANCH  10  12
ENDBRANCH   7  10
ENDBRANCH   1   7
BRANCH   4  21
ATOM     21  S   UNL     1       3.186   4.854  18.613  0.00  0.00    +0.000 S 
ATOM     22  O   UNL     1       3.614   4.143  19.787  0.00  0.00    +0.000 OA
ATOM     23  O   UNL     1       2.268   4.245  17.658  0.00  0.00    +0.000 OA
BRANCH  21  24
ATOM     24  N   UNL     1       4.583   5.348  17.740  0.00  0.00    +0.000 NA
ATOM     25  C   UNL     1       5.810   5.551  18.554  0.00  0.00    +0.000 C 
ATOM     26  C   UNL     1       6.976   6.088  17.734  0.00  0.00    +0.000 C 
ATOM     27  C   UNL     1       7.197   5.264  16.475  0.00  0.00    +0.000 C 
ATOM     28  C   UNL     1       5.932   5.251  15.634  0.00  0.00    +0.000 C 
ATOM     29  C   UNL     1       4.745   4.702  16.413  0.00  0.00    +0.000 C 
ENDBRANCH  21  24
ENDBRANCH   4  21
TORSDOF 7
ENDMDL
MODEL 6
REMARK VINA RESULT:      -7.7      1.771      2.413
REMARK  Name = 
REMARK  8 active torsions:
REMARK  status: ('A' for Active; 'I' for Inactive)
REMARK    1  A    between atoms: C_1  and  O_2
REMARK    2  A    between atoms: O_2  and  C_3
REMARK    3  A    between atoms: C_6  and  C_7
REMARK    4  A    between atoms: C_7  and  N_8
REMARK    5  A    between atoms: N_8  and  S_9
REMARK    6  A    between atoms: S_9  and  C_12
REMARK    7  A    between atoms: C_15  and  S_16
REMARK    8  A    between atoms: S_16  and  N_19
REMARK                            x       y       z     vdW  Elec       q    Type
REMARK                         _______ _______ _______ _____ _____    ______ ____
ROOT
ATOM      1  C   UNL     1       1.498   9.095  19.326  0.00  0.00    +0.000 A 
ATOM      2  C   UNL     1       1.486   8.155  20.361  0.00  0.00    +0.000 A 
ATOM      3  C   UNL     1       2.052   6.900  20.155  0.00  0.00    +0.000 A 
ATOM      4  C   UNL     1       2.594   6.564  18.908  0.00  0.00    +0.000 A 
ATOM      5  C   UNL     1       2.645   7.518  17.886  0.00  0.00    +0.000 A 
ATOM      6  C   UNL     1       2.066   8.759  18.097  0.00  0.00    +0.000 A 
ENDROOT
BRANCH   1   7
ATOM      7  S   UNL     1       0.696  10.664  19.535  0.00  0.00    +0.000 S 
ATOM      8  O   UNL     1       1.715  11.681  19.618  0.00  0.00    +0.000 OA
ATOM      9  O   UNL     1      -0.304  10.507  20.580  0.00  0.00    +0.000 OA
BRANCH   7  10
ATOM     10  N   UNL     1      -0.107  10.903  18.074  0.00  0.00    +0.000 NA
ATOM     11  H   UNL     1      -0.381  11.886  17.987  0.00  0.00    +0.000 HD
BRANCH  10  12
ATOM     12  C   UNL     1      -1.181   9.944  17.797  0.00  0.00    +0.000 C 
BRANCH  12  16
ATOM     13  C   UNL     1      -5.029  11.760  17.091  0.00  0.00    +0.000 A 
ATOM     14  C   UNL     1      -4.438  11.826  18.350  0.00  0.00    +0.000 A 
ATOM     15  C   UNL     1      -3.178  11.267  18.572  0.00  0.00    +0.000 A 
ATOM     16  C   UNL     1      -2.518  10.580  17.544  0.00  0.00    +0.000 A 
ATOM     17  C   UNL     1      -3.113  10.524  16.279  0.00  0.00    +0.000 A 
ATOM     18  C   UNL     1      -4.359  11.112  16.052  0.00  0.00    +0.000 A 
BRANCH  13  20
ATOM     19  C   UNL     1      -7.022  12.392  18.184  0.00  0.00    +0.000 C 
ATOM     20  O   UNL     1      -6.261  12.345  16.981  0.00  0.00    +0.000 OA
ENDBRANCH  13  20
ENDBRANCH  12  16
ENDBRANCH  10  12
ENDBRANCH   7  10
ENDBRANCH   1   7
BRANCH   4  21
ATOM     21  S   UNL     1       3.222   4.906  18.683  0.00  0.00    +0.000 S 
ATOM     22  O   UNL     1       3.250   4.274  19.974  0.00  0.00    +0.000 OA
ATOM     23  O   UNL     1       2.485   4.316  17.572  0.00  0.00    +0.000 OA
BRANCH  21  24
ATOM     24  N   UNL     1       4.844   5.137  18.158  0.00  0.00    +0.000 NA
ATOM     25  C   UNL     1       5.850   5.302  19.239  0.00  0.00    +0.000 C 
ATOM     26  C   UNL     1       7.244   5.605  18.701  0.00  0.00    +0.000 C 
ATOM     27  C   UNL     1       7.652   4.616  17.621  0.00  0.00    +0.000 C 
ATOM     28  C   UNL     1       6.640   4.638  16.488  0.00  0.00    +0.000 C 
ATOM     29  C   UNL     1       5.236   4.320  16.980  0.00  0.00    +0.000 C 
ENDBRANCH  21  24
ENDBRANCH   4  21
TORSDOF 7
ENDMDL
MODEL 7
REMARK VINA RESULT:      -7.7      3.068      4.880
REMARK  Name = 
REMARK  8 active torsions:
REMARK  status: ('A' for Active; 'I' for Inactive)
REMARK    1  A    between atoms: C_1  and  O_2
REMARK    2  A    between atoms: O_2  and  C_3
REMARK    3  A    between atoms: C_6  and  C_7
REMARK    4  A    between atoms: C_7  and  N_8
REMARK    5  A    between atoms: N_8  and  S_9
REMARK    6  A    between atoms: S_9  and  C_12
REMARK    7  A    between atoms: C_15  and  S_16
REMARK    8  A    between atoms: S_16  and  N_19
REMARK                            x       y       z     vdW  Elec       q    Type
REMARK                         _______ _______ _______ _____ _____    ______ ____
ROOT
ATOM      1  C   UNL     1       3.242   3.670  18.455  0.00  0.00    +0.000 A 
ATOM      2  C   UNL     1       3.195   4.157  17.146  0.00  0.00    +0.000 A 
ATOM      3  C   UNL     1       4.366   4.594  16.532  0.00  0.00    +0.000 A 
ATOM      4  C   UNL     1       5.578   4.585  17.234  0.00  0.00    +0.000 A 
ATOM      5  C   UNL     1       5.634   4.058  18.529  0.00  0.00    +0.000 A 
ATOM      6  C   UNL     1       4.460   3.640  19.135  0.00  0.00    +0.000 A 
ENDROOT
BRANCH   1   7
ATOM      7  S   UNL     1       1.748   3.201  19.289  0.00  0.00    +0.000 S 
ATOM      8  O   UNL     1       2.084   2.225  20.296  0.00  0.00    +0.000 OA
ATOM      9  O   UNL     1       0.749   2.923  18.269  0.00  0.00    +0.000 OA
BRANCH   7  10
ATOM     10  N   UNL     1       1.286   4.599  20.106  0.00  0.00    +0.000 NA
ATOM     11  H   UNL     1       0.441   4.986  19.678  0.00  0.00    +0.000 HD
BRANCH  10  12
ATOM     12  C   UNL     1       2.362   5.573  20.318  0.00  0.00    +0.000 C 
BRANCH  12  16
ATOM     13  C   UNL     1       1.408   9.545  18.934  0.00  0.00    +0.000 A 
ATOM     14  C   UNL     1       1.039   9.136  20.214  0.00  0.00    +0.000 A 
ATOM     15  C   UNL     1       1.376   7.862  20.676  0.00  0.00    +0.000 A 
ATOM     16  C   UNL     1       2.038   6.957  19.834  0.00  0.00    +0.000 A 
ATOM     17  C   UNL     1       2.413   7.377  18.553  0.00  0.00    +0.000 A 
ATOM     18  C   UNL     1       2.103   8.663  18.106  0.00  0.00    +0.000 A 
BRANCH  13  20
ATOM     19  C   UNL     1      -0.056  11.352  19.325  0.00  0.00    +0.000 C 
ATOM     20  O   UNL     1       1.035  10.814  18.585  0.00  0.00    +0.000 OA
ENDBRANCH  13  20
ENDBRANCH  12  16
ENDBRANCH  10  12
ENDBRANCH   7  10
ENDBRANCH   1   7
BRANCH   4  21
ATOM     21  S   UNL     1       7.026   5.244  16.420  0.00  0.00    +0.000 S 
ATOM     22  O   UNL     1       7.036   6.665  16.636  0.00  0.00    +0.000 OA
ATOM     23  O   UNL     1       8.156   4.414  16.819  0.00  0.00    +0.000 OA
BRANCH  21  24
ATOM     24  N   UNL     1       6.740   4.952  14.749  0.00  0.00    +0.000 NA
ATOM     25  C   UNL     1       7.807   5.417  13.825  0.00  0.00    +0.000 C 
ATOM     26  C   UNL     1       7.441   5.221  12.359  0.00  0.00    +0.000 C 
ATOM     27  C   UNL     1       6.961   3.803  12.089  0.00  0.00    +0.000 C 
ATOM     28  C   UNL     1       5.768   3.482  12.972  0.00  0.00    +0.000 C 
ATOM     29  C   UNL     1       6.099   3.647  14.448  0.00  0.00    +0.000 C 
ENDBRANCH  21  24
ENDBRANCH   4  21
TORSDOF 7
ENDMDL
MODEL 8
REMARK VINA RESULT:      -7.7      2.249      8.606
REMARK  Name = 
REMARK  8 active torsions:
REMARK  status: ('A' for Active; 'I' for Inactive)
REMARK    1  A    between atoms: C_1  and  O_2
REMARK    2  A    between atoms: O_2  and  C_3
REMARK    3  A    between atoms: C_6  and  C_7
REMARK    4  A    between atoms: C_7  and  N_8
REMARK    5  A    between atoms: N_8  and  S_9
REMARK    6  A    between atoms: S_9  and  C_12
REMARK    7  A    between atoms: C_15  and  S_16
REMARK    8  A    between atoms: S_16  and  N_19
REMARK                            x       y       z     vdW  Elec       q    Type
REMARK                         _______ _______ _______ _____ _____    ______ ____
ROOT
ATOM      1  C   UNL     1       2.059   6.713  19.835  0.00  0.00    +0.000 A 
ATOM      2  C   UNL     1       2.431   7.373  18.661  0.00  0.00    +0.000 A 
ATOM      3  C   UNL     1       2.136   8.725  18.509  0.00  0.00    +0.000 A 
ATOM      4  C   UNL     1       1.433   9.412  19.508  0.00  0.00    +0.000 A 
ATOM      5  C   UNL     1       1.098   8.763  20.702  0.00  0.00    +0.000 A 
ATOM      6  C   UNL     1       1.385   7.414  20.835  0.00  0.00    +0.000 A 
ENDROOT
BRANCH   1   7
ATOM      7  S   UNL     1       2.339   4.969  20.008  0.00  0.00    +0.000 S 
ATOM      8  O   UNL     1       1.561   4.288  19.002  0.00  0.00    +0.000 OA
ATOM      9  O   UNL     1       2.203   4.643  21.419  0.00  0.00    +0.000 OA
BRANCH   7  10
ATOM     10  N   UNL     1       3.957   4.777  19.580  0.00  0.00    +0.000 NA
ATOM     11  H   UNL     1       4.368   5.690  19.367  0.00  0.00    +0.000 HD
BRANCH  10  12
ATOM     12  C   UNL     1       4.210   3.743  18.571  0.00  0.00    +0.000 C 
BRANCH  12  16
ATOM     13  C   UNL     1       6.898   4.998  15.441  0.00  0.00    +0.000 A 
ATOM     14  C   UNL     1       7.258   5.141  16.779  0.00  0.00    +0.000 A 
ATOM     15  C   UNL     1       6.403   4.706  17.794  0.00  0.00    +0.000 A 
ATOM     16  C   UNL     1       5.145   4.173  17.478  0.00  0.00    +0.000 A 
ATOM     17  C   UNL     1       4.794   4.024  16.131  0.00  0.00    +0.000 A 
ATOM     18  C   UNL     1       5.665   4.431  15.119  0.00  0.00    +0.000 A 
BRANCH  13  20
ATOM     19  C   UNL     1       7.571   5.058  13.181  0.00  0.00    +0.000 C 
ATOM     20  O   UNL     1       7.812   5.451  14.529  0.00  0.00    +0.000 OA
ENDBRANCH  13  20
ENDBRANCH  12  16
ENDBRANCH  10  12
ENDBRANCH   7  10
ENDBRANCH   1   7
BRANCH   4  21
ATOM     21  S   UNL     1       1.005  11.121  19.212  0.00  0.00    +0.000 S 
ATOM     22  O   UNL     1       0.836  11.754  20.492  0.00  0.00    +0.000 OA
ATOM     23  O   UNL     1       1.958  11.638  18.238  0.00  0.00    +0.000 OA
BRANCH  21  24
ATOM     24  N   UNL     1      -0.530  11.045  18.439  0.00  0.00    +0.000 NA
ATOM     25  C   UNL     1      -0.785   9.819  17.639  0.00  0.00    +0.000 C 
ATOM     26  C   UNL     1      -2.118   9.867  16.901  0.00  0.00    +0.000 C 
ATOM     27  C   UNL     1      -3.257  10.247  17.833  0.00  0.00    +0.000 C 
ATOM     28  C   UNL     1      -2.972  11.592  18.480  0.00  0.00    +0.000 C 
ATOM     29  C   UNL     1      -1.657  11.580  19.245  0.00  0.00    +0.000 C 
ENDBRANCH  21  24
ENDBRANCH   4  21
TORSDOF 7
ENDMDL
MODEL 9
REMARK VINA RESULT:      -7.6      2.155      8.800
REMARK  Name = 
REMARK  8 active torsions:
REMARK  status: ('A' for Active; 'I' for Inactive)
REMARK    1  A    between atoms: C_1  and  O_2
REMARK    2  A    between atoms: O_2  and  C_3
REMARK    3  A    between atoms: C_6  and  C_7
REMARK    4  A    between atoms: C_7  and  N_8
REMARK    5  A    between atoms: N_8  and  S_9
REMARK    6  A    between atoms: S_9  and  C_12
REMARK    7  A    between atoms: C_15  and  S_16
REMARK    8  A    between atoms: S_16  and  N_19
REMARK                            x       y       z     vdW  Elec       q    Type
REMARK                         _______ _______ _______ _____ _____    ______ ____
ROOT
ATOM      1  C   UNL     1       2.120   6.695  19.692  0.00  0.00    +0.000 A 
ATOM      2  C   UNL     1       1.447   7.273  20.771  0.00  0.00    +0.000 A 
ATOM      3  C   UNL     1       1.010   8.592  20.682  0.00  0.00    +0.000 A 
ATOM      4  C   UNL     1       1.281   9.351  19.536  0.00  0.00    +0.000 A 
ATOM      5  C   UNL     1       1.917   8.760  18.438  0.00  0.00    +0.000 A 
ATOM      6  C   UNL     1       2.359   7.451  18.544  0.00  0.00    +0.000 A 
ENDROOT
BRANCH   1   7
ATOM      7  S   UNL     1       2.770   5.048  19.821  0.00  0.00    +0.000 S 
ATOM      8  O   UNL     1       2.269   4.280  18.708  0.00  0.00    +0.000 OA
ATOM      9  O   UNL     1       2.572   4.609  21.194  0.00  0.00    +0.000 OA
BRANCH   7  10
ATOM     10  N   UNL     1       4.423   5.246  19.568  0.00  0.00    +0.000 NA
ATOM     11  H   UNL     1       4.595   6.141  19.101  0.00  0.00    +0.000 HD
BRANCH  10  12
ATOM     12  C   UNL     1       5.095   4.097  18.952  0.00  0.00    +0.000 C 
BRANCH  12  16
ATOM     13  C   UNL     1       6.628   4.891  15.000  0.00  0.00    +0.000 A 
ATOM     14  C   UNL     1       7.481   4.893  16.101  0.00  0.00    +0.000 A 
ATOM     15  C   UNL     1       6.992   4.604  17.377  0.00  0.00    +0.000 A 
ATOM     16  C   UNL     1       5.625   4.367  17.573  0.00  0.00    +0.000 A 
ATOM     17  C   UNL     1       4.775   4.358  16.461  0.00  0.00    +0.000 A 
ATOM     18  C   UNL     1       5.273   4.615  15.183  0.00  0.00    +0.000 A 
BRANCH  13  20
ATOM     19  C   UNL     1       7.011   4.207  12.775  0.00  0.00    +0.000 C 
ATOM     20  O   UNL     1       7.211   5.179  13.796  0.00  0.00    +0.000 OA
ENDBRANCH  13  20
ENDBRANCH  12  16
ENDBRANCH  10  12
ENDBRANCH   7  10
ENDBRANCH   1   7
BRANCH   4  21
ATOM     21  S   UNL     1       0.774  11.065  19.522  0.00  0.00    +0.000 S 
ATOM     22  O   UNL     1       0.953  11.580  20.853  0.00  0.00    +0.000 OA
ATOM     23  O   UNL     1       1.423  11.694  18.378  0.00  0.00    +0.000 OA
BRANCH  21  24
ATOM     24  N   UNL     1      -0.912  11.004  19.188  0.00  0.00    +0.000 NA
ATOM     25  C   UNL     1      -1.672  12.245  19.491  0.00  0.00    +0.000 C 
ATOM     26  C   UNL     1      -3.171  12.084  19.268  0.00  0.00    +0.000 C 
ATOM     27  C   UNL     1      -3.471  11.493  17.901  0.00  0.00    +0.000 C 
ATOM     28  C   UNL     1      -2.776  10.150  17.751  0.00  0.00    +0.000 C 
ATOM     29  C   UNL     1      -1.271  10.271  17.947  0.00  0.00    +0.000 C 
ENDBRANCH  21  24
ENDBRANCH   4  21
TORSDOF 7
ENDMDL
