MODEL 1
REMARK VINA RESULT:      -8.5      0.000      0.000
REMARK  Name = 
REMARK  7 active torsions:
REMARK  status: ('A' for Active; 'I' for Inactive)
REMARK    1  A    between atoms: C_1  and  C_2
REMARK    2  A    between atoms: C_10  and  O_11
REMARK    3  A    between atoms: O_11  and  C_12
REMARK    4  A    between atoms: C_12  and  C_13
REMARK    5  A    between atoms: N_15  and  C_16
REMARK    6  A    between atoms: C_16  and  C_17
REMARK    7  A    between atoms: C_25  and  C_26
REMARK                            x       y       z     vdW  Elec       q    Type
REMARK                         _______ _______ _______ _____ _____    ______ ____
ROOT
ATOM      1  C   UNL     1      -3.020  11.803  19.187  0.00  0.00    +0.000 C 
ATOM      2  C   UNL     1      -1.642  11.796  18.564  0.00  0.00    +0.000 C 
ATOM      3  O   UNL     1      -1.413  12.491  17.576  0.00  0.00    +0.000 OA
ATOM      4  N   UNL     1      -0.691  10.977  19.161  0.00  0.00    +0.000 N 
ATOM      5  C   UNL     1      -0.992  10.105  20.302  0.00  0.00    +0.000 C 
ATOM      6  C   UNL     1       0.196   9.391  20.958  0.00  0.00    +0.000 C 
ATOM      7  C   UNL     1       1.157   8.867  19.933  0.00  0.00    +0.000 A 
ATOM      8  C   UNL     1       1.912   7.720  20.187  0.00  0.00    +0.000 A 
ATOM      9  C   UNL     1       2.746   7.202  19.199  0.00  0.00    +0.000 A 
ATOM     10  C   UNL     1       2.821   7.807  17.945  0.00  0.00    +0.000 A 
ATOM     11  C   UNL     1       2.129   8.999  17.712  0.00  0.00    +0.000 A 
ATOM     12  C   UNL     1       1.315   9.560  18.720  0.00  0.00    +0.000 A 
ATOM     13  C   UNL     1       0.648  10.928  18.543  0.00  0.00    +0.000 C 
ENDROOT
BRANCH  13  14
ATOM     14  C   UNL     1       1.538  12.081  19.031  0.00  0.00    +0.000 A 
ATOM     15  C   UNL     1       2.409  12.727  18.138  0.00  0.00    +0.000 A 
ATOM     16  C   UNL     1       3.256  13.753  18.574  0.00  0.00    +0.000 A 
ATOM     17  C   UNL     1       3.254  14.147  19.910  0.00  0.00    +0.000 A 
ATOM     18  C   UNL     1       2.388  13.540  20.805  0.00  0.00    +0.000 A 
ATOM     19  C   UNL     1       1.530  12.525  20.368  0.00  0.00    +0.000 A 
ENDBRANCH  13  14
BRANCH  10  20
ATOM     20  O   UNL     1       3.662   7.182  17.064  0.00  0.00    +0.000 OA
BRANCH  20  21
ATOM     21  C   UNL     1       4.958   6.858  17.559  0.00  0.00    +0.000 C 
BRANCH  21  22
ATOM     22  C   UNL     1       4.943   5.462  18.193  0.00  0.00    +0.000 C 
ATOM     23  O   UNL     1       5.565   5.211  19.221  0.00  0.00    +0.000 OA
ATOM     24  N   UNL     1       4.239   4.509  17.487  0.00  0.00    +0.000 N 
ATOM     25  H   UNL     1       3.570   4.849  16.805  0.00  0.00    +0.000 HD
BRANCH  24  26
ATOM     26  C   UNL     1       4.071   3.168  18.005  0.00  0.00    +0.000 C 
BRANCH  26  27
ATOM     27  C   UNL     1       3.074   3.117  19.136  0.00  0.00    +0.000 A 
ATOM     28  C   UNL     1       3.456   2.651  20.403  0.00  0.00    +0.000 A 
ATOM     29  C   UNL     1       2.540   2.622  21.457  0.00  0.00    +0.000 A 
ATOM     30  C   UNL     1       1.235   3.070  21.261  0.00  0.00    +0.000 A 
ATOM     31  C   UNL     1       0.849   3.556  20.014  0.00  0.00    +0.000 A 
ATOM     32  C   UNL     1       1.763   3.582  18.957  0.00  0.00    +0.000 A 
ENDBRANCH  26  27
ENDBRANCH  24  26
ENDBRANCH  21  22
ENDBRANCH  20  21
ENDBRANCH  10  20
TORSDOF 6
ENDMDL
MODEL 2
REMARK VINA RESULT:      -8.3      0.553      1.024
REMARK  Name = 
REMARK  7 active torsions:
REMARK  status: ('A' for Active; 'I' for Inactive)
REMARK    1  A    between atoms: C_1  and  C_2
REMARK    2  A    between atoms: C_10  and  O_11
REMARK    3  A    between atoms: O_11  and  C_12
REMARK    4  A    between atoms: C_12  and  C_13
REMARK    5  A    between atoms: N_15  and  C_16
REMARK    6  A    between atoms: C_16  and  C_17
REMARK    7  A    between atoms: C_25  and  C_26
REMARK                            x       y       z     vdW  Elec       q    Type
REMARK                         _______ _______ _______ _____ _____    ______ ____
ROOT
ATOM      1  C   UNL     1      -2.931  12.407  20.212  0.00  0.00    +0.000 C 
ATOM      2  C   UNL     1      -1.686  12.279  19.364  0.00  0.00    +0.000 C 
ATOM      3  O   UNL     1      -1.581  12.931  18.327  0.00  0.00    +0.000 OA
ATOM      4  N   UNL     1      -0.707  11.403  19.819  0.00  0.00    +0.000 N 
ATOM      5  C   UNL     1      -0.869  10.584  21.025  0.00  0.00    +0.000 C 
ATOM      6  C   UNL     1       0.360   9.796  21.495  0.00  0.00    +0.000 C 
ATOM      7  C   UNL     1       1.089   9.175  20.341  0.00  0.00    +0.000 A 
ATOM      8  C   UNL     1       1.792   7.979  20.504  0.00  0.00    +0.000 A 
ATOM      9  C   UNL     1       2.403   7.375  19.408  0.00  0.00    +0.000 A 
ATOM     10  C   UNL     1       2.303   7.943  18.138  0.00  0.00    +0.000 A 
ATOM     11  C   UNL     1       1.669   9.179  17.983  0.00  0.00    +0.000 A 
ATOM     12  C   UNL     1       1.084   9.825  19.095  0.00  0.00    +0.000 A 
ATOM     13  C   UNL     1       0.498  11.236  18.984  0.00  0.00    +0.000 C 
ENDROOT
BRANCH  13  14
ATOM     14  C   UNL     1       1.540  12.328  19.271  0.00  0.00    +0.000 A 
ATOM     15  C   UNL     1       2.318  12.852  18.225  0.00  0.00    +0.000 A 
ATOM     16  C   UNL     1       3.300  13.819  18.474  0.00  0.00    +0.000 A 
ATOM     17  C   UNL     1       3.527  14.274  19.771  0.00  0.00    +0.000 A 
ATOM     18  C   UNL     1       2.757  13.787  20.815  0.00  0.00    +0.000 A 
ATOM     19  C   UNL     1       1.765  12.832  20.566  0.00  0.00    +0.000 A 
ENDBRANCH  13  14
BRANCH  10  20
ATOM     20  O   UNL     1       2.932   7.234  17.150  0.00  0.00    +0.000 OA
BRANCH  20  21
ATOM     21  C   UNL     1       4.325   7.003  17.335  0.00  0.00    +0.000 C 
BRANCH  21  22
ATOM     22  C   UNL     1       4.547   5.638  17.996  0.00  0.00    +0.000 C 
ATOM     23  O   UNL     1       5.310   5.496  18.948  0.00  0.00    +0.000 OA
ATOM     24  N   UNL     1       3.883   4.587  17.400  0.00  0.00    +0.000 N 
ATOM     25  H   UNL     1       3.104   4.824  16.796  0.00  0.00    +0.000 HD
BRANCH  24  26
ATOM     26  C   UNL     1       3.934   3.255  17.963  0.00  0.00    +0.000 C 
BRANCH  26  27
ATOM     27  C   UNL     1       3.019   3.105  19.153  0.00  0.00    +0.000 A 
ATOM     28  C   UNL     1       1.641   3.334  19.027  0.00  0.00    +0.000 A 
ATOM     29  C   UNL     1       0.790   3.176  20.123  0.00  0.00    +0.000 A 
ATOM     30  C   UNL     1       1.304   2.777  21.355  0.00  0.00    +0.000 A 
ATOM     31  C   UNL     1       2.668   2.525  21.489  0.00  0.00    +0.000 A 
ATOM     32  C   UNL     1       3.521   2.686  20.394  0.00  0.00    +0.000 A 
ENDBRANCH  26  27
ENDBRANCH  24  26
ENDBRANCH  21  22
ENDBRANCH  20  21
ENDBRANCH  10  20
TORSDOF 6
ENDMDL
MODEL 3
REMARK VINA RESULT:      -7.8      2.536      4.116
REMARK  Name = 
REMARK  7 active torsions:
REMARK  status: ('A' for Active; 'I' for Inactive)
REMARK    1  A    between atoms: C_1  and  C_2
REMARK    2  A    between atoms: C_10  and  O_11
REMARK    3  A    between atoms: O_11  and  C_12
REMARK    4  A    between atoms: C_12  and  C_13
REMARK    5  A    between atoms: N_15  and  C_16
REMARK    6  A    between atoms: C_16  and  C_17
REMARK    7  A    between atoms: C_25  and  C_26
REMARK                            x       y       z     vdW  Elec       q    Type
REMARK                         _______ _______ _______ _____ _____    ______ ____
ROOT
ATOM      1  C   UNL     1      -3.144  11.876  18.997  0.00  0.00    +0.000 C 
ATOM      2  C   UNL     1      -1.745  11.765  18.434  0.00  0.00    +0.000 C 
ATOM      3  O   UNL     1      -1.458  12.344  17.387  0.00  0.00    +0.000 OA
ATOM      4  N   UNL     1      -0.842  10.991  19.153  0.00  0.00    +0.000 N 
ATOM      5  C   UNL     1      -1.212  10.255  20.367  0.00  0.00    +0.000 C 
ATOM      6  C   UNL     1      -0.072   9.585  21.143  0.00  0.00    +0.000 C 
ATOM      7  C   UNL     1       0.911   8.929  20.219  0.00  0.00    +0.000 A 
ATOM      8  C   UNL     1       1.620   7.796  20.625  0.00  0.00    +0.000 A 
ATOM      9  C   UNL     1       2.474   7.153  19.732  0.00  0.00    +0.000 A 
ATOM     10  C   UNL     1       2.614   7.616  18.425  0.00  0.00    +0.000 A 
ATOM     11  C   UNL     1       1.968   8.794  18.038  0.00  0.00    +0.000 A 
ATOM     12  C   UNL     1       1.134   9.482  18.947  0.00  0.00    +0.000 A 
ATOM     13  C   UNL     1       0.517  10.840  18.598  0.00  0.00    +0.000 C 
ENDROOT
BRANCH  13  14
ATOM     14  C   UNL     1       1.423  12.015  18.995  0.00  0.00    +0.000 A 
ATOM     15  C   UNL     1       1.338  12.568  20.284  0.00  0.00    +0.000 A 
ATOM     16  C   UNL     1       2.128  13.664  20.650  0.00  0.00    +0.000 A 
ATOM     17  C   UNL     1       3.010  14.233  19.734  0.00  0.00    +0.000 A 
ATOM     18  C   UNL     1       3.127  13.691  18.464  0.00  0.00    +0.000 A 
ATOM     19  C   UNL     1       2.350  12.586  18.101  0.00  0.00    +0.000 A 
ENDBRANCH  13  14
BRANCH  10  20
ATOM     20  O   UNL     1       3.467   6.878  17.650  0.00  0.00    +0.000 OA
BRANCH  20  21
ATOM     21  C   UNL     1       4.033   5.725  18.266  0.00  0.00    +0.000 C 
BRANCH  21  22
ATOM     22  C   UNL     1       5.481   5.538  17.800  0.00  0.00    +0.000 C 
ATOM     23  O   UNL     1       6.431   5.962  18.453  0.00  0.00    +0.000 OA
ATOM     24  N   UNL     1       5.624   4.926  16.573  0.00  0.00    +0.000 N 
ATOM     25  H   UNL     1       4.827   4.400  16.231  0.00  0.00    +0.000 HD
BRANCH  24  26
ATOM     26  C   UNL     1       6.933   4.610  16.043  0.00  0.00    +0.000 C 
BRANCH  26  27
ATOM     27  C   UNL     1       6.925   4.495  14.539  0.00  0.00    +0.000 A 
ATOM     28  C   UNL     1       7.785   5.282  13.758  0.00  0.00    +0.000 A 
ATOM     29  C   UNL     1       7.793   5.161  12.366  0.00  0.00    +0.000 A 
ATOM     30  C   UNL     1       6.950   4.245  11.739  0.00  0.00    +0.000 A 
ATOM     31  C   UNL     1       6.107   3.442  12.504  0.00  0.00    +0.000 A 
ATOM     32  C   UNL     1       6.095   3.564  13.896  0.00  0.00    +0.000 A 
ENDBRANCH  26  27
ENDBRANCH  24  26
ENDBRANCH  21  22
ENDBRANCH  20  21
ENDBRANCH  10  20
TORSDOF 6
ENDMDL
MODEL 4
REMARK VINA RESULT:      -7.8      2.493      4.024
REMARK  Name = 
REMARK  7 active torsions:
REMARK  status: ('A' for Active; 'I' for Inactive)
REMARK    1  A    between atoms: C_1  and  C_2
REMARK    2  A    between atoms: C_10  and  O_11
REMARK    3  A    between atoms: O_11  and  C_12
REMARK    4  A    between atoms: C_12  and  C_13
REMARK    5  A    between atoms: N_15  and  C_16
REMARK    6  A    between atoms: C_16  and  C_17
REMARK    7  A    between atoms: C_25  and  C_26
REMARK                            x       y       z     vdW  Elec       q    Type
REMARK                         _______ _______ _______ _____ _____    ______ ____
ROOT
ATOM      1  C   UNL     1      -2.997  12.165  19.575  0.00  0.00    +0.000 C 
ATOM      2  C   UNL     1      -1.684  11.984  18.848  0.00  0.00    +0.000 C 
ATOM      3  O   UNL     1      -1.500  12.540  17.766  0.00  0.00    +0.000 OA
ATOM      4  N   UNL     1      -0.736  11.174  19.462  0.00  0.00    +0.000 N 
ATOM      5  C   UNL     1      -0.988  10.466  20.722  0.00  0.00    +0.000 C 
ATOM      6  C   UNL     1       0.206   9.749  21.363  0.00  0.00    +0.000 C 
ATOM      7  C   UNL     1       1.038   9.040  20.336  0.00  0.00    +0.000 A 
ATOM      8  C   UNL     1       1.739   7.879  20.667  0.00  0.00    +0.000 A 
ATOM      9  C   UNL     1       2.447   7.189  19.687  0.00  0.00    +0.000 A 
ATOM     10  C   UNL     1       2.447   7.635  18.366  0.00  0.00    +0.000 A 
ATOM     11  C   UNL     1       1.813   8.839  18.044  0.00  0.00    +0.000 A 
ATOM     12  C   UNL     1       1.129   9.572  19.038  0.00  0.00    +0.000 A 
ATOM     13  C   UNL     1       0.537  10.955  18.749  0.00  0.00    +0.000 C 
ENDROOT
BRANCH  13  14
ATOM     14  C   UNL     1       1.537  12.089  19.017  0.00  0.00    +0.000 A 
ATOM     15  C   UNL     1       1.413  12.883  20.170  0.00  0.00    +0.000 A 
ATOM     16  C   UNL     1       2.291  13.946  20.410  0.00  0.00    +0.000 A 
ATOM     17  C   UNL     1       3.305  14.240  19.501  0.00  0.00    +0.000 A 
ATOM     18  C   UNL     1       3.460  13.458  18.368  0.00  0.00    +0.000 A 
ATOM     19  C   UNL     1       2.593  12.386  18.133  0.00  0.00    +0.000 A 
ENDBRANCH  13  14
BRANCH  10  20
ATOM     20  O   UNL     1       3.165   6.851  17.503  0.00  0.00    +0.000 OA
BRANCH  20  21
ATOM     21  C   UNL     1       3.540   5.566  17.990  0.00  0.00    +0.000 C 
BRANCH  21  22
ATOM     22  C   UNL     1       4.977   5.244  17.567  0.00  0.00    +0.000 C 
ATOM     23  O   UNL     1       5.731   4.590  18.283  0.00  0.00    +0.000 OA
ATOM     24  N   UNL     1       5.371   5.798  16.367  0.00  0.00    +0.000 N 
ATOM     25  H   UNL     1       4.632   6.102  15.743  0.00  0.00    +0.000 HD
BRANCH  24  26
ATOM     26  C   UNL     1       6.673   5.513  15.803  0.00  0.00    +0.000 C 
BRANCH  26  27
ATOM     27  C   UNL     1       6.574   4.828  14.462  0.00  0.00    +0.000 A 
ATOM     28  C   UNL     1       5.413   4.126  14.104  0.00  0.00    +0.000 A 
ATOM     29  C   UNL     1       5.312   3.509  12.855  0.00  0.00    +0.000 A 
ATOM     30  C   UNL     1       6.364   3.597  11.945  0.00  0.00    +0.000 A 
ATOM     31  C   UNL     1       7.512   4.310  12.279  0.00  0.00    +0.000 A 
ATOM     32  C   UNL     1       7.617   4.924  13.530  0.00  0.00    +0.000 A 
ENDBRANCH  26  27
ENDBRANCH  24  26
ENDBRANCH  21  22
ENDBRANCH  20  21
ENDBRANCH  10  20
TORSDOF 6
ENDMDL
MODEL 5
REMARK VINA RESULT:      -7.7      4.122      8.851
REMARK  Name = 
REMARK  7 active torsions:
REMARK  status: ('A' for Active; 'I' for Inactive)
REMARK    1  A    between atoms: C_1  and  C_2
REMARK    2  A    between atoms: C_10  and  O_11
REMARK    3  A    between atoms: O_11  and  C_12
REMARK    4  A    between atoms: C_12  and  C_13
REMARK    5  A    between atoms: N_15  and  C_16
REMARK    6  A    between atoms: C_16  and  C_17
REMARK    7  A    between atoms: C_25  and  C_26
REMARK                            x       y       z     vdW  Elec       q    Type
REMARK                         _______ _______ _______ _____ _____    ______ ____
ROOT
ATOM      1  C   UNL     1      -2.790  10.793  16.025  0.00  0.00    +0.000 C 
ATOM      2  C   UNL     1      -2.498  10.388  17.452  0.00  0.00    +0.000 C 
ATOM      3  O   UNL     1      -2.988   9.356  17.908  0.00  0.00    +0.000 OA
ATOM      4  N   UNL     1      -1.672  11.231  18.185  0.00  0.00    +0.000 N 
ATOM      5  C   UNL     1      -1.142  12.491  17.650  0.00  0.00    +0.000 C 
ATOM      6  C   UNL     1      -0.110  13.228  18.512  0.00  0.00    +0.000 C 
ATOM      7  C   UNL     1      -0.490  13.207  19.963  0.00  0.00    +0.000 A 
ATOM      8  C   UNL     1      -0.121  14.255  20.809  0.00  0.00    +0.000 A 
ATOM      9  C   UNL     1      -0.544  14.261  22.136  0.00  0.00    +0.000 A 
ATOM     10  C   UNL     1      -1.353  13.237  22.627  0.00  0.00    +0.000 A 
ATOM     11  C   UNL     1      -1.659  12.147  21.807  0.00  0.00    +0.000 A 
ATOM     12  C   UNL     1      -1.199  12.106  20.473  0.00  0.00    +0.000 A 
ATOM     13  C   UNL     1      -1.407  10.871  19.591  0.00  0.00    +0.000 C 
ENDROOT
BRANCH  13  14
ATOM     14  C   UNL     1      -0.251   9.866  19.709  0.00  0.00    +0.000 A 
ATOM     15  C   UNL     1      -0.104   9.093  20.872  0.00  0.00    +0.000 A 
ATOM     16  C   UNL     1       0.965   8.201  21.014  0.00  0.00    +0.000 A 
ATOM     17  C   UNL     1       1.911   8.070  19.999  0.00  0.00    +0.000 A 
ATOM     18  C   UNL     1       1.775   8.807  18.834  0.00  0.00    +0.000 A 
ATOM     19  C   UNL     1       0.699   9.688  18.684  0.00  0.00    +0.000 A 
ENDBRANCH  13  14
BRANCH  10  20
ATOM     20  O   UNL     1      -1.711  13.379  23.941  0.00  0.00    +0.000 OA
BRANCH  20  21
ATOM     21  C   UNL     1      -2.903  14.120  24.187  0.00  0.00    +0.000 C 
BRANCH  21  22
ATOM     22  C   UNL     1      -4.131  13.253  23.888  0.00  0.00    +0.000 C 
ATOM     23  O   UNL     1      -4.322  12.182  24.457  0.00  0.00    +0.000 OA
ATOM     24  N   UNL     1      -4.955  13.734  22.892  0.00  0.00    +0.000 N 
ATOM     25  H   UNL     1      -4.862  14.716  22.658  0.00  0.00    +0.000 HD
BRANCH  24  26
ATOM     26  C   UNL     1      -6.194  13.064  22.557  0.00  0.00    +0.000 C 
BRANCH  26  27
ATOM     27  C   UNL     1      -6.131  12.394  21.207  0.00  0.00    +0.000 A 
ATOM     28  C   UNL     1      -7.146  11.516  20.798  0.00  0.00    +0.000 A 
ATOM     29  C   UNL     1      -7.100  10.911  19.540  0.00  0.00    +0.000 A 
ATOM     30  C   UNL     1      -6.045  11.186  18.671  0.00  0.00    +0.000 A 
ATOM     31  C   UNL     1      -5.043  12.073  19.056  0.00  0.00    +0.000 A 
ATOM     32  C   UNL     1      -5.085  12.676  20.316  0.00  0.00    +0.000 A 
ENDBRANCH  26  27
ENDBRANCH  24  26
ENDBRANCH  21  22
ENDBRANCH  20  21
ENDBRANCH  10  20
TORSDOF 6
ENDMDL
MODEL 6
REMARK VINA RESULT:      -7.7      4.971      9.110
REMARK  Name = 
REMARK  7 active torsions:
REMARK  status: ('A' for Active; 'I' for Inactive)
REMARK    1  A    between atoms: C_1  and  C_2
REMARK    2  A    between atoms: C_10  and  O_11
REMARK    3  A    between atoms: O_11  and  C_12
REMARK    4  A    between atoms: C_12  and  C_13
REMARK    5  A    between atoms: N_15  and  C_16
REMARK    6  A    between atoms: C_16  and  C_17
REMARK    7  A    between atoms: C_25  and  C_26
REMARK                            x       y       z     vdW  Elec       q    Type
REMARK                         _______ _______ _______ _____ _____    ______ ____
ROOT
ATOM      1  C   UNL     1       0.993   9.586  22.081  0.00  0.00    +0.000 C 
ATOM      2  C   UNL     1       0.054  10.732  21.777  0.00  0.00    +0.000 C 
ATOM      3  O   UNL     1      -0.254  11.524  22.666  0.00  0.00    +0.000 OA
ATOM      4  N   UNL     1      -0.420  10.821  20.474  0.00  0.00    +0.000 N 
ATOM      5  C   UNL     1      -0.095   9.836  19.437  0.00  0.00    +0.000 C 
ATOM      6  C   UNL     1      -0.551  10.159  18.009  0.00  0.00    +0.000 C 
ATOM      7  C   UNL     1      -1.935  10.738  17.992  0.00  0.00    +0.000 A 
ATOM      8  C   UNL     1      -2.777  10.535  16.896  0.00  0.00    +0.000 A 
ATOM      9  C   UNL     1      -4.084  11.015  16.923  0.00  0.00    +0.000 A 
ATOM     10  C   UNL     1      -4.571  11.681  18.047  0.00  0.00    +0.000 A 
ATOM     11  C   UNL     1      -3.710  11.956  19.113  0.00  0.00    +0.000 A 
ATOM     12  C   UNL     1      -2.369  11.515  19.079  0.00  0.00    +0.000 A 
ATOM     13  C   UNL     1      -1.367  11.911  20.169  0.00  0.00    +0.000 C 
ENDROOT
BRANCH  13  14
ATOM     14  C   UNL     1      -0.635  13.222  19.844  0.00  0.00    +0.000 A 
ATOM     15  C   UNL     1      -1.200  14.455  20.212  0.00  0.00    +0.000 A 
ATOM     16  C   UNL     1      -0.567  15.661  19.889  0.00  0.00    +0.000 A 
ATOM     17  C   UNL     1       0.637  15.658  19.187  0.00  0.00    +0.000 A 
ATOM     18  C   UNL     1       1.223  14.453  18.833  0.00  0.00    +0.000 A 
ATOM     19  C   UNL     1       0.600  13.247  19.168  0.00  0.00    +0.000 A 
ENDBRANCH  13  14
BRANCH  10  20
ATOM     20  O   UNL     1      -5.877  12.079  17.947  0.00  0.00    +0.000 OA
BRANCH  20  21
ATOM     21  C   UNL     1      -6.854  11.134  18.377  0.00  0.00    +0.000 C 
BRANCH  21  22
ATOM     22  C   UNL     1      -7.026  11.212  19.898  0.00  0.00    +0.000 C 
ATOM     23  O   UNL     1      -7.127  10.203  20.590  0.00  0.00    +0.000 OA
ATOM     24  N   UNL     1      -7.125  12.489  20.409  0.00  0.00    +0.000 N 
ATOM     25  H   UNL     1      -6.791  13.243  19.819  0.00  0.00    +0.000 HD
BRANCH  24  26
ATOM     26  C   UNL     1      -7.210  12.720  21.835  0.00  0.00    +0.000 C 
BRANCH  26  27
ATOM     27  C   UNL     1      -5.972  13.392  22.376  0.00  0.00    +0.000 A 
ATOM     28  C   UNL     1      -6.054  14.654  22.985  0.00  0.00    +0.000 A 
ATOM     29  C   UNL     1      -4.913  15.268  23.505  0.00  0.00    +0.000 A 
ATOM     30  C   UNL     1      -3.678  14.624  23.433  0.00  0.00    +0.000 A 
ATOM     31  C   UNL     1      -3.587  13.363  22.851  0.00  0.00    +0.000 A 
ATOM     32  C   UNL     1      -4.728  12.748  22.327  0.00  0.00    +0.000 A 
ENDBRANCH  26  27
ENDBRANCH  24  26
ENDBRANCH  21  22
ENDBRANCH  20  21
ENDBRANCH  10  20
TORSDOF 6
ENDMDL
MODEL 7
REMARK VINA RESULT:      -7.6      1.922      4.311
REMARK  Name = 
REMARK  7 active torsions:
REMARK  status: ('A' for Active; 'I' for Inactive)
REMARK    1  A    between atoms: C_1  and  C_2
REMARK    2  A    between atoms: C_10  and  O_11
REMARK    3  A    between atoms: O_11  and  C_12
REMARK    4  A    between atoms: C_12  and  C_13
REMARK    5  A    between atoms: N_15  and  C_16
REMARK    6  A    between atoms: C_16  and  C_17
REMARK    7  A    between atoms: C_25  and  C_26
REMARK                            x       y       z     vdW  Elec       q    Type
REMARK                         _______ _______ _______ _____ _____    ______ ____
ROOT
ATOM      1  C   UNL     1       1.550  14.435  19.932  0.00  0.00    +0.000 C 
ATOM      2  C   UNL     1       0.778  13.164  20.204  0.00  0.00    +0.000 C 
ATOM      3  O   UNL     1      -0.085  13.146  21.080  0.00  0.00    +0.000 OA
ATOM      4  N   UNL     1       1.101  12.058  19.426  0.00  0.00    +0.000 N 
ATOM      5  C   UNL     1       2.174  12.073  18.426  0.00  0.00    +0.000 C 
ATOM      6  C   UNL     1       2.300  10.835  17.530  0.00  0.00    +0.000 C 
ATOM      7  C   UNL     1       2.112   9.569  18.311  0.00  0.00    +0.000 A 
ATOM      8  C   UNL     1       2.759   8.393  17.926  0.00  0.00    +0.000 A 
ATOM      9  C   UNL     1       2.635   7.243  18.702  0.00  0.00    +0.000 A 
ATOM     10  C   UNL     1       1.886   7.258  19.877  0.00  0.00    +0.000 A 
ATOM     11  C   UNL     1       1.171   8.409  20.225  0.00  0.00    +0.000 A 
ATOM     12  C   UNL     1       1.252   9.568  19.423  0.00  0.00    +0.000 A 
ATOM     13  C   UNL     1       0.384  10.798  19.704  0.00  0.00    +0.000 C 
ENDROOT
BRANCH  13  14
ATOM     14  C   UNL     1      -0.966  10.743  18.972  0.00  0.00    +0.000 A 
ATOM     15  C   UNL     1      -1.136   9.892  17.868  0.00  0.00    +0.000 A 
ATOM     16  C   UNL     1      -2.345   9.858  17.165  0.00  0.00    +0.000 A 
ATOM     17  C   UNL     1      -3.405  10.678  17.548  0.00  0.00    +0.000 A 
ATOM     18  C   UNL     1      -3.268  11.510  18.647  0.00  0.00    +0.000 A 
ATOM     19  C   UNL     1      -2.065  11.534  19.360  0.00  0.00    +0.000 A 
ENDBRANCH  13  14
BRANCH  10  20
ATOM     20  O   UNL     1       1.866   6.067  20.552  0.00  0.00    +0.000 OA
BRANCH  20  21
ATOM     21  C   UNL     1       1.012   5.060  20.018  0.00  0.00    +0.000 C 
BRANCH  21  22
ATOM     22  C   UNL     1       1.779   4.206  19.003  0.00  0.00    +0.000 C 
ATOM     23  O   UNL     1       1.256   3.810  17.964  0.00  0.00    +0.000 OA
ATOM     24  N   UNL     1       3.062   3.866  19.377  0.00  0.00    +0.000 N 
ATOM     25  H   UNL     1       3.486   4.425  20.109  0.00  0.00    +0.000 HD
BRANCH  24  26
ATOM     26  C   UNL     1       3.932   3.132  18.483  0.00  0.00    +0.000 C 
BRANCH  26  27
ATOM     27  C   UNL     1       4.888   4.038  17.749  0.00  0.00    +0.000 A 
ATOM     28  C   UNL     1       5.989   4.601  18.412  0.00  0.00    +0.000 A 
ATOM     29  C   UNL     1       6.887   5.424  17.729  0.00  0.00    +0.000 A 
ATOM     30  C   UNL     1       6.702   5.685  16.372  0.00  0.00    +0.000 A 
ATOM     31  C   UNL     1       5.626   5.115  15.696  0.00  0.00    +0.000 A 
ATOM     32  C   UNL     1       4.724   4.294  16.380  0.00  0.00    +0.000 A 
ENDBRANCH  26  27
ENDBRANCH  24  26
ENDBRANCH  21  22
ENDBRANCH  20  21
ENDBRANCH  10  20
TORSDOF 6
ENDMDL
MODEL 8
REMARK VINA RESULT:      -7.5      1.871      3.404
REMARK  Name = 
REMARK  7 active torsions:
REMARK  status: ('A' for Active; 'I' for Inactive)
REMARK    1  A    between atoms: C_1  and  C_2
REMARK    2  A    between atoms: C_10  and  O_11
REMARK    3  A    between atoms: O_11  and  C_12
REMARK    4  A    between atoms: C_12  and  C_13
REMARK    5  A    between atoms: N_15  and  C_16
REMARK    6  A    between atoms: C_16  and  C_17
REMARK    7  A    between atoms: C_25  and  C_26
REMARK                            x       y       z     vdW  Elec       q    Type
REMARK                         _______ _______ _______ _____ _____    ______ ____
ROOT
ATOM      1  C   UNL     1      -3.993  12.505  19.230  0.00  0.00    +0.000 C 
ATOM      2  C   UNL     1      -2.654  12.023  18.719  0.00  0.00    +0.000 C 
ATOM      3  O   UNL     1      -2.441  11.976  17.509  0.00  0.00    +0.000 OA
ATOM      4  N   UNL     1      -1.719  11.647  19.676  0.00  0.00    +0.000 N 
ATOM      5  C   UNL     1      -2.005  11.649  21.115  0.00  0.00    +0.000 C 
ATOM      6  C   UNL     1      -0.825  11.374  22.054  0.00  0.00    +0.000 C 
ATOM      7  C   UNL     1       0.048  10.272  21.533  0.00  0.00    +0.000 A 
ATOM      8  C   UNL     1       0.751   9.445  22.412  0.00  0.00    +0.000 A 
ATOM      9  C   UNL     1       1.499   8.380  21.919  0.00  0.00    +0.000 A 
ATOM     10  C   UNL     1       1.538   8.114  20.551  0.00  0.00    +0.000 A 
ATOM     11  C   UNL     1       0.902   8.985  19.660  0.00  0.00    +0.000 A 
ATOM     12  C   UNL     1       0.177  10.095  20.145  0.00  0.00    +0.000 A 
ATOM     13  C   UNL     1      -0.420  11.138  19.195  0.00  0.00    +0.000 C 
ENDROOT
BRANCH  13  14
ATOM     14  C   UNL     1       0.558  12.282  18.889  0.00  0.00    +0.000 A 
ATOM     15  C   UNL     1       1.863  11.998  18.455  0.00  0.00    +0.000 A 
ATOM     16  C   UNL     1       2.781  13.026  18.210  0.00  0.00    +0.000 A 
ATOM     17  C   UNL     1       2.414  14.356  18.402  0.00  0.00    +0.000 A 
ATOM     18  C   UNL     1       1.125  14.662  18.810  0.00  0.00    +0.000 A 
ATOM     19  C   UNL     1       0.203  13.637  19.040  0.00  0.00    +0.000 A 
ENDBRANCH  13  14
BRANCH  10  20
ATOM     20  O   UNL     1       2.293   7.025  20.206  0.00  0.00    +0.000 OA
BRANCH  20  21
ATOM     21  C   UNL     1       1.801   5.760  20.639  0.00  0.00    +0.000 C 
BRANCH  21  22
ATOM     22  C   UNL     1       2.450   4.638  19.822  0.00  0.00    +0.000 C 
ATOM     23  O   UNL     1       1.831   3.623  19.511  0.00  0.00    +0.000 OA
ATOM     24  N   UNL     1       3.784   4.826  19.528  0.00  0.00    +0.000 N 
ATOM     25  H   UNL     1       4.138   5.773  19.603  0.00  0.00    +0.000 HD
BRANCH  24  26
ATOM     26  C   UNL     1       4.506   3.888  18.695  0.00  0.00    +0.000 C 
BRANCH  26  27
ATOM     27  C   UNL     1       4.869   4.480  17.356  0.00  0.00    +0.000 A 
ATOM     28  C   UNL     1       4.771   5.863  17.137  0.00  0.00    +0.000 A 
ATOM     29  C   UNL     1       5.127   6.415  15.904  0.00  0.00    +0.000 A 
ATOM     30  C   UNL     1       5.596   5.595  14.880  0.00  0.00    +0.000 A 
ATOM     31  C   UNL     1       5.720   4.224  15.092  0.00  0.00    +0.000 A 
ATOM     32  C   UNL     1       5.361   3.669  16.324  0.00  0.00    +0.000 A 
ENDBRANCH  26  27
ENDBRANCH  24  26
ENDBRANCH  21  22
ENDBRANCH  20  21
ENDBRANCH  10  20
TORSDOF 6
ENDMDL
MODEL 9
REMARK VINA RESULT:      -7.5      1.916      4.381
REMARK  Name = 
REMARK  7 active torsions:
REMARK  status: ('A' for Active; 'I' for Inactive)
REMARK    1  A    between atoms: C_1  and  C_2
REMARK    2  A    between atoms: C_10  and  O_11
REMARK    3  A    between atoms: O_11  and  C_12
REMARK    4  A    between atoms: C_12  and  C_13
REMARK    5  A    between atoms: N_15  and  C_16
REMARK    6  A    between atoms: C_16  and  C_17
REMARK    7  A    between atoms: C_25  and  C_26
REMARK                            x       y       z     vdW  Elec       q    Type
REMARK                         _______ _______ _______ _____ _____    ______ ____
ROOT
ATOM      1  C   UNL     1       1.460  14.531  20.014  0.00  0.00    +0.000 C 
ATOM      2  C   UNL     1       0.680  13.264  20.288  0.00  0.00    +0.000 C 
ATOM      3  O   UNL     1      -0.191  13.257  21.156  0.00  0.00    +0.000 OA
ATOM      4  N   UNL     1       1.006  12.152  19.522  0.00  0.00    +0.000 N 
ATOM      5  C   UNL     1       2.089  12.155  18.531  0.00  0.00    +0.000 C 
ATOM      6  C   UNL     1       2.218  10.910  17.646  0.00  0.00    +0.000 C 
ATOM      7  C   UNL     1       2.018   9.650  18.435  0.00  0.00    +0.000 A 
ATOM      8  C   UNL     1       2.665   8.469  18.065  0.00  0.00    +0.000 A 
ATOM      9  C   UNL     1       2.529   7.326  18.848  0.00  0.00    +0.000 A 
ATOM     10  C   UNL     1       1.768   7.352  20.016  0.00  0.00    +0.000 A 
ATOM     11  C   UNL     1       1.055   8.508  20.348  0.00  0.00    +0.000 A 
ATOM     12  C   UNL     1       1.148   9.661  19.538  0.00  0.00    +0.000 A 
ATOM     13  C   UNL     1       0.282  10.897  19.802  0.00  0.00    +0.000 C 
ENDROOT
BRANCH  13  14
ATOM     14  C   UNL     1      -1.061  10.841  19.058  0.00  0.00    +0.000 A 
ATOM     15  C   UNL     1      -1.219   9.993  17.949  0.00  0.00    +0.000 A 
ATOM     16  C   UNL     1      -2.422   9.959  17.235  0.00  0.00    +0.000 A 
ATOM     17  C   UNL     1      -3.487  10.776  17.611  0.00  0.00    +0.000 A 
ATOM     18  C   UNL     1      -3.361  11.605  18.714  0.00  0.00    +0.000 A 
ATOM     19  C   UNL     1      -2.165  11.629  19.437  0.00  0.00    +0.000 A 
ENDBRANCH  13  14
BRANCH  10  20
ATOM     20  O   UNL     1       1.737   6.167  20.699  0.00  0.00    +0.000 OA
BRANCH  20  21
ATOM     21  C   UNL     1       1.260   5.038  19.973  0.00  0.00    +0.000 C 
BRANCH  21  22
ATOM     22  C   UNL     1       2.437   4.156  19.542  0.00  0.00    +0.000 C 
ATOM     23  O   UNL     1       3.179   3.619  20.361  0.00  0.00    +0.000 OA
ATOM     24  N   UNL     1       2.635   4.071  18.180  0.00  0.00    +0.000 N 
ATOM     25  H   UNL     1       1.852   4.331  17.589  0.00  0.00    +0.000 HD
BRANCH  24  26
ATOM     26  C   UNL     1       3.657   3.211  17.624  0.00  0.00    +0.000 C 
BRANCH  26  27
ATOM     27  C   UNL     1       4.860   3.989  17.152  0.00  0.00    +0.000 A 
ATOM     28  C   UNL     1       5.090   4.186  15.782  0.00  0.00    +0.000 A 
ATOM     29  C   UNL     1       6.192   4.924  15.344  0.00  0.00    +0.000 A 
ATOM     30  C   UNL     1       7.071   5.483  16.271  0.00  0.00    +0.000 A 
ATOM     31  C   UNL     1       6.842   5.313  17.634  0.00  0.00    +0.000 A 
ATOM     32  C   UNL     1       5.742   4.572  18.073  0.00  0.00    +0.000 A 
ENDBRANCH  26  27
ENDBRANCH  24  26
ENDBRANCH  21  22
ENDBRANCH  20  21
ENDBRANCH  10  20
TORSDOF 6
ENDMDL
