MODEL 1
REMARK VINA RESULT:      -9.0      0.000      0.000
REMARK  Name = 
REMARK  12 active torsions:
REMARK  status: ('A' for Active; 'I' for Inactive)
REMARK    1  A    between atoms: C_1  and  C_2
REMARK    2  A    between atoms: C_2  and  C_3
REMARK    3  A    between atoms: C_3  and  C_4
REMARK    4  A    between atoms: C_4  and  C_5
REMARK    5  A    between atoms: C_5  and  C_6
REMARK    6  A    between atoms: C_9  and  C_10
REMARK    7  A    between atoms: C_15  and  C_16
REMARK    8  A    between atoms: N_19  and  C1*_20
REMARK    9  A    between atoms: C4*_22  and  C5*_23
REMARK   10  A    between atoms: C5*_23  and  O5*_24
REMARK   11  A    between atoms: C3*_25  and  O3*_26
REMARK   12  A    between atoms: C2*_27  and  O2*_28
REMARK                            x       y       z     vdW  Elec       q    Type
REMARK                         _______ _______ _______ _____ _____    ______ ____
ROOT
ATOM      1  C   UNL     1       3.572   6.064  18.167  0.00  0.00    +0.000 A 
ATOM      2  C   UNL     1       2.948   7.277  18.325  0.00  0.00    +0.000 A 
ATOM      3  N   UNL     1       2.330   7.223  19.564  0.00  0.00    +0.000 N 
ATOM      4  C   UNL     1       1.525   8.262  20.140  0.00  0.00    +0.000 A 
ATOM      5  N   UNL     1       1.002   8.235  21.414  0.00  0.00    +0.000 NA
ATOM      6  C   UNL     1       0.427   9.430  21.529  0.00  0.00    +0.000 A 
ATOM      7  N   UNL     1       0.523  10.077  20.318  0.00  0.00    +0.000 N 
ATOM      8  N   UNL     1       1.241   9.359  19.423  0.00  0.00    +0.000 NA
ATOM      9  N   UNL     1       2.616   6.028  20.144  0.00  0.00    +0.000 NA
ATOM     10  N   UNL     1       3.353   5.314  19.293  0.00  0.00    +0.000 NA
ENDROOT
BRANCH   1  14
ATOM     11  C   UNL     1       5.847   4.690  14.778  0.00  0.00    +0.000 A 
ATOM     12  C   UNL     1       5.624   6.058  14.975  0.00  0.00    +0.000 A 
ATOM     13  C   UNL     1       4.885   6.514  16.078  0.00  0.00    +0.000 A 
ATOM     14  C   UNL     1       4.346   5.617  17.011  0.00  0.00    +0.000 A 
ATOM     15  C   UNL     1       4.561   4.248  16.802  0.00  0.00    +0.000 A 
ATOM     16  C   UNL     1       5.299   3.790  15.700  0.00  0.00    +0.000 A 
BRANCH  11  17
ATOM     17  C   UNL     1       6.629   4.182  13.589  0.00  0.00    +0.000 C 
BRANCH  17  18
ATOM     18  C   UNL     1       5.845   3.289  12.618  0.00  0.00    +0.000 C 
BRANCH  18  19
ATOM     19  C   UNL     1       4.542   3.922  12.118  0.00  0.00    +0.000 C 
BRANCH  19  21
ATOM     20  C   UNL     1       3.197   3.863   9.981  0.00  0.00    +0.000 C 
ATOM     21  C   UNL     1       3.870   3.038  11.066  0.00  0.00    +0.000 C 
ENDBRANCH  19  21
ENDBRANCH  18  19
ENDBRANCH  17  18
ENDBRANCH  11  17
ENDBRANCH   1  14
BRANCH   6  22
ATOM     22  C   UNL     1      -0.191   9.978  22.718  0.00  0.00    +0.000 C 
ATOM     23  N   UNL     1      -1.253  10.806  22.517  0.00  0.00    +0.000 N 
ATOM     24  O   UNL     1       0.203   9.784  23.866  0.00  0.00    +0.000 OA
ATOM     25  H   UNL     1      -1.576  11.031  21.585  0.00  0.00    +0.000 HD
ATOM     26  H   UNL     1      -1.685  11.232  23.323  0.00  0.00    +0.000 HD
ENDBRANCH   6  22
BRANCH   7  27
ATOM     27  C1* UNL     1      -0.082  11.339  19.940  0.00  0.00    +0.000 C 
ATOM     28  O4* UNL     1      -1.496  11.136  19.687  0.00  0.00    +0.000 OA
ATOM     29  C4* UNL     1      -1.862  11.928  18.529  0.00  0.00    +0.000 C 
ATOM     30  C3* UNL     1      -0.637  12.768  18.164  0.00  0.00    +0.000 C 
ATOM     31  C2* UNL     1       0.524  11.931  18.675  0.00  0.00    +0.000 C 
BRANCH  30  32
ATOM     32  O3* UNL     1      -0.621  14.024  18.869  0.00  0.00    +0.000 OA
ATOM     33  H3* UNL     1      -1.515  14.414  18.865  0.00  0.00    +0.000 HD
ENDBRANCH  30  32
BRANCH  31  34
ATOM     34  O2* UNL     1       1.684  12.718  18.926  0.00  0.00    +0.000 OA
ATOM     35  H2* UNL     1       1.394  13.654  18.942  0.00  0.00    +0.000 HD
ENDBRANCH  31  34
BRANCH  29  36
ATOM     36  C5* UNL     1      -2.299  10.976  17.415  0.00  0.00    +0.000 C 
BRANCH  36  37
ATOM     37  O5* UNL     1      -2.212  11.637  16.153  0.00  0.00    +0.000 OA
ATOM     38  H5* UNL     1      -1.655  12.427  16.294  0.00  0.00    +0.000 HD
ENDBRANCH  36  37
ENDBRANCH  29  36
ENDBRANCH   7  27
TORSDOF 11
ENDMDL
MODEL 2
REMARK VINA RESULT:      -8.7      4.666     10.768
REMARK  Name = 
REMARK  12 active torsions:
REMARK  status: ('A' for Active; 'I' for Inactive)
REMARK    1  A    between atoms: C_1  and  C_2
REMARK    2  A    between atoms: C_2  and  C_3
REMARK    3  A    between atoms: C_3  and  C_4
REMARK    4  A    between atoms: C_4  and  C_5
REMARK    5  A    between atoms: C_5  and  C_6
REMARK    6  A    between atoms: C_9  and  C_10
REMARK    7  A    between atoms: C_15  and  C_16
REMARK    8  A    between atoms: N_19  and  C1*_20
REMARK    9  A    between atoms: C4*_22  and  C5*_23
REMARK   10  A    between atoms: C5*_23  and  O5*_24
REMARK   11  A    between atoms: C3*_25  and  O3*_26
REMARK   12  A    between atoms: C2*_27  and  O2*_28
REMARK                            x       y       z     vdW  Elec       q    Type
REMARK                         _______ _______ _______ _____ _____    ______ ____
ROOT
ATOM      1  C   UNL     1       0.893  10.064  19.557  0.00  0.00    +0.000 A 
ATOM      2  C   UNL     1       1.382   8.780  19.551  0.00  0.00    +0.000 A 
ATOM      3  N   UNL     1       2.215   8.701  18.446  0.00  0.00    +0.000 N 
ATOM      4  C   UNL     1       2.923   7.527  18.019  0.00  0.00    +0.000 A 
ATOM      5  N   UNL     1       3.826   7.491  16.980  0.00  0.00    +0.000 NA
ATOM      6  C   UNL     1       4.286   6.242  17.024  0.00  0.00    +0.000 A 
ATOM      7  N   UNL     1       3.584   5.555  17.989  0.00  0.00    +0.000 N 
ATOM      8  N   UNL     1       2.726   6.363  18.654  0.00  0.00    +0.000 NA
ATOM      9  N   UNL     1       2.253   9.916  17.839  0.00  0.00    +0.000 NA
ATOM     10  N   UNL     1       1.440  10.740  18.497  0.00  0.00    +0.000 NA
ENDROOT
BRANCH   1  14
ATOM     11  C   UNL     1      -1.856  11.735  22.420  0.00  0.00    +0.000 A 
ATOM     12  C   UNL     1      -1.894  12.139  21.080  0.00  0.00    +0.000 A 
ATOM     13  C   UNL     1      -1.003  11.598  20.140  0.00  0.00    +0.000 A 
ATOM     14  C   UNL     1      -0.047  10.643  20.514  0.00  0.00    +0.000 A 
ATOM     15  C   UNL     1      -0.004  10.252  21.859  0.00  0.00    +0.000 A 
ATOM     16  C   UNL     1      -0.894  10.791  22.799  0.00  0.00    +0.000 A 
BRANCH  11  17
ATOM     17  C   UNL     1      -2.800  12.317  23.446  0.00  0.00    +0.000 C 
BRANCH  17  18
ATOM     18  C   UNL     1      -4.173  12.746  22.909  0.00  0.00    +0.000 C 
BRANCH  18  19
ATOM     19  C   UNL     1      -5.077  13.377  23.973  0.00  0.00    +0.000 C 
BRANCH  19  21
ATOM     20  C   UNL     1      -7.576  13.660  24.207  0.00  0.00    +0.000 C 
ATOM     21  C   UNL     1      -6.434  12.672  24.028  0.00  0.00    +0.000 C 
ENDBRANCH  19  21
ENDBRANCH  18  19
ENDBRANCH  17  18
ENDBRANCH  11  17
ENDBRANCH   1  14
BRANCH   6  22
ATOM     22  C   UNL     1       5.346   5.684  16.211  0.00  0.00    +0.000 C 
ATOM     23  N   UNL     1       6.593   5.696  16.757  0.00  0.00    +0.000 N 
ATOM     24  O   UNL     1       5.201   5.256  15.068  0.00  0.00    +0.000 OA
ATOM     25  H   UNL     1       6.761   6.087  17.675  0.00  0.00    +0.000 HD
ATOM     26  H   UNL     1       7.359   5.347  16.202  0.00  0.00    +0.000 HD
ENDBRANCH   6  22
BRANCH   7  27
ATOM     27  C1* UNL     1       3.650   4.138  18.289  0.00  0.00    +0.000 C 
ATOM     28  O4* UNL     1       2.342   3.678  18.717  0.00  0.00    +0.000 OA
ATOM     29  C4* UNL     1       2.531   2.748  19.812  0.00  0.00    +0.000 C 
ATOM     30  C3* UNL     1       4.037   2.523  19.945  0.00  0.00    +0.000 C 
ATOM     31  C2* UNL     1       4.631   3.813  19.406  0.00  0.00    +0.000 C 
BRANCH  30  32
ATOM     32  O3* UNL     1       4.492   1.443  19.108  0.00  0.00    +0.000 OA
ATOM     33  H3* UNL     1       4.633   1.768  18.199  0.00  0.00    +0.000 HD
ENDBRANCH  30  32
BRANCH  31  34
ATOM     34  O2* UNL     1       5.967   3.638  18.944  0.00  0.00    +0.000 OA
ATOM     35  H2* UNL     1       6.099   2.675  18.817  0.00  0.00    +0.000 HD
ENDBRANCH  31  34
BRANCH  29  36
ATOM     36  C5* UNL     1       1.894   3.349  21.066  0.00  0.00    +0.000 C 
BRANCH  36  37
ATOM     37  O5* UNL     1       2.467   2.755  22.231  0.00  0.00    +0.000 OA
ATOM     38  H5* UNL     1       2.181   3.303  22.988  0.00  0.00    +0.000 HD
ENDBRANCH  36  37
ENDBRANCH  29  36
ENDBRANCH   7  27
TORSDOF 11
ENDMDL
MODEL 3
REMARK VINA RESULT:      -8.7      4.638      9.856
REMARK  Name = 
REMARK  12 active torsions:
REMARK  status: ('A' for Active; 'I' for Inactive)
REMARK    1  A    between atoms: C_1  and  C_2
REMARK    2  A    between atoms: C_2  and  C_3
REMARK    3  A    between atoms: C_3  and  C_4
REMARK    4  A    between atoms: C_4  and  C_5
REMARK    5  A    between atoms: C_5  and  C_6
REMARK    6  A    between atoms: C_9  and  C_10
REMARK    7  A    between atoms: C_15  and  C_16
REMARK    8  A    between atoms: N_19  and  C1*_20
REMARK    9  A    between atoms: C4*_22  and  C5*_23
REMARK   10  A    between atoms: C5*_23  and  O5*_24
REMARK   11  A    between atoms: C3*_25  and  O3*_26
REMARK   12  A    between atoms: C2*_27  and  O2*_28
REMARK                            x       y       z     vdW  Elec       q    Type
REMARK                         _______ _______ _______ _____ _____    ______ ____
ROOT
ATOM      1  C   UNL     1       0.925   9.558  17.894  0.00  0.00    +0.000 A 
ATOM      2  C   UNL     1       1.314   8.244  17.987  0.00  0.00    +0.000 A 
ATOM      3  N   UNL     1       2.684   8.242  17.776  0.00  0.00    +0.000 N 
ATOM      4  C   UNL     1       3.520   7.076  17.746  0.00  0.00    +0.000 A 
ATOM      5  N   UNL     1       4.893   7.098  17.637  0.00  0.00    +0.000 NA
ATOM      6  C   UNL     1       5.225   5.814  17.751  0.00  0.00    +0.000 A 
ATOM      7  N   UNL     1       4.068   5.070  17.812  0.00  0.00    +0.000 N 
ATOM      8  N   UNL     1       2.968   5.858  17.835  0.00  0.00    +0.000 NA
ATOM      9  N   UNL     1       3.102   9.524  17.606  0.00  0.00    +0.000 NA
ATOM     10  N   UNL     1       2.038  10.323  17.658  0.00  0.00    +0.000 NA
ENDROOT
BRANCH   1  14
ATOM     11  C   UNL     1      -3.057  11.143  18.317  0.00  0.00    +0.000 A 
ATOM     12  C   UNL     1      -2.765  10.217  17.309  0.00  0.00    +0.000 A 
ATOM     13  C   UNL     1      -1.471   9.694  17.165  0.00  0.00    +0.000 A 
ATOM     14  C   UNL     1      -0.432  10.086  18.022  0.00  0.00    +0.000 A 
ATOM     15  C   UNL     1      -0.725  11.024  19.020  0.00  0.00    +0.000 A 
ATOM     16  C   UNL     1      -2.018  11.547  19.165  0.00  0.00    +0.000 A 
BRANCH  11  17
ATOM     17  C   UNL     1      -4.442  11.725  18.476  0.00  0.00    +0.000 C 
BRANCH  17  18
ATOM     18  C   UNL     1      -5.571  10.699  18.653  0.00  0.00    +0.000 C 
BRANCH  18  19
ATOM     19  C   UNL     1      -6.749  11.221  19.482  0.00  0.00    +0.000 C 
BRANCH  19  21
ATOM     20  C   UNL     1      -7.106   8.729  19.679  0.00  0.00    +0.000 C 
ATOM     21  C   UNL     1      -7.397  10.092  20.285  0.00  0.00    +0.000 C 
ENDBRANCH  19  21
ENDBRANCH  18  19
ENDBRANCH  17  18
ENDBRANCH  11  17
ENDBRANCH   1  14
BRANCH   6  22
ATOM     22  C   UNL     1       6.567   5.272  17.811  0.00  0.00    +0.000 C 
ATOM     23  N   UNL     1       7.240   5.203  16.629  0.00  0.00    +0.000 N 
ATOM     24  O   UNL     1       7.103   4.839  18.827  0.00  0.00    +0.000 OA
ATOM     25  H   UNL     1       6.814   5.504  15.762  0.00  0.00    +0.000 HD
ATOM     26  H   UNL     1       8.164   4.799  16.631  0.00  0.00    +0.000 HD
ENDBRANCH   6  22
BRANCH   7  27
ATOM     27  C1* UNL     1       3.945   3.626  17.801  0.00  0.00    +0.000 C 
ATOM     28  O4* UNL     1       2.661   3.259  17.234  0.00  0.00    +0.000 OA
ATOM     29  C4* UNL     1       2.131   2.150  18.003  0.00  0.00    +0.000 C 
ATOM     30  C3* UNL     1       3.226   1.733  18.986  0.00  0.00    +0.000 C 
ATOM     31  C2* UNL     1       4.015   3.014  19.193  0.00  0.00    +0.000 C 
BRANCH  30  32
ATOM     32  O3* UNL     1       4.114   0.755  18.411  0.00  0.00    +0.000 OA
ATOM     33  H3* UNL     1       4.040   0.775  17.438  0.00  0.00    +0.000 HD
ENDBRANCH  30  32
BRANCH  31  34
ATOM     34  O2* UNL     1       5.348   2.760  19.626  0.00  0.00    +0.000 OA
ATOM     35  H2* UNL     1       5.288   2.412  20.540  0.00  0.00    +0.000 HD
ENDBRANCH  31  34
BRANCH  29  36
ATOM     36  C5* UNL     1       0.845   2.613  18.689  0.00  0.00    +0.000 C 
BRANCH  36  37
ATOM     37  O5* UNL     1       0.949   3.996  19.028  0.00  0.00    +0.000 OA
ATOM     38  H5* UNL     1       1.348   4.031  19.919  0.00  0.00    +0.000 HD
ENDBRANCH  36  37
ENDBRANCH  29  36
ENDBRANCH   7  27
TORSDOF 11
ENDMDL
MODEL 4
REMARK VINA RESULT:      -8.6      4.335     10.415
REMARK  Name = 
REMARK  12 active torsions:
REMARK  status: ('A' for Active; 'I' for Inactive)
REMARK    1  A    between atoms: C_1  and  C_2
REMARK    2  A    between atoms: C_2  and  C_3
REMARK    3  A    between atoms: C_3  and  C_4
REMARK    4  A    between atoms: C_4  and  C_5
REMARK    5  A    between atoms: C_5  and  C_6
REMARK    6  A    between atoms: C_9  and  C_10
REMARK    7  A    between atoms: C_15  and  C_16
REMARK    8  A    between atoms: N_19  and  C1*_20
REMARK    9  A    between atoms: C4*_22  and  C5*_23
REMARK   10  A    between atoms: C5*_23  and  O5*_24
REMARK   11  A    between atoms: C3*_25  and  O3*_26
REMARK   12  A    between atoms: C2*_27  and  O2*_28
REMARK                            x       y       z     vdW  Elec       q    Type
REMARK                         _______ _______ _______ _____ _____    ______ ____
ROOT
ATOM      1  C   UNL     1       0.838  10.033  19.745  0.00  0.00    +0.000 A 
ATOM      2  C   UNL     1       1.331   8.752  19.707  0.00  0.00    +0.000 A 
ATOM      3  N   UNL     1       2.158   8.701  18.596  0.00  0.00    +0.000 N 
ATOM      4  C   UNL     1       2.867   7.540  18.138  0.00  0.00    +0.000 A 
ATOM      5  N   UNL     1       3.764   7.530  17.093  0.00  0.00    +0.000 NA
ATOM      6  C   UNL     1       4.229   6.282  17.106  0.00  0.00    +0.000 A 
ATOM      7  N   UNL     1       3.536   5.571  18.059  0.00  0.00    +0.000 N 
ATOM      8  N   UNL     1       2.679   6.361  18.747  0.00  0.00    +0.000 NA
ATOM      9  N   UNL     1       2.188   9.929  18.016  0.00  0.00    +0.000 NA
ATOM     10  N   UNL     1       1.376  10.735  18.697  0.00  0.00    +0.000 NA
ENDROOT
BRANCH   1  14
ATOM     11  C   UNL     1      -1.943  11.702  22.578  0.00  0.00    +0.000 A 
ATOM     12  C   UNL     1      -1.044  10.703  22.971  0.00  0.00    +0.000 A 
ATOM     13  C   UNL     1      -0.134  10.155  22.054  0.00  0.00    +0.000 A 
ATOM     14  C   UNL     1      -0.098  10.587  20.721  0.00  0.00    +0.000 A 
ATOM     15  C   UNL     1      -1.009  11.577  20.329  0.00  0.00    +0.000 A 
ATOM     16  C   UNL     1      -1.920  12.126  21.244  0.00  0.00    +0.000 A 
BRANCH  11  17
ATOM     17  C   UNL     1      -2.939  12.292  23.550  0.00  0.00    +0.000 C 
BRANCH  17  18
ATOM     18  C   UNL     1      -3.540  13.643  23.137  0.00  0.00    +0.000 C 
BRANCH  18  19
ATOM     19  C   UNL     1      -5.057  13.601  22.928  0.00  0.00    +0.000 C 
BRANCH  19  21
ATOM     20  C   UNL     1      -5.669  12.328  20.834  0.00  0.00    +0.000 C 
ATOM     21  C   UNL     1      -5.409  13.697  21.442  0.00  0.00    +0.000 C 
ENDBRANCH  19  21
ENDBRANCH  18  19
ENDBRANCH  17  18
ENDBRANCH  11  17
ENDBRANCH   1  14
BRANCH   6  22
ATOM     22  C   UNL     1       5.286   5.747  16.274  0.00  0.00    +0.000 C 
ATOM     23  N   UNL     1       6.530   5.718  16.826  0.00  0.00    +0.000 N 
ATOM     24  O   UNL     1       5.142   5.372  15.113  0.00  0.00    +0.000 OA
ATOM     25  H   UNL     1       6.699   6.065  17.762  0.00  0.00    +0.000 HD
ATOM     26  H   UNL     1       7.295   5.383  16.260  0.00  0.00    +0.000 HD
ENDBRANCH   6  22
BRANCH   7  27
ATOM     27  C1* UNL     1       3.609   4.148  18.327  0.00  0.00    +0.000 C 
ATOM     28  O4* UNL     1       2.301   3.670  18.734  0.00  0.00    +0.000 OA
ATOM     29  C4* UNL     1       2.487   2.716  19.809  0.00  0.00    +0.000 C 
ATOM     30  C3* UNL     1       3.994   2.498  19.949  0.00  0.00    +0.000 C 
ATOM     31  C2* UNL     1       4.583   3.804  19.444  0.00  0.00    +0.000 C 
BRANCH  30  32
ATOM     32  O3* UNL     1       4.462   1.440  19.091  0.00  0.00    +0.000 OA
ATOM     33  H3* UNL     1       3.986   0.614  19.297  0.00  0.00    +0.000 HD
ENDBRANCH  30  32
BRANCH  31  34
ATOM     34  O2* UNL     1       5.924   3.648  18.989  0.00  0.00    +0.000 OA
ATOM     35  H2* UNL     1       5.989   4.120  18.132  0.00  0.00    +0.000 HD
ENDBRANCH  31  34
BRANCH  29  36
ATOM     36  C5* UNL     1       1.836   3.283  21.071  0.00  0.00    +0.000 C 
BRANCH  36  37
ATOM     37  O5* UNL     1       1.171   4.508  20.763  0.00  0.00    +0.000 OA
ATOM     38  H5* UNL     1       1.864   5.195  20.722  0.00  0.00    +0.000 HD
ENDBRANCH  36  37
ENDBRANCH  29  36
ENDBRANCH   7  27
TORSDOF 11
ENDMDL
MODEL 5
REMARK VINA RESULT:      -8.5      4.532     10.825
REMARK  Name = 
REMARK  12 active torsions:
REMARK  status: ('A' for Active; 'I' for Inactive)
REMARK    1  A    between atoms: C_1  and  C_2
REMARK    2  A    between atoms: C_2  and  C_3
REMARK    3  A    between atoms: C_3  and  C_4
REMARK    4  A    between atoms: C_4  and  C_5
REMARK    5  A    between atoms: C_5  and  C_6
REMARK    6  A    between atoms: C_9  and  C_10
REMARK    7  A    between atoms: C_15  and  C_16
REMARK    8  A    between atoms: N_19  and  C1*_20
REMARK    9  A    between atoms: C4*_22  and  C5*_23
REMARK   10  A    between atoms: C5*_23  and  O5*_24
REMARK   11  A    between atoms: C3*_25  and  O3*_26
REMARK   12  A    between atoms: C2*_27  and  O2*_28
REMARK                            x       y       z     vdW  Elec       q    Type
REMARK                         _______ _______ _______ _____ _____    ______ ____
ROOT
ATOM      1  C   UNL     1       0.891  10.015  19.590  0.00  0.00    +0.000 A 
ATOM      2  C   UNL     1       1.400   8.739  19.595  0.00  0.00    +0.000 A 
ATOM      3  N   UNL     1       2.192   8.647  18.462  0.00  0.00    +0.000 N 
ATOM      4  C   UNL     1       2.903   7.475  18.036  0.00  0.00    +0.000 A 
ATOM      5  N   UNL     1       3.767   7.428  16.964  0.00  0.00    +0.000 NA
ATOM      6  C   UNL     1       4.249   6.188  17.020  0.00  0.00    +0.000 A 
ATOM      7  N   UNL     1       3.596   5.513  18.026  0.00  0.00    +0.000 N 
ATOM      8  N   UNL     1       2.750   6.323  18.704  0.00  0.00    +0.000 NA
ATOM      9  N   UNL     1       2.188   9.847  17.826  0.00  0.00    +0.000 NA
ATOM     10  N   UNL     1       1.385  10.674  18.494  0.00  0.00    +0.000 NA
ENDROOT
BRANCH   1  14
ATOM     11  C   UNL     1      -1.823  11.780  22.431  0.00  0.00    +0.000 A 
ATOM     12  C   UNL     1      -0.936  10.772  22.829  0.00  0.00    +0.000 A 
ATOM     13  C   UNL     1      -0.047  10.193  21.909  0.00  0.00    +0.000 A 
ATOM     14  C   UNL     1      -0.023  10.601  20.568  0.00  0.00    +0.000 A 
ATOM     15  C   UNL     1      -0.922  11.600  20.172  0.00  0.00    +0.000 A 
ATOM     16  C   UNL     1      -1.811  12.180  21.089  0.00  0.00    +0.000 A 
BRANCH  11  17
ATOM     17  C   UNL     1      -2.794  12.404  23.405  0.00  0.00    +0.000 C 
BRANCH  17  18
ATOM     18  C   UNL     1      -2.622  13.912  23.632  0.00  0.00    +0.000 C 
BRANCH  18  19
ATOM     19  C   UNL     1      -3.337  14.429  24.885  0.00  0.00    +0.000 C 
BRANCH  19  21
ATOM     20  C   UNL     1      -1.348  15.576  25.937  0.00  0.00    +0.000 C 
ATOM     21  C   UNL     1      -2.738  15.758  25.349  0.00  0.00    +0.000 C 
ENDBRANCH  19  21
ENDBRANCH  18  19
ENDBRANCH  17  18
ENDBRANCH  11  17
ENDBRANCH   1  14
BRANCH   6  22
ATOM     22  C   UNL     1       5.287   5.628  16.180  0.00  0.00    +0.000 C 
ATOM     23  N   UNL     1       6.526   6.179  16.308  0.00  0.00    +0.000 N 
ATOM     24  O   UNL     1       5.113   4.743  15.346  0.00  0.00    +0.000 OA
ATOM     25  H   UNL     1       6.699   6.944  16.947  0.00  0.00    +0.000 HD
ATOM     26  H   UNL     1       7.264   5.834  15.712  0.00  0.00    +0.000 HD
ENDBRANCH   6  22
BRANCH   7  27
ATOM     27  C1* UNL     1       3.697   4.105  18.356  0.00  0.00    +0.000 C 
ATOM     28  O4* UNL     1       2.434   3.650  18.906  0.00  0.00    +0.000 OA
ATOM     29  C4* UNL     1       2.721   2.751  20.006  0.00  0.00    +0.000 C 
ATOM     30  C3* UNL     1       4.235   2.537  20.016  0.00  0.00    +0.000 C 
ATOM     31  C2* UNL     1       4.772   3.815  19.394  0.00  0.00    +0.000 C 
BRANCH  30  32
ATOM     32  O3* UNL     1       4.624   1.437  19.171  0.00  0.00    +0.000 OA
ATOM     33  H3* UNL     1       5.365   0.953  19.583  0.00  0.00    +0.000 HD
ENDBRANCH  30  32
BRANCH  31  34
ATOM     34  O2* UNL     1       6.065   3.634  18.825  0.00  0.00    +0.000 OA
ATOM     35  H2* UNL     1       6.386   4.522  18.563  0.00  0.00    +0.000 HD
ENDBRANCH  31  34
BRANCH  29  36
ATOM     36  C5* UNL     1       2.188   3.382  21.293  0.00  0.00    +0.000 C 
BRANCH  36  37
ATOM     37  O5* UNL     1       1.693   4.692  21.020  0.00  0.00    +0.000 OA
ATOM     38  H5* UNL     1       1.526   5.109  21.887  0.00  0.00    +0.000 HD
ENDBRANCH  36  37
ENDBRANCH  29  36
ENDBRANCH   7  27
TORSDOF 11
ENDMDL
MODEL 6
REMARK VINA RESULT:      -8.5      4.581     10.137
REMARK  Name = 
REMARK  12 active torsions:
REMARK  status: ('A' for Active; 'I' for Inactive)
REMARK    1  A    between atoms: C_1  and  C_2
REMARK    2  A    between atoms: C_2  and  C_3
REMARK    3  A    between atoms: C_3  and  C_4
REMARK    4  A    between atoms: C_4  and  C_5
REMARK    5  A    between atoms: C_5  and  C_6
REMARK    6  A    between atoms: C_9  and  C_10
REMARK    7  A    between atoms: C_15  and  C_16
REMARK    8  A    between atoms: N_19  and  C1*_20
REMARK    9  A    between atoms: C4*_22  and  C5*_23
REMARK   10  A    between atoms: C5*_23  and  O5*_24
REMARK   11  A    between atoms: C3*_25  and  O3*_26
REMARK   12  A    between atoms: C2*_27  and  O2*_28
REMARK                            x       y       z     vdW  Elec       q    Type
REMARK                         _______ _______ _______ _____ _____    ______ ____
ROOT
ATOM      1  C   UNL     1       1.094   9.616  18.059  0.00  0.00    +0.000 A 
ATOM      2  C   UNL     1       1.451   8.292  18.125  0.00  0.00    +0.000 A 
ATOM      3  N   UNL     1       2.793   8.246  17.783  0.00  0.00    +0.000 N 
ATOM      4  C   UNL     1       3.587   7.055  17.683  0.00  0.00    +0.000 A 
ATOM      5  N   UNL     1       4.944   7.035  17.442  0.00  0.00    +0.000 NA
ATOM      6  C   UNL     1       5.246   5.741  17.535  0.00  0.00    +0.000 A 
ATOM      7  N   UNL     1       4.079   5.034  17.713  0.00  0.00    +0.000 N 
ATOM      8  N   UNL     1       3.010   5.855  17.835  0.00  0.00    +0.000 NA
ATOM      9  N   UNL     1       3.231   9.513  17.563  0.00  0.00    +0.000 NA
ATOM     10  N   UNL     1       2.202  10.345  17.710  0.00  0.00    +0.000 NA
ENDROOT
BRANCH   1  14
ATOM     11  C   UNL     1      -2.779  11.325  18.850  0.00  0.00    +0.000 A 
ATOM     12  C   UNL     1      -2.616  10.379  17.831  0.00  0.00    +0.000 A 
ATOM     13  C   UNL     1      -1.357   9.816  17.568  0.00  0.00    +0.000 A 
ATOM     14  C   UNL     1      -0.228  10.186  18.312  0.00  0.00    +0.000 A 
ATOM     15  C   UNL     1      -0.393  11.143  19.322  0.00  0.00    +0.000 A 
ATOM     16  C   UNL     1      -1.650  11.707  19.586  0.00  0.00    +0.000 A 
BRANCH  11  17
ATOM     17  C   UNL     1      -4.125  11.950  19.137  0.00  0.00    +0.000 C 
BRANCH  17  18
ATOM     18  C   UNL     1      -4.114  13.098  20.156  0.00  0.00    +0.000 C 
BRANCH  18  19
ATOM     19  C   UNL     1      -4.502  12.662  21.573  0.00  0.00    +0.000 C 
BRANCH  19  21
ATOM     20  C   UNL     1      -3.589  12.330  23.904  0.00  0.00    +0.000 C 
ATOM     21  C   UNL     1      -3.428  13.067  22.585  0.00  0.00    +0.000 C 
ENDBRANCH  19  21
ENDBRANCH  18  19
ENDBRANCH  17  18
ENDBRANCH  11  17
ENDBRANCH   1  14
BRANCH   6  22
ATOM     22  C   UNL     1       6.571   5.159  17.469  0.00  0.00    +0.000 C 
ATOM     23  N   UNL     1       7.162   4.873  18.662  0.00  0.00    +0.000 N 
ATOM     24  O   UNL     1       7.197   4.958  16.432  0.00  0.00    +0.000 OA
ATOM     25  H   UNL     1       6.698   5.071  19.540  0.00  0.00    +0.000 HD
ATOM     26  H   UNL     1       8.098   4.499  18.652  0.00  0.00    +0.000 HD
ENDBRANCH   6  22
BRANCH   7  27
ATOM     27  C1* UNL     1       3.912   3.594  17.726  0.00  0.00    +0.000 C 
ATOM     28  O4* UNL     1       2.597   3.260  17.214  0.00  0.00    +0.000 OA
ATOM     29  C4* UNL     1       2.064   2.177  18.017  0.00  0.00    +0.000 C 
ATOM     30  C3* UNL     1       3.183   1.739  18.963  0.00  0.00    +0.000 C 
ATOM     31  C2* UNL     1       4.017   2.998  19.123  0.00  0.00    +0.000 C 
BRANCH  30  32
ATOM     32  O3* UNL     1       4.018   0.727  18.369  0.00  0.00    +0.000 OA
ATOM     33  H3* UNL     1       4.578   0.318  19.055  0.00  0.00    +0.000 HD
ENDBRANCH  30  32
BRANCH  31  34
ATOM     34  O2* UNL     1       5.358   2.709  19.508  0.00  0.00    +0.000 OA
ATOM     35  H2* UNL     1       5.650   3.442  20.089  0.00  0.00    +0.000 HD
ENDBRANCH  31  34
BRANCH  29  36
ATOM     36  C5* UNL     1       0.820   2.688  18.745  0.00  0.00    +0.000 C 
BRANCH  36  37
ATOM     37  O5* UNL     1       1.050   4.012  19.225  0.00  0.00    +0.000 OA
ATOM     38  H5* UNL     1       2.012   4.164  19.162  0.00  0.00    +0.000 HD
ENDBRANCH  36  37
ENDBRANCH  29  36
ENDBRANCH   7  27
TORSDOF 11
ENDMDL
MODEL 7
REMARK VINA RESULT:      -8.4      4.528     10.602
REMARK  Name = 
REMARK  12 active torsions:
REMARK  status: ('A' for Active; 'I' for Inactive)
REMARK    1  A    between atoms: C_1  and  C_2
REMARK    2  A    between atoms: C_2  and  C_3
REMARK    3  A    between atoms: C_3  and  C_4
REMARK    4  A    between atoms: C_4  and  C_5
REMARK    5  A    between atoms: C_5  and  C_6
REMARK    6  A    between atoms: C_9  and  C_10
REMARK    7  A    between atoms: C_15  and  C_16
REMARK    8  A    between atoms: N_19  and  C1*_20
REMARK    9  A    between atoms: C4*_22  and  C5*_23
REMARK   10  A    between atoms: C5*_23  and  O5*_24
REMARK   11  A    between atoms: C3*_25  and  O3*_26
REMARK   12  A    between atoms: C2*_27  and  O2*_28
REMARK                            x       y       z     vdW  Elec       q    Type
REMARK                         _______ _______ _______ _____ _____    ______ ____
ROOT
ATOM      1  C   UNL     1       0.915   9.974  19.585  0.00  0.00    +0.000 A 
ATOM      2  C   UNL     1       1.363   8.676  19.554  0.00  0.00    +0.000 A 
ATOM      3  N   UNL     1       2.227   8.603  18.473  0.00  0.00    +0.000 N 
ATOM      4  C   UNL     1       2.911   7.421  18.032  0.00  0.00    +0.000 A 
ATOM      5  N   UNL     1       3.845   7.386  17.019  0.00  0.00    +0.000 NA
ATOM      6  C   UNL     1       4.264   6.122  17.039  0.00  0.00    +0.000 A 
ATOM      7  N   UNL     1       3.512   5.430  17.961  0.00  0.00    +0.000 N 
ATOM      8  N   UNL     1       2.658   6.245  18.624  0.00  0.00    +0.000 NA
ATOM      9  N   UNL     1       2.323   9.833  17.905  0.00  0.00    +0.000 NA
ATOM     10  N   UNL     1       1.515  10.663  18.563  0.00  0.00    +0.000 NA
ENDROOT
BRANCH   1  14
ATOM     11  C   UNL     1      -1.869  11.647  22.413  0.00  0.00    +0.000 A 
ATOM     12  C   UNL     1      -1.858  12.086  21.084  0.00  0.00    +0.000 A 
ATOM     13  C   UNL     1      -0.955  11.545  20.156  0.00  0.00    +0.000 A 
ATOM     14  C   UNL     1      -0.037  10.554  20.530  0.00  0.00    +0.000 A 
ATOM     15  C   UNL     1      -0.042  10.127  21.865  0.00  0.00    +0.000 A 
ATOM     16  C   UNL     1      -0.944  10.667  22.794  0.00  0.00    +0.000 A 
BRANCH  11  17
ATOM     17  C   UNL     1      -2.826  12.229  23.428  0.00  0.00    +0.000 C 
BRANCH  17  18
ATOM     18  C   UNL     1      -3.973  13.067  22.846  0.00  0.00    +0.000 C 
BRANCH  18  19
ATOM     19  C   UNL     1      -3.732  14.578  22.933  0.00  0.00    +0.000 C 
BRANCH  19  21
ATOM     20  C   UNL     1      -3.134  15.480  25.215  0.00  0.00    +0.000 C 
ATOM     21  C   UNL     1      -2.603  14.898  23.915  0.00  0.00    +0.000 C 
ENDBRANCH  19  21
ENDBRANCH  18  19
ENDBRANCH  17  18
ENDBRANCH  11  17
ENDBRANCH   1  14
BRANCH   6  22
ATOM     22  C   UNL     1       5.331   5.555  16.242  0.00  0.00    +0.000 C 
ATOM     23  N   UNL     1       5.419   5.996  14.956  0.00  0.00    +0.000 N 
ATOM     24  O   UNL     1       6.111   4.689  16.629  0.00  0.00    +0.000 OA
ATOM     25  H   UNL     1       4.764   6.671  14.584  0.00  0.00    +0.000 HD
ATOM     26  H   UNL     1       6.131   5.595  14.363  0.00  0.00    +0.000 HD
ENDBRANCH   6  22
BRANCH   7  27
ATOM     27  C1* UNL     1       3.524   4.003  18.219  0.00  0.00    +0.000 C 
ATOM     28  O4* UNL     1       2.169   3.551  18.476  0.00  0.00    +0.000 OA
ATOM     29  C4* UNL     1       2.216   2.584  19.554  0.00  0.00    +0.000 C 
ATOM     30  C3* UNL     1       3.693   2.331  19.855  0.00  0.00    +0.000 C 
ATOM     31  C2* UNL     1       4.362   3.627  19.432  0.00  0.00    +0.000 C 
BRANCH  30  32
ATOM     32  O3* UNL     1       4.229   1.270  19.041  0.00  0.00    +0.000 OA
ATOM     33  H3* UNL     1       4.725   0.643  19.601  0.00  0.00    +0.000 HD
ENDBRANCH  30  32
BRANCH  31  34
ATOM     34  O2* UNL     1       5.741   3.445  19.124  0.00  0.00    +0.000 OA
ATOM     35  H2* UNL     1       5.821   3.483  18.147  0.00  0.00    +0.000 HD
ENDBRANCH  31  34
BRANCH  29  36
ATOM     36  C5* UNL     1       1.444   3.155  20.744  0.00  0.00    +0.000 C 
BRANCH  36  37
ATOM     37  O5* UNL     1       0.625   4.241  20.312  0.00  0.00    +0.000 OA
ATOM     38  H5* UNL     1       1.234   4.950  20.029  0.00  0.00    +0.000 HD
ENDBRANCH  36  37
ENDBRANCH  29  36
ENDBRANCH   7  27
TORSDOF 11
ENDMDL
MODEL 8
REMARK VINA RESULT:      -8.4      4.565      9.682
REMARK  Name = 
REMARK  12 active torsions:
REMARK  status: ('A' for Active; 'I' for Inactive)
REMARK    1  A    between atoms: C_1  and  C_2
REMARK    2  A    between atoms: C_2  and  C_3
REMARK    3  A    between atoms: C_3  and  C_4
REMARK    4  A    between atoms: C_4  and  C_5
REMARK    5  A    between atoms: C_5  and  C_6
REMARK    6  A    between atoms: C_9  and  C_10
REMARK    7  A    between atoms: C_15  and  C_16
REMARK    8  A    between atoms: N_19  and  C1*_20
REMARK    9  A    between atoms: C4*_22  and  C5*_23
REMARK   10  A    between atoms: C5*_23  and  O5*_24
REMARK   11  A    between atoms: C3*_25  and  O3*_26
REMARK   12  A    between atoms: C2*_27  and  O2*_28
REMARK                            x       y       z     vdW  Elec       q    Type
REMARK                         _______ _______ _______ _____ _____    ______ ____
ROOT
ATOM      1  C   UNL     1       1.030   9.154  20.233  0.00  0.00    +0.000 A 
ATOM      2  C   UNL     1       1.946   8.410  19.529  0.00  0.00    +0.000 A 
ATOM      3  N   UNL     1       1.908   7.142  20.088  0.00  0.00    +0.000 N 
ATOM      4  C   UNL     1       2.728   6.033  19.692  0.00  0.00    +0.000 A 
ATOM      5  N   UNL     1       2.607   4.753  20.187  0.00  0.00    +0.000 NA
ATOM      6  C   UNL     1       3.494   4.067  19.467  0.00  0.00    +0.000 A 
ATOM      7  N   UNL     1       4.177   4.951  18.664  0.00  0.00    +0.000 N 
ATOM      8  N   UNL     1       3.688   6.208  18.774  0.00  0.00    +0.000 NA
ATOM      9  N   UNL     1       0.965   7.123  21.066  0.00  0.00    +0.000 NA
ATOM     10  N   UNL     1       0.444   8.344  21.171  0.00  0.00    +0.000 NA
ENDROOT
BRANCH   1  14
ATOM     11  C   UNL     1       0.115  13.316  19.612  0.00  0.00    +0.000 A 
ATOM     12  C   UNL     1      -0.238  12.684  20.810  0.00  0.00    +0.000 A 
ATOM     13  C   UNL     1       0.059  11.328  21.020  0.00  0.00    +0.000 A 
ATOM     14  C   UNL     1       0.710  10.567  20.040  0.00  0.00    +0.000 A 
ATOM     15  C   UNL     1       1.048  11.201  18.837  0.00  0.00    +0.000 A 
ATOM     16  C   UNL     1       0.754  12.556  18.624  0.00  0.00    +0.000 A 
BRANCH  11  17
ATOM     17  C   UNL     1      -0.209  14.771  19.364  0.00  0.00    +0.000 C 
BRANCH  17  18
ATOM     18  C   UNL     1       0.572  15.775  20.224  0.00  0.00    +0.000 C 
BRANCH  18  19
ATOM     19  C   UNL     1       2.062  15.850  19.877  0.00  0.00    +0.000 C 
BRANCH  19  21
ATOM     20  C   UNL     1       3.299  15.178  17.780  0.00  0.00    +0.000 C 
ATOM     21  C   UNL     1       2.265  16.114  18.384  0.00  0.00    +0.000 C 
ENDBRANCH  19  21
ENDBRANCH  18  19
ENDBRANCH  17  18
ENDBRANCH  11  17
ENDBRANCH   1  14
BRANCH   6  22
ATOM     22  C   UNL     1       3.711   2.636  19.503  0.00  0.00    +0.000 C 
ATOM     23  N   UNL     1       4.868   2.218  20.088  0.00  0.00    +0.000 N 
ATOM     24  O   UNL     1       2.958   1.800  19.009  0.00  0.00    +0.000 OA
ATOM     25  H   UNL     1       5.538   2.879  20.461  0.00  0.00    +0.000 HD
ATOM     26  H   UNL     1       5.066   1.229  20.098  0.00  0.00    +0.000 HD
ENDBRANCH   6  22
BRANCH   7  27
ATOM     27  C1* UNL     1       5.322   4.673  17.818  0.00  0.00    +0.000 C 
ATOM     28  O4* UNL     1       6.454   4.310  18.649  0.00  0.00    +0.000 OA
ATOM     29  C4* UNL     1       7.639   4.929  18.088  0.00  0.00    +0.000 C 
ATOM     30  C3* UNL     1       7.217   5.570  16.765  0.00  0.00    +0.000 C 
ATOM     31  C2* UNL     1       5.743   5.871  16.979  0.00  0.00    +0.000 C 
BRANCH  30  32
ATOM     32  O3* UNL     1       7.324   4.645  15.666  0.00  0.00    +0.000 OA
ATOM     33  H3* UNL     1       8.009   3.979  15.862  0.00  0.00    +0.000 HD
ENDBRANCH  30  32
BRANCH  31  34
ATOM     34  O2* UNL     1       5.031   5.971  15.749  0.00  0.00    +0.000 OA
ATOM     35  H2* UNL     1       4.380   5.238  15.739  0.00  0.00    +0.000 HD
ENDBRANCH  31  34
BRANCH  29  36
ATOM     36  C5* UNL     1       8.182   5.935  19.103  0.00  0.00    +0.000 C 
BRANCH  36  37
ATOM     37  O5* UNL     1       7.976   5.444  20.427  0.00  0.00    +0.000 OA
ATOM     38  H5* UNL     1       7.484   6.139  20.906  0.00  0.00    +0.000 HD
ENDBRANCH  36  37
ENDBRANCH  29  36
ENDBRANCH   7  27
TORSDOF 11
ENDMDL
MODEL 9
REMARK VINA RESULT:      -8.3      4.443     10.678
REMARK  Name = 
REMARK  12 active torsions:
REMARK  status: ('A' for Active; 'I' for Inactive)
REMARK    1  A    between atoms: C_1  and  C_2
REMARK    2  A    between atoms: C_2  and  C_3
REMARK    3  A    between atoms: C_3  and  C_4
REMARK    4  A    between atoms: C_4  and  C_5
REMARK    5  A    between atoms: C_5  and  C_6
REMARK    6  A    between atoms: C_9  and  C_10
REMARK    7  A    between atoms: C_15  and  C_16
REMARK    8  A    between atoms: N_19  and  C1*_20
REMARK    9  A    between atoms: C4*_22  and  C5*_23
REMARK   10  A    between atoms: C5*_23  and  O5*_24
REMARK   11  A    between atoms: C3*_25  and  O3*_26
REMARK   12  A    between atoms: C2*_27  and  O2*_28
REMARK                            x       y       z     vdW  Elec       q    Type
REMARK                         _______ _______ _______ _____ _____    ______ ____
ROOT
ATOM      1  C   UNL     1       0.784  10.120  19.675  0.00  0.00    +0.000 A 
ATOM      2  C   UNL     1       1.265   8.833  19.657  0.00  0.00    +0.000 A 
ATOM      3  N   UNL     1       2.143   8.776  18.586  0.00  0.00    +0.000 N 
ATOM      4  C   UNL     1       2.861   7.609  18.160  0.00  0.00    +0.000 A 
ATOM      5  N   UNL     1       3.807   7.592  17.159  0.00  0.00    +0.000 NA
ATOM      6  C   UNL     1       4.257   6.339  17.191  0.00  0.00    +0.000 A 
ATOM      7  N   UNL     1       3.513   5.633  18.108  0.00  0.00    +0.000 N 
ATOM      8  N   UNL     1       2.632   6.430  18.757  0.00  0.00    +0.000 NA
ATOM      9  N   UNL     1       2.214  10.005  18.012  0.00  0.00    +0.000 NA
ATOM     10  N   UNL     1       1.378  10.818  18.656  0.00  0.00    +0.000 NA
ENDROOT
BRANCH   1  14
ATOM     11  C   UNL     1      -2.072  11.739  22.462  0.00  0.00    +0.000 A 
ATOM     12  C   UNL     1      -2.082  12.142  21.122  0.00  0.00    +0.000 A 
ATOM     13  C   UNL     1      -1.156  11.618  20.207  0.00  0.00    +0.000 A 
ATOM     14  C   UNL     1      -0.193  10.681  20.606  0.00  0.00    +0.000 A 
ATOM     15  C   UNL     1      -0.177  10.291  21.952  0.00  0.00    +0.000 A 
ATOM     16  C   UNL     1      -1.102  10.814  22.868  0.00  0.00    +0.000 A 
BRANCH  11  17
ATOM     17  C   UNL     1      -3.053  12.304  23.463  0.00  0.00    +0.000 C 
BRANCH  17  18
ATOM     18  C   UNL     1      -2.745  13.724  23.959  0.00  0.00    +0.000 C 
BRANCH  18  19
ATOM     19  C   UNL     1      -1.272  14.118  23.810  0.00  0.00    +0.000 C 
BRANCH  19  21
ATOM     20  C   UNL     1      -1.076  15.904  25.585  0.00  0.00    +0.000 C 
ATOM     21  C   UNL     1      -1.071  15.608  24.094  0.00  0.00    +0.000 C 
ENDBRANCH  19  21
ENDBRANCH  18  19
ENDBRANCH  17  18
ENDBRANCH  11  17
ENDBRANCH   1  14
BRANCH   6  22
ATOM     22  C   UNL     1       5.347   5.795  16.408  0.00  0.00    +0.000 C 
ATOM     23  N   UNL     1       6.573   5.796  17.002  0.00  0.00    +0.000 N 
ATOM     24  O   UNL     1       5.246   5.387  15.254  0.00  0.00    +0.000 OA
ATOM     25  H   UNL     1       6.707   6.170  17.933  0.00  0.00    +0.000 HD
ATOM     26  H   UNL     1       7.360   5.455  16.471  0.00  0.00    +0.000 HD
ENDBRANCH   6  22
BRANCH   7  27
ATOM     27  C1* UNL     1       3.558   4.209  18.375  0.00  0.00    +0.000 C 
ATOM     28  O4* UNL     1       2.236   3.752  18.761  0.00  0.00    +0.000 OA
ATOM     29  C4* UNL     1       2.390   2.794  19.838  0.00  0.00    +0.000 C 
ATOM     30  C3* UNL     1       3.891   2.551  20.000  0.00  0.00    +0.000 C 
ATOM     31  C2* UNL     1       4.510   3.848  19.506  0.00  0.00    +0.000 C 
BRANCH  30  32
ATOM     32  O3* UNL     1       4.355   1.487  19.148  0.00  0.00    +0.000 OA
ATOM     33  H3* UNL     1       4.436   0.663  19.665  0.00  0.00    +0.000 HD
ENDBRANCH  30  32
BRANCH  31  34
ATOM     34  O2* UNL     1       5.854   3.670  19.071  0.00  0.00    +0.000 OA
ATOM     35  H2* UNL     1       6.020   4.347  18.381  0.00  0.00    +0.000 HD
ENDBRANCH  31  34
BRANCH  29  36
ATOM     36  C5* UNL     1       1.730   3.371  21.091  0.00  0.00    +0.000 C 
BRANCH  36  37
ATOM     37  O5* UNL     1       2.397   2.885  22.256  0.00  0.00    +0.000 OA
ATOM     38  H5* UNL     1       1.722   2.414  22.782  0.00  0.00    +0.000 HD
ENDBRANCH  36  37
ENDBRANCH  29  36
ENDBRANCH   7  27
TORSDOF 11
ENDMDL
