MODEL 1
REMARK VINA RESULT:      -9.2      0.000      0.000
REMARK  Name = 
REMARK  6 active torsions:
REMARK  status: ('A' for Active; 'I' for Inactive)
REMARK    1  A    between atoms: C_1  and  N_2
REMARK    2  A    between atoms: N_2  and  C_11
REMARK    3  A    between atoms: C_3  and  C_5
REMARK    4  A    between atoms: C_11  and  C_12
REMARK    5  A    between atoms: C_11  and  C_25
REMARK    6  A    between atoms: N_14  and  C_15
REMARK                            x       y       z     vdW  Elec       q    Type
REMARK                         _______ _______ _______ _____ _____    ______ ____
ROOT
ATOM      1  C   UNL     1       3.547   5.110  18.925  0.00  0.00    +0.000 C 
ENDROOT
BRANCH   1   2
ATOM      2  C   UNL     1       2.767   4.126  19.813  0.00  0.00    +0.000 A 
ATOM      3  C   UNL     1       1.364   4.074  19.836  0.00  0.00    +0.000 A 
ATOM      4  C   UNL     1       0.693   3.239  20.731  0.00  0.00    +0.000 A 
ATOM      5  C   UNL     1       1.411   2.444  21.619  0.00  0.00    +0.000 A 
ATOM      6  C   UNL     1       2.802   2.434  21.571  0.00  0.00    +0.000 A 
ATOM      7  C   UNL     1       3.475   3.243  20.655  0.00  0.00    +0.000 A 
ENDBRANCH   1   2
BRANCH   1   9
ATOM      8  C   UNL     1       2.950   3.679  16.944  0.00  0.00    +0.000 C 
ATOM      9  N   UNL     1       3.918   4.558  17.594  0.00  0.00    +0.000 N 
ATOM     10  C   UNL     1       5.188   4.672  17.006  0.00  0.00    +0.000 C 
ATOM     11  O   UNL     1       5.504   4.021  16.005  0.00  0.00    +0.000 OA
BRANCH  10  12
ATOM     12  C   UNL     1       6.258   5.525  17.618  0.00  0.00    +0.000 A 
ATOM     13  C   UNL     1       6.509   6.781  17.070  0.00  0.00    +0.000 A 
ATOM     14  C   UNL     1       7.533   7.552  17.613  0.00  0.00    +0.000 A 
ATOM     15  C   UNL     1       8.263   7.055  18.686  0.00  0.00    +0.000 A 
ATOM     16  C   UNL     1       7.923   5.813  19.191  0.00  0.00    +0.000 A 
ATOM     17  N   UNL     1       6.935   5.043  18.686  0.00  0.00    +0.000 NA
ENDBRANCH  10  12
ENDBRANCH   1   9
BRANCH   1  18
ATOM     18  C   UNL     1       2.875   6.510  18.765  0.00  0.00    +0.000 C 
ATOM     19  O   UNL     1       2.812   7.049  17.657  0.00  0.00    +0.000 OA
ATOM     20  N   UNL     1       2.293   7.047  19.911  0.00  0.00    +0.000 N 
ATOM     21  H   UNL     1       2.656   6.725  20.801  0.00  0.00    +0.000 HD
BRANCH  20  22
ATOM     22  C   UNL     1       1.689   8.318  19.911  0.00  0.00    +0.000 A 
ATOM     23  C   UNL     1       1.621   9.091  18.749  0.00  0.00    +0.000 A 
ATOM     24  C   UNL     1       1.053  10.365  18.791  0.00  0.00    +0.000 A 
ATOM     25  C   UNL     1       0.594  10.877  20.000  0.00  0.00    +0.000 A 
ATOM     26  C   UNL     1       0.638  10.090  21.158  0.00  0.00    +0.000 A 
ATOM     27  C   UNL     1       1.160   8.801  21.109  0.00  0.00    +0.000 A 
ATOM     28  O   UNL     1       0.229  10.540  22.387  0.00  0.00    +0.000 OA
ATOM     29  C   UNL     1      -0.540  11.742  22.282  0.00  0.00    +0.000 C 
ATOM     30  C   UNL     1       0.085  12.719  21.300  0.00  0.00    +0.000 C 
ATOM     31  O   UNL     1       0.115  12.162  19.983  0.00  0.00    +0.000 OA
ENDBRANCH  20  22
ENDBRANCH   1  18
TORSDOF 5
ENDMDL
MODEL 2
REMARK VINA RESULT:      -9.0      0.557      1.035
REMARK  Name = 
REMARK  6 active torsions:
REMARK  status: ('A' for Active; 'I' for Inactive)
REMARK    1  A    between atoms: C_1  and  N_2
REMARK    2  A    between atoms: N_2  and  C_11
REMARK    3  A    between atoms: C_3  and  C_5
REMARK    4  A    between atoms: C_11  and  C_12
REMARK    5  A    between atoms: C_11  and  C_25
REMARK    6  A    between atoms: N_14  and  C_15
REMARK                            x       y       z     vdW  Elec       q    Type
REMARK                         _______ _______ _______ _____ _____    ______ ____
ROOT
ATOM      1  C   UNL     1       3.434   5.307  19.100  0.00  0.00    +0.000 C 
ENDROOT
BRANCH   1   2
ATOM      2  C   UNL     1       2.901   4.235  20.066  0.00  0.00    +0.000 A 
ATOM      3  C   UNL     1       3.704   3.196  20.562  0.00  0.00    +0.000 A 
ATOM      4  C   UNL     1       3.158   2.184  21.354  0.00  0.00    +0.000 A 
ATOM      5  C   UNL     1       1.801   2.193  21.663  0.00  0.00    +0.000 A 
ATOM      6  C   UNL     1       0.999   3.247  21.233  0.00  0.00    +0.000 A 
ATOM      7  C   UNL     1       1.551   4.276  20.468  0.00  0.00    +0.000 A 
ENDBRANCH   1   2
BRANCH   1   9
ATOM      8  C   UNL     1       2.640   4.001  17.100  0.00  0.00    +0.000 C 
ATOM      9  N   UNL     1       3.690   4.804  17.722  0.00  0.00    +0.000 N 
ATOM     10  C   UNL     1       4.922   4.890  17.056  0.00  0.00    +0.000 C 
ATOM     11  O   UNL     1       5.140   4.275  16.007  0.00  0.00    +0.000 OA
BRANCH  10  12
ATOM     12  C   UNL     1       6.070   5.664  17.632  0.00  0.00    +0.000 A 
ATOM     13  C   UNL     1       6.364   6.918  17.103  0.00  0.00    +0.000 A 
ATOM     14  C   UNL     1       7.458   7.614  17.611  0.00  0.00    +0.000 A 
ATOM     15  C   UNL     1       8.211   7.048  18.631  0.00  0.00    +0.000 A 
ATOM     16  C   UNL     1       7.826   5.813  19.123  0.00  0.00    +0.000 A 
ATOM     17  N   UNL     1       6.771   5.115  18.651  0.00  0.00    +0.000 NA
ENDBRANCH  10  12
ENDBRANCH   1   9
BRANCH   1  18
ATOM     18  C   UNL     1       2.583   6.615  19.051  0.00  0.00    +0.000 C 
ATOM     19  O   UNL     1       2.204   7.073  17.970  0.00  0.00    +0.000 OA
ATOM     20  N   UNL     1       2.221   7.158  20.282  0.00  0.00    +0.000 N 
ATOM     21  H   UNL     1       2.814   6.933  21.072  0.00  0.00    +0.000 HD
BRANCH  20  22
ATOM     22  C   UNL     1       1.487   8.355  20.377  0.00  0.00    +0.000 A 
ATOM     23  C   UNL     1       1.391   9.238  19.299  0.00  0.00    +0.000 A 
ATOM     24  C   UNL     1       0.692  10.437  19.439  0.00  0.00    +0.000 A 
ATOM     25  C   UNL     1       0.128  10.769  20.666  0.00  0.00    +0.000 A 
ATOM     26  C   UNL     1       0.202   9.870  21.739  0.00  0.00    +0.000 A 
ATOM     27  C   UNL     1       0.858   8.652  21.587  0.00  0.00    +0.000 A 
ATOM     28  O   UNL     1      -0.307  10.143  22.982  0.00  0.00    +0.000 OA
ATOM     29  C   UNL     1      -1.192  11.268  22.958  0.00  0.00    +0.000 C 
ATOM     30  C   UNL     1      -0.629  12.401  22.117  0.00  0.00    +0.000 C 
ATOM     31  O   UNL     1      -0.482  11.994  20.753  0.00  0.00    +0.000 OA
ENDBRANCH  20  22
ENDBRANCH   1  18
TORSDOF 5
ENDMDL
MODEL 3
REMARK VINA RESULT:      -8.8      1.981      4.878
REMARK  Name = 
REMARK  6 active torsions:
REMARK  status: ('A' for Active; 'I' for Inactive)
REMARK    1  A    between atoms: C_1  and  N_2
REMARK    2  A    between atoms: N_2  and  C_11
REMARK    3  A    between atoms: C_3  and  C_5
REMARK    4  A    between atoms: C_11  and  C_12
REMARK    5  A    between atoms: C_11  and  C_25
REMARK    6  A    between atoms: N_14  and  C_15
REMARK                            x       y       z     vdW  Elec       q    Type
REMARK                         _______ _______ _______ _____ _____    ______ ____
ROOT
ATOM      1  C   UNL     1       4.543   4.872  17.281  0.00  0.00    +0.000 C 
ENDROOT
BRANCH   1   2
ATOM      2  C   UNL     1       5.357   4.812  15.978  0.00  0.00    +0.000 A 
ATOM      3  C   UNL     1       4.938   4.078  14.856  0.00  0.00    +0.000 A 
ATOM      4  C   UNL     1       5.755   3.965  13.729  0.00  0.00    +0.000 A 
ATOM      5  C   UNL     1       7.003   4.579  13.704  0.00  0.00    +0.000 A 
ATOM      6  C   UNL     1       7.411   5.362  14.780  0.00  0.00    +0.000 A 
ATOM      7  C   UNL     1       6.583   5.504  15.894  0.00  0.00    +0.000 A 
ENDBRANCH   1   2
BRANCH   1   9
ATOM      8  C   UNL     1       6.682   4.384  18.514  0.00  0.00    +0.000 C 
ATOM      9  N   UNL     1       5.228   4.255  18.450  0.00  0.00    +0.000 N 
ATOM     10  C   UNL     1       4.609   3.414  19.388  0.00  0.00    +0.000 C 
ATOM     11  O   UNL     1       5.262   2.763  20.210  0.00  0.00    +0.000 OA
BRANCH  10  12
ATOM     12  C   UNL     1       3.126   3.194  19.380  0.00  0.00    +0.000 A 
ATOM     13  C   UNL     1       2.607   2.158  18.607  0.00  0.00    +0.000 A 
ATOM     14  C   UNL     1       1.226   1.985  18.567  0.00  0.00    +0.000 A 
ATOM     15  C   UNL     1       0.412   2.836  19.305  0.00  0.00    +0.000 A 
ATOM     16  C   UNL     1       1.015   3.815  20.075  0.00  0.00    +0.000 A 
ATOM     17  N   UNL     1       2.350   4.007  20.134  0.00  0.00    +0.000 NA
ENDBRANCH  10  12
ENDBRANCH   1   9
BRANCH   1  18
ATOM     18  C   UNL     1       4.016   6.294  17.649  0.00  0.00    +0.000 C 
ATOM     19  O   UNL     1       4.714   7.291  17.445  0.00  0.00    +0.000 OA
ATOM     20  N   UNL     1       2.709   6.361  18.127  0.00  0.00    +0.000 N 
ATOM     21  H   UNL     1       2.338   5.523  18.560  0.00  0.00    +0.000 HD
BRANCH  20  22
ATOM     22  C   UNL     1       2.127   7.577  18.530  0.00  0.00    +0.000 A 
ATOM     23  C   UNL     1       1.912   8.618  17.623  0.00  0.00    +0.000 A 
ATOM     24  C   UNL     1       1.372   9.826  18.062  0.00  0.00    +0.000 A 
ATOM     25  C   UNL     1       1.088  10.006  19.412  0.00  0.00    +0.000 A 
ATOM     26  C   UNL     1       1.278   8.952  20.315  0.00  0.00    +0.000 A 
ATOM     27  C   UNL     1       1.771   7.729  19.871  0.00  0.00    +0.000 A 
ATOM     28  O   UNL     1       1.045   9.068  21.661  0.00  0.00    +0.000 OA
ATOM     29  C   UNL     1       0.285  10.240  21.970  0.00  0.00    +0.000 C 
ATOM     30  C   UNL     1       0.784  11.447  21.192  0.00  0.00    +0.000 C 
ATOM     31  O   UNL     1       0.628  11.242  19.785  0.00  0.00    +0.000 OA
ENDBRANCH  20  22
ENDBRANCH   1  18
TORSDOF 5
ENDMDL
MODEL 4
REMARK VINA RESULT:      -8.8      1.035      1.727
REMARK  Name = 
REMARK  6 active torsions:
REMARK  status: ('A' for Active; 'I' for Inactive)
REMARK    1  A    between atoms: C_1  and  N_2
REMARK    2  A    between atoms: N_2  and  C_11
REMARK    3  A    between atoms: C_3  and  C_5
REMARK    4  A    between atoms: C_11  and  C_12
REMARK    5  A    between atoms: C_11  and  C_25
REMARK    6  A    between atoms: N_14  and  C_15
REMARK                            x       y       z     vdW  Elec       q    Type
REMARK                         _______ _______ _______ _____ _____    ______ ____
ROOT
ATOM      1  C   UNL     1       3.441   5.220  18.918  0.00  0.00    +0.000 C 
ENDROOT
BRANCH   1   2
ATOM      2  C   UNL     1       2.903   4.124  19.854  0.00  0.00    +0.000 A 
ATOM      3  C   UNL     1       1.568   4.086  20.288  0.00  0.00    +0.000 A 
ATOM      4  C   UNL     1       1.144   3.136  21.219  0.00  0.00    +0.000 A 
ATOM      5  C   UNL     1       2.046   2.208  21.732  0.00  0.00    +0.000 A 
ATOM      6  C   UNL     1       3.359   2.189  21.268  0.00  0.00    +0.000 A 
ATOM      7  C   UNL     1       3.776   3.117  20.314  0.00  0.00    +0.000 A 
ENDBRANCH   1   2
BRANCH   1   9
ATOM      8  C   UNL     1       2.620   3.935  16.917  0.00  0.00    +0.000 C 
ATOM      9  N   UNL     1       3.661   4.765  17.519  0.00  0.00    +0.000 N 
ATOM     10  C   UNL     1       4.860   4.919  16.806  0.00  0.00    +0.000 C 
ATOM     11  O   UNL     1       5.061   4.341  15.733  0.00  0.00    +0.000 OA
BRANCH  10  12
ATOM     12  C   UNL     1       5.998   5.726  17.357  0.00  0.00    +0.000 A 
ATOM     13  C   UNL     1       6.785   5.171  18.364  0.00  0.00    +0.000 A 
ATOM     14  C   UNL     1       7.813   5.940  18.905  0.00  0.00    +0.000 A 
ATOM     15  C   UNL     1       8.029   7.223  18.420  0.00  0.00    +0.000 A 
ATOM     16  C   UNL     1       7.223   7.681  17.393  0.00  0.00    +0.000 A 
ATOM     17  N   UNL     1       6.220   6.960  16.849  0.00  0.00    +0.000 NA
ENDBRANCH  10  12
ENDBRANCH   1   9
BRANCH   1  18
ATOM     18  C   UNL     1       2.618   6.547  18.936  0.00  0.00    +0.000 C 
ATOM     19  O   UNL     1       2.288   7.089  17.878  0.00  0.00    +0.000 OA
ATOM     20  N   UNL     1       2.224   7.010  20.189  0.00  0.00    +0.000 N 
ATOM     21  H   UNL     1       2.784   6.716  20.981  0.00  0.00    +0.000 HD
BRANCH  20  22
ATOM     22  C   UNL     1       1.511   8.213  20.345  0.00  0.00    +0.000 A 
ATOM     23  C   UNL     1       0.654   8.416  21.429  0.00  0.00    +0.000 A 
ATOM     24  C   UNL     1      -0.071   9.603  21.533  0.00  0.00    +0.000 A 
ATOM     25  C   UNL     1       0.031  10.565  20.534  0.00  0.00    +0.000 A 
ATOM     26  C   UNL     1       0.912  10.372  19.462  0.00  0.00    +0.000 A 
ATOM     27  C   UNL     1       1.672   9.209  19.381  0.00  0.00    +0.000 A 
ATOM     28  O   UNL     1       1.043  11.264  18.429  0.00  0.00    +0.000 OA
ATOM     29  C   UNL     1       0.450  12.528  18.742  0.00  0.00    +0.000 C 
ATOM     30  C   UNL     1      -0.902  12.357  19.414  0.00  0.00    +0.000 C 
ATOM     31  O   UNL     1      -0.763  11.675  20.663  0.00  0.00    +0.000 OA
ENDBRANCH  20  22
ENDBRANCH   1  18
TORSDOF 5
ENDMDL
MODEL 5
REMARK VINA RESULT:      -8.6      0.907      1.722
REMARK  Name = 
REMARK  6 active torsions:
REMARK  status: ('A' for Active; 'I' for Inactive)
REMARK    1  A    between atoms: C_1  and  N_2
REMARK    2  A    between atoms: N_2  and  C_11
REMARK    3  A    between atoms: C_3  and  C_5
REMARK    4  A    between atoms: C_11  and  C_12
REMARK    5  A    between atoms: C_11  and  C_25
REMARK    6  A    between atoms: N_14  and  C_15
REMARK                            x       y       z     vdW  Elec       q    Type
REMARK                         _______ _______ _______ _____ _____    ______ ____
ROOT
ATOM      1  C   UNL     1       3.417   5.302  19.101  0.00  0.00    +0.000 C 
ENDROOT
BRANCH   1   2
ATOM      2  C   UNL     1       2.912   4.224  20.075  0.00  0.00    +0.000 A 
ATOM      3  C   UNL     1       3.731   3.188  20.551  0.00  0.00    +0.000 A 
ATOM      4  C   UNL     1       3.208   2.171  21.351  0.00  0.00    +0.000 A 
ATOM      5  C   UNL     1       1.858   2.170  21.688  0.00  0.00    +0.000 A 
ATOM      6  C   UNL     1       1.041   3.220  21.279  0.00  0.00    +0.000 A 
ATOM      7  C   UNL     1       1.570   4.255  20.506  0.00  0.00    +0.000 A 
ENDBRANCH   1   2
BRANCH   1   9
ATOM      8  C   UNL     1       2.610   4.005  17.102  0.00  0.00    +0.000 C 
ATOM      9  N   UNL     1       3.666   4.801  17.722  0.00  0.00    +0.000 N 
ATOM     10  C   UNL     1       4.897   4.882  17.052  0.00  0.00    +0.000 C 
ATOM     11  O   UNL     1       5.109   4.267  16.001  0.00  0.00    +0.000 OA
BRANCH  10  12
ATOM     12  C   UNL     1       6.050   5.648  17.626  0.00  0.00    +0.000 A 
ATOM     13  C   UNL     1       6.344   6.906  17.104  0.00  0.00    +0.000 A 
ATOM     14  C   UNL     1       7.443   7.596  17.610  0.00  0.00    +0.000 A 
ATOM     15  C   UNL     1       8.202   7.020  18.621  0.00  0.00    +0.000 A 
ATOM     16  C   UNL     1       7.817   5.783  19.106  0.00  0.00    +0.000 A 
ATOM     17  N   UNL     1       6.757   5.090  18.637  0.00  0.00    +0.000 NA
ENDBRANCH  10  12
ENDBRANCH   1   9
BRANCH   1  18
ATOM     18  C   UNL     1       2.545   6.597  19.060  0.00  0.00    +0.000 C 
ATOM     19  O   UNL     1       2.144   7.044  17.983  0.00  0.00    +0.000 OA
ATOM     20  N   UNL     1       2.193   7.140  20.293  0.00  0.00    +0.000 N 
ATOM     21  H   UNL     1       2.800   6.928  21.076  0.00  0.00    +0.000 HD
BRANCH  20  22
ATOM     22  C   UNL     1       1.442   8.326  20.394  0.00  0.00    +0.000 A 
ATOM     23  C   UNL     1       0.492   8.503  21.404  0.00  0.00    +0.000 A 
ATOM     24  C   UNL     1      -0.265   9.673  21.452  0.00  0.00    +0.000 A 
ATOM     25  C   UNL     1      -0.102  10.643  20.468  0.00  0.00    +0.000 A 
ATOM     26  C   UNL     1       0.870  10.476  19.473  0.00  0.00    +0.000 A 
ATOM     27  C   UNL     1       1.660   9.331  19.451  0.00  0.00    +0.000 A 
ATOM     28  O   UNL     1       1.066  11.377  18.459  0.00  0.00    +0.000 OA
ATOM     29  C   UNL     1       0.420  12.626  18.726  0.00  0.00    +0.000 C 
ATOM     30  C   UNL     1      -0.979  12.421  19.282  0.00  0.00    +0.000 C 
ATOM     31  O   UNL     1      -0.930  11.734  20.535  0.00  0.00    +0.000 OA
ENDBRANCH  20  22
ENDBRANCH   1  18
TORSDOF 5
ENDMDL
MODEL 6
REMARK VINA RESULT:      -8.2      0.942      1.182
REMARK  Name = 
REMARK  6 active torsions:
REMARK  status: ('A' for Active; 'I' for Inactive)
REMARK    1  A    between atoms: C_1  and  N_2
REMARK    2  A    between atoms: N_2  and  C_11
REMARK    3  A    between atoms: C_3  and  C_5
REMARK    4  A    between atoms: C_11  and  C_12
REMARK    5  A    between atoms: C_11  and  C_25
REMARK    6  A    between atoms: N_14  and  C_15
REMARK                            x       y       z     vdW  Elec       q    Type
REMARK                         _______ _______ _______ _____ _____    ______ ____
ROOT
ATOM      1  C   UNL     1       4.037   5.333  18.356  0.00  0.00    +0.000 C 
ENDROOT
BRANCH   1   2
ATOM      2  C   UNL     1       3.211   4.249  19.068  0.00  0.00    +0.000 A 
ATOM      3  C   UNL     1       1.906   3.910  18.677  0.00  0.00    +0.000 A 
ATOM      4  C   UNL     1       1.152   2.994  19.413  0.00  0.00    +0.000 A 
ATOM      5  C   UNL     1       1.688   2.403  20.553  0.00  0.00    +0.000 A 
ATOM      6  C   UNL     1       3.002   2.678  20.924  0.00  0.00    +0.000 A 
ATOM      7  C   UNL     1       3.768   3.568  20.171  0.00  0.00    +0.000 A 
ENDBRANCH   1   2
BRANCH   1   9
ATOM      8  C   UNL     1       3.735   3.988  16.251  0.00  0.00    +0.000 C 
ATOM      9  N   UNL     1       4.554   4.919  17.023  0.00  0.00    +0.000 N 
ATOM     10  C   UNL     1       5.838   5.212  16.536  0.00  0.00    +0.000 C 
ATOM     11  O   UNL     1       6.290   4.671  15.522  0.00  0.00    +0.000 OA
BRANCH  10  12
ATOM     12  C   UNL     1       6.762   6.131  17.276  0.00  0.00    +0.000 A 
ATOM     13  C   UNL     1       7.412   5.655  18.413  0.00  0.00    +0.000 A 
ATOM     14  C   UNL     1       8.235   6.525  19.123  0.00  0.00    +0.000 A 
ATOM     15  C   UNL     1       8.394   7.830  18.674  0.00  0.00    +0.000 A 
ATOM     16  C   UNL     1       7.740   8.208  17.514  0.00  0.00    +0.000 A 
ATOM     17  N   UNL     1       6.936   7.388  16.805  0.00  0.00    +0.000 NA
ENDBRANCH  10  12
ENDBRANCH   1   9
BRANCH   1  18
ATOM     18  C   UNL     1       3.333   6.723  18.259  0.00  0.00    +0.000 C 
ATOM     19  O   UNL     1       3.432   7.402  17.233  0.00  0.00    +0.000 OA
ATOM     20  N   UNL     1       2.540   7.088  19.344  0.00  0.00    +0.000 N 
ATOM     21  H   UNL     1       2.763   6.661  20.236  0.00  0.00    +0.000 HD
BRANCH  20  22
ATOM     22  C   UNL     1       1.883   8.331  19.399  0.00  0.00    +0.000 A 
ATOM     23  C   UNL     1       1.691   9.104  18.251  0.00  0.00    +0.000 A 
ATOM     24  C   UNL     1       1.073  10.351  18.344  0.00  0.00    +0.000 A 
ATOM     25  C   UNL     1       0.687  10.839  19.588  0.00  0.00    +0.000 A 
ATOM     26  C   UNL     1       0.856  10.051  20.735  0.00  0.00    +0.000 A 
ATOM     27  C   UNL     1       1.428   8.787  20.637  0.00  0.00    +0.000 A 
ATOM     28  O   UNL     1       0.525  10.480  21.994  0.00  0.00    +0.000 OA
ATOM     29  C   UNL     1      -0.302  11.647  21.957  0.00  0.00    +0.000 C 
ATOM     30  C   UNL     1       0.201  12.653  20.935  0.00  0.00    +0.000 C 
ATOM     31  O   UNL     1       0.152  12.101  19.616  0.00  0.00    +0.000 OA
ENDBRANCH  20  22
ENDBRANCH   1  18
TORSDOF 5
ENDMDL
MODEL 7
REMARK VINA RESULT:      -8.0      2.985      8.285
REMARK  Name = 
REMARK  6 active torsions:
REMARK  status: ('A' for Active; 'I' for Inactive)
REMARK    1  A    between atoms: C_1  and  N_2
REMARK    2  A    between atoms: N_2  and  C_11
REMARK    3  A    between atoms: C_3  and  C_5
REMARK    4  A    between atoms: C_11  and  C_12
REMARK    5  A    between atoms: C_11  and  C_25
REMARK    6  A    between atoms: N_14  and  C_15
REMARK                            x       y       z     vdW  Elec       q    Type
REMARK                         _______ _______ _______ _____ _____    ______ ____
ROOT
ATOM      1  C   UNL     1       0.283  11.036  18.784  0.00  0.00    +0.000 C 
ENDROOT
BRANCH   1   2
ATOM      2  C   UNL     1      -1.144  10.807  18.259  0.00  0.00    +0.000 A 
ATOM      3  C   UNL     1      -1.460   9.800  17.333  0.00  0.00    +0.000 A 
ATOM      4  C   UNL     1      -2.747   9.692  16.803  0.00  0.00    +0.000 A 
ATOM      5  C   UNL     1      -3.740  10.588  17.188  0.00  0.00    +0.000 A 
ATOM      6  C   UNL     1      -3.465  11.555  18.151  0.00  0.00    +0.000 A 
ATOM      7  C   UNL     1      -2.188  11.644  18.706  0.00  0.00    +0.000 A 
ENDBRANCH   1   2
BRANCH   1   9
ATOM      8  C   UNL     1      -0.288  10.373  21.143  0.00  0.00    +0.000 C 
ATOM      9  N   UNL     1       0.351  11.329  20.242  0.00  0.00    +0.000 N 
ATOM     10  C   UNL     1       0.818  12.531  20.795  0.00  0.00    +0.000 C 
ATOM     11  O   UNL     1       0.658  12.805  21.989  0.00  0.00    +0.000 OA
BRANCH  10  12
ATOM     12  C   UNL     1       1.459  13.586  19.944  0.00  0.00    +0.000 A 
ATOM     13  C   UNL     1       0.695  14.682  19.549  0.00  0.00    +0.000 A 
ATOM     14  C   UNL     1       1.280  15.637  18.722  0.00  0.00    +0.000 A 
ATOM     15  C   UNL     1       2.602  15.477  18.327  0.00  0.00    +0.000 A 
ATOM     16  C   UNL     1       3.298  14.377  18.795  0.00  0.00    +0.000 A 
ATOM     17  N   UNL     1       2.758  13.435  19.598  0.00  0.00    +0.000 NA
ENDBRANCH  10  12
ENDBRANCH   1   9
BRANCH   1  18
ATOM     18  C   UNL     1       1.298   9.911  18.407  0.00  0.00    +0.000 C 
ATOM     19  O   UNL     1       2.040  10.042  17.431  0.00  0.00    +0.000 OA
ATOM     20  N   UNL     1       1.363   8.825  19.277  0.00  0.00    +0.000 N 
ATOM     21  H   UNL     1       0.539   8.638  19.836  0.00  0.00    +0.000 HD
BRANCH  20  22
ATOM     22  C   UNL     1       2.209   7.727  19.032  0.00  0.00    +0.000 A 
ATOM     23  C   UNL     1       2.288   6.655  19.925  0.00  0.00    +0.000 A 
ATOM     24  C   UNL     1       3.167   5.602  19.674  0.00  0.00    +0.000 A 
ATOM     25  C   UNL     1       3.995   5.643  18.557  0.00  0.00    +0.000 A 
ATOM     26  C   UNL     1       3.895   6.705  17.648  0.00  0.00    +0.000 A 
ATOM     27  C   UNL     1       2.984   7.733  17.871  0.00  0.00    +0.000 A 
ATOM     28  O   UNL     1       4.696   6.824  16.543  0.00  0.00    +0.000 OA
ATOM     29  C   UNL     1       5.383   5.602  16.252  0.00  0.00    +0.000 C 
ATOM     30  C   UNL     1       5.941   4.964  17.513  0.00  0.00    +0.000 C 
ATOM     31  O   UNL     1       4.885   4.611  18.411  0.00  0.00    +0.000 OA
ENDBRANCH  20  22
ENDBRANCH   1  18
TORSDOF 5
ENDMDL
MODEL 8
REMARK VINA RESULT:      -8.0      1.969      5.029
REMARK  Name = 
REMARK  6 active torsions:
REMARK  status: ('A' for Active; 'I' for Inactive)
REMARK    1  A    between atoms: C_1  and  N_2
REMARK    2  A    between atoms: N_2  and  C_11
REMARK    3  A    between atoms: C_3  and  C_5
REMARK    4  A    between atoms: C_11  and  C_12
REMARK    5  A    between atoms: C_11  and  C_25
REMARK    6  A    between atoms: N_14  and  C_15
REMARK                            x       y       z     vdW  Elec       q    Type
REMARK                         _______ _______ _______ _____ _____    ______ ____
ROOT
ATOM      1  C   UNL     1       4.462   4.846  17.543  0.00  0.00    +0.000 C 
ENDROOT
BRANCH   1   2
ATOM      2  C   UNL     1       5.274   4.899  16.238  0.00  0.00    +0.000 A 
ATOM      3  C   UNL     1       4.916   4.170  15.092  0.00  0.00    +0.000 A 
ATOM      4  C   UNL     1       5.735   4.164  13.962  0.00  0.00    +0.000 A 
ATOM      5  C   UNL     1       6.926   4.884  13.957  0.00  0.00    +0.000 A 
ATOM      6  C   UNL     1       7.269   5.663  15.058  0.00  0.00    +0.000 A 
ATOM      7  C   UNL     1       6.435   5.696  16.176  0.00  0.00    +0.000 A 
ENDBRANCH   1   2
BRANCH   1   9
ATOM      8  C   UNL     1       6.605   4.228  18.708  0.00  0.00    +0.000 C 
ATOM      9  N   UNL     1       5.149   4.129  18.652  0.00  0.00    +0.000 N 
ATOM     10  C   UNL     1       4.525   3.229  19.530  0.00  0.00    +0.000 C 
ATOM     11  O   UNL     1       5.175   2.506  20.292  0.00  0.00    +0.000 OA
BRANCH  10  12
ATOM     12  C   UNL     1       3.039   3.036  19.524  0.00  0.00    +0.000 A 
ATOM     13  C   UNL     1       2.479   2.182  18.576  0.00  0.00    +0.000 A 
ATOM     14  C   UNL     1       1.094   2.039  18.545  0.00  0.00    +0.000 A 
ATOM     15  C   UNL     1       0.317   2.737  19.461  0.00  0.00    +0.000 A 
ATOM     16  C   UNL     1       0.959   3.535  20.392  0.00  0.00    +0.000 A 
ATOM     17  N   UNL     1       2.298   3.693  20.447  0.00  0.00    +0.000 NA
ENDBRANCH  10  12
ENDBRANCH   1   9
BRANCH   1  18
ATOM     18  C   UNL     1       3.936   6.231  18.034  0.00  0.00    +0.000 C 
ATOM     19  O   UNL     1       4.547   7.266  17.753  0.00  0.00    +0.000 OA
ATOM     20  N   UNL     1       2.721   6.221  18.715  0.00  0.00    +0.000 N 
ATOM     21  H   UNL     1       2.463   5.356  19.175  0.00  0.00    +0.000 HD
BRANCH  20  22
ATOM     22  C   UNL     1       2.156   7.397  19.243  0.00  0.00    +0.000 A 
ATOM     23  C   UNL     1       1.799   7.491  20.590  0.00  0.00    +0.000 A 
ATOM     24  C   UNL     1       1.202   8.655  21.074  0.00  0.00    +0.000 A 
ATOM     25  C   UNL     1       0.926   9.704  20.202  0.00  0.00    +0.000 A 
ATOM     26  C   UNL     1       1.310   9.618  18.857  0.00  0.00    +0.000 A 
ATOM     27  C   UNL     1       1.949   8.477  18.383  0.00  0.00    +0.000 A 
ATOM     28  O   UNL     1       1.046  10.601  17.939  0.00  0.00    +0.000 OA
ATOM     29  C   UNL     1       0.654  11.825  18.568  0.00  0.00    +0.000 C 
ATOM     30  C   UNL     1      -0.329  11.578  19.700  0.00  0.00    +0.000 C 
ATOM     31  O   UNL     1       0.273  10.788  20.729  0.00  0.00    +0.000 OA
ENDBRANCH  20  22
ENDBRANCH   1  18
TORSDOF 5
ENDMDL
MODEL 9
REMARK VINA RESULT:      -8.0      2.753      8.270
REMARK  Name = 
REMARK  6 active torsions:
REMARK  status: ('A' for Active; 'I' for Inactive)
REMARK    1  A    between atoms: C_1  and  N_2
REMARK    2  A    between atoms: N_2  and  C_11
REMARK    3  A    between atoms: C_3  and  C_5
REMARK    4  A    between atoms: C_11  and  C_12
REMARK    5  A    between atoms: C_11  and  C_25
REMARK    6  A    between atoms: N_14  and  C_15
REMARK                            x       y       z     vdW  Elec       q    Type
REMARK                         _______ _______ _______ _____ _____    ______ ____
ROOT
ATOM      1  C   UNL     1       0.178  10.704  19.059  0.00  0.00    +0.000 C 
ENDROOT
BRANCH   1   2
ATOM      2  C   UNL     1      -1.181  10.651  18.343  0.00  0.00    +0.000 A 
ATOM      3  C   UNL     1      -1.444   9.774  17.278  0.00  0.00    +0.000 A 
ATOM      4  C   UNL     1      -2.655   9.828  16.587  0.00  0.00    +0.000 A 
ATOM      5  C   UNL     1      -3.625  10.760  16.947  0.00  0.00    +0.000 A 
ATOM      6  C   UNL     1      -3.411  11.596  18.039  0.00  0.00    +0.000 A 
ATOM      7  C   UNL     1      -2.213  11.521  18.751  0.00  0.00    +0.000 A 
ENDBRANCH   1   2
BRANCH   1   9
ATOM      8  C   UNL     1      -0.479   9.366  21.086  0.00  0.00    +0.000 C 
ATOM      9  N   UNL     1       0.085  10.598  20.541  0.00  0.00    +0.000 N 
ATOM     10  C   UNL     1       0.326  11.653  21.435  0.00  0.00    +0.000 C 
ATOM     11  O   UNL     1       0.032  11.573  22.632  0.00  0.00    +0.000 OA
BRANCH  10  12
ATOM     12  C   UNL     1       0.873  12.967  20.963  0.00  0.00    +0.000 A 
ATOM     13  C   UNL     1      -0.017  13.940  20.514  0.00  0.00    +0.000 A 
ATOM     14  C   UNL     1       0.497  15.142  20.035  0.00  0.00    +0.000 A 
ATOM     15  C   UNL     1       1.872  15.340  20.031  0.00  0.00    +0.000 A 
ATOM     16  C   UNL     1       2.681  14.335  20.530  0.00  0.00    +0.000 A 
ATOM     17  N   UNL     1       2.212  13.160  21.001  0.00  0.00    +0.000 NA
ENDBRANCH  10  12
ENDBRANCH   1   9
BRANCH   1  18
ATOM     18  C   UNL     1       1.240   9.700  18.508  0.00  0.00    +0.000 C 
ATOM     19  O   UNL     1       1.857   9.953  17.471  0.00  0.00    +0.000 OA
ATOM     20  N   UNL     1       1.492   8.579  19.295  0.00  0.00    +0.000 N 
ATOM     21  H   UNL     1       0.752   8.286  19.922  0.00  0.00    +0.000 HD
BRANCH  20  22
ATOM     22  C   UNL     1       2.397   7.579  18.894  0.00  0.00    +0.000 A 
ATOM     23  C   UNL     1       3.251   7.764  17.804  0.00  0.00    +0.000 A 
ATOM     24  C   UNL     1       4.107   6.738  17.405  0.00  0.00    +0.000 A 
ATOM     25  C   UNL     1       4.077   5.516  18.069  0.00  0.00    +0.000 A 
ATOM     26  C   UNL     1       3.239   5.341  19.179  0.00  0.00    +0.000 A 
ATOM     27  C   UNL     1       2.419   6.380  19.608  0.00  0.00    +0.000 A 
ATOM     28  O   UNL     1       3.139   4.157  19.863  0.00  0.00    +0.000 OA
ATOM     29  C   UNL     1       4.206   3.262  19.534  0.00  0.00    +0.000 C 
ATOM     30  C   UNL     1       4.472   3.239  18.038  0.00  0.00    +0.000 C 
ATOM     31  O   UNL     1       4.891   4.528  17.579  0.00  0.00    +0.000 OA
ENDBRANCH  20  22
ENDBRANCH   1  18
TORSDOF 5
ENDMDL
