MODEL 1
REMARK VINA RESULT:      -7.0      0.000      0.000
REMARK  Name = 
REMARK  18 active torsions:
REMARK  status: ('A' for Active; 'I' for Inactive)
REMARK    1  A    between atoms: C_1  and  C_2
REMARK    2  A    between atoms: C_2  and  O_3
REMARK    3  A    between atoms: O_3  and  C_4
REMARK    4  A    between atoms: C_7  and  C_8
REMARK    5  A    between atoms: C_8  and  C_9
REMARK    6  A    between atoms: C_9  and  N_10
REMARK    7  A    between atoms: C_11  and  C_13
REMARK    8  A    between atoms: C_16  and  C_17
REMARK    9  A    between atoms: C_17  and  C_18
REMARK   10  A    between atoms: C_20  and  O_21
REMARK   11  A    between atoms: O_21  and  C_22
REMARK   12  A    between atoms: C_23  and  O_24
REMARK   13  A    between atoms: O_24  and  C_25
REMARK   14  A    between atoms: C_26  and  O_27
REMARK   15  A    between atoms: O_27  and  C_28
REMARK   16  A    between atoms: C_32  and  O_33
REMARK   17  A    between atoms: O_33  and  C_34
REMARK   18  A    between atoms: C_34  and  C_35
REMARK                            x       y       z     vdW  Elec       q    Type
REMARK                         _______ _______ _______ _____ _____    ______ ____
ROOT
ATOM      1  N   UNL     1       6.961   7.530  17.011  0.00  0.00    +0.000 N 
ATOM      2  C   UNL     1       7.867   7.750  18.047  0.00  0.00    +0.000 C 
ATOM      3  O   UNL     1       8.245   6.824  18.763  0.00  0.00    +0.000 OA
ATOM      4  H   UNL     1       6.700   8.313  16.422  0.00  0.00    +0.000 HD
ENDROOT
BRANCH   2   5
ATOM      5  C   UNL     1       8.340   9.116  18.197  0.00  0.00    +0.000 A 
ATOM      6  N   UNL     1       8.026  10.158  17.448  0.00  0.00    +0.000 NA
ATOM      7  N   UNL     1       8.766  11.222  17.933  0.00  0.00    +0.000 NA
ATOM      8  C   UNL     1       9.477  10.760  18.940  0.00  0.00    +0.000 A 
ATOM      9  O   UNL     1       9.255   9.426  19.173  0.00  0.00    +0.000 OA
BRANCH   8  10
ATOM     10  C   UNL     1      10.549  11.423  19.730  0.00  0.00    +0.000 C 
BRANCH  10  11
ATOM     11  C   UNL     1      10.057  12.390  20.785  0.00  0.00    +0.000 A 
ATOM     12  C   UNL     1      10.594  13.678  20.857  0.00  0.00    +0.000 A 
ATOM     13  C   UNL     1      10.096  14.620  21.761  0.00  0.00    +0.000 A 
ATOM     14  C   UNL     1       9.059  14.261  22.655  0.00  0.00    +0.000 A 
ATOM     15  C   UNL     1       8.543  12.949  22.624  0.00  0.00    +0.000 A 
ATOM     16  C   UNL     1       9.042  12.033  21.683  0.00  0.00    +0.000 A 
BRANCH  13  17
ATOM     17  O   UNL     1      10.578  15.905  21.828  0.00  0.00    +0.000 OA
ATOM     18  C   UNL     1      10.801  16.555  20.579  0.00  0.00    +0.000 C 
ENDBRANCH  13  17
BRANCH  14  19
ATOM     19  O   UNL     1       8.680  15.253  23.532  0.00  0.00    +0.000 OA
ATOM     20  C   UNL     1       7.480  15.960  23.247  0.00  0.00    +0.000 C 
ENDBRANCH  14  19
BRANCH  15  21
ATOM     21  O   UNL     1       7.574  12.617  23.537  0.00  0.00    +0.000 OA
ATOM     22  C   UNL     1       7.971  11.983  24.746  0.00  0.00    +0.000 C 
ENDBRANCH  15  21
ENDBRANCH  10  11
ENDBRANCH   8  10
ENDBRANCH   2   5
BRANCH   1  23
ATOM     23  C   UNL     1       6.479   6.182  16.738  0.00  0.00    +0.000 C 
BRANCH  23  24
ATOM     24  C   UNL     1       4.996   6.100  16.363  0.00  0.00    +0.000 C 
BRANCH  24  28
ATOM     25  C   UNL     1       2.285   6.881  19.671  0.00  0.00    +0.000 A 
ATOM     26  C   UNL     1       2.519   7.847  18.682  0.00  0.00    +0.000 A 
ATOM     27  C   UNL     1       3.402   7.606  17.622  0.00  0.00    +0.000 A 
ATOM     28  C   UNL     1       4.095   6.396  17.543  0.00  0.00    +0.000 A 
ATOM     29  C   UNL     1       3.913   5.457  18.571  0.00  0.00    +0.000 A 
ATOM     30  C   UNL     1       3.046   5.704  19.652  0.00  0.00    +0.000 A 
BRANCH  25  31
ATOM     31  O   UNL     1       1.325   7.043  20.638  0.00  0.00    +0.000 OA
BRANCH  31  33
ATOM     32  C   UNL     1      -0.172   8.678  21.566  0.00  0.00    +0.000 C 
ATOM     33  C   UNL     1       1.273   8.330  21.262  0.00  0.00    +0.000 C 
ENDBRANCH  31  33
ENDBRANCH  25  31
BRANCH  30  34
ATOM     34  O   UNL     1       3.029   4.675  20.567  0.00  0.00    +0.000 OA
BRANCH  34  35
ATOM     35  C   UNL     1       2.637   3.383  20.096  0.00  0.00    +0.000 C 
ATOM     36  C   UNL     1       1.216   3.107  20.560  0.00  0.00    +0.000 C 
ENDBRANCH  34  35
ENDBRANCH  30  34
ENDBRANCH  24  28
ENDBRANCH  23  24
ENDBRANCH   1  23
TORSDOF 13
ENDMDL
MODEL 2
REMARK VINA RESULT:      -7.0      5.861      9.659
REMARK  Name = 
REMARK  18 active torsions:
REMARK  status: ('A' for Active; 'I' for Inactive)
REMARK    1  A    between atoms: C_1  and  C_2
REMARK    2  A    between atoms: C_2  and  O_3
REMARK    3  A    between atoms: O_3  and  C_4
REMARK    4  A    between atoms: C_7  and  C_8
REMARK    5  A    between atoms: C_8  and  C_9
REMARK    6  A    between atoms: C_9  and  N_10
REMARK    7  A    between atoms: C_11  and  C_13
REMARK    8  A    between atoms: C_16  and  C_17
REMARK    9  A    between atoms: C_17  and  C_18
REMARK   10  A    between atoms: C_20  and  O_21
REMARK   11  A    between atoms: O_21  and  C_22
REMARK   12  A    between atoms: C_23  and  O_24
REMARK   13  A    between atoms: O_24  and  C_25
REMARK   14  A    between atoms: C_26  and  O_27
REMARK   15  A    between atoms: O_27  and  C_28
REMARK   16  A    between atoms: C_32  and  O_33
REMARK   17  A    between atoms: O_33  and  C_34
REMARK   18  A    between atoms: C_34  and  C_35
REMARK                            x       y       z     vdW  Elec       q    Type
REMARK                         _______ _______ _______ _____ _____    ______ ____
ROOT
ATOM      1  N   UNL     1       1.868   7.432  21.044  0.00  0.00    +0.000 N 
ATOM      2  C   UNL     1       2.257   7.256  19.717  0.00  0.00    +0.000 C 
ATOM      3  O   UNL     1       2.172   8.177  18.906  0.00  0.00    +0.000 OA
ATOM      4  H   UNL     1       1.985   6.658  21.689  0.00  0.00    +0.000 HD
ENDROOT
BRANCH   2   5
ATOM      5  C   UNL     1       2.782   5.944  19.378  0.00  0.00    +0.000 A 
ATOM      6  N   UNL     1       3.381   5.088  20.186  0.00  0.00    +0.000 NA
ATOM      7  N   UNL     1       3.758   4.012  19.403  0.00  0.00    +0.000 NA
ATOM      8  C   UNL     1       3.366   4.281  18.176  0.00  0.00    +0.000 A 
ATOM      9  O   UNL     1       2.729   5.493  18.081  0.00  0.00    +0.000 OA
BRANCH   8  10
ATOM     10  C   UNL     1       3.636   3.550  16.910  0.00  0.00    +0.000 C 
BRANCH  10  11
ATOM     11  C   UNL     1       4.810   4.071  16.110  0.00  0.00    +0.000 A 
ATOM     12  C   UNL     1       5.639   5.059  16.649  0.00  0.00    +0.000 A 
ATOM     13  C   UNL     1       6.781   5.492  15.971  0.00  0.00    +0.000 A 
ATOM     14  C   UNL     1       7.091   4.961  14.696  0.00  0.00    +0.000 A 
ATOM     15  C   UNL     1       6.235   3.999  14.122  0.00  0.00    +0.000 A 
ATOM     16  C   UNL     1       5.110   3.558  14.840  0.00  0.00    +0.000 A 
BRANCH  13  17
ATOM     17  O   UNL     1       7.636   6.433  16.493  0.00  0.00    +0.000 OA
ATOM     18  C   UNL     1       7.056   7.372  17.395  0.00  0.00    +0.000 C 
ENDBRANCH  13  17
BRANCH  14  19
ATOM     19  O   UNL     1       8.212   5.495  14.102  0.00  0.00    +0.000 OA
ATOM     20  C   UNL     1       8.125   5.845  12.726  0.00  0.00    +0.000 C 
ENDBRANCH  14  19
BRANCH  15  21
ATOM     21  O   UNL     1       6.534   3.540  12.863  0.00  0.00    +0.000 OA
ATOM     22  C   UNL     1       5.463   3.183  12.000  0.00  0.00    +0.000 C 
ENDBRANCH  15  21
ENDBRANCH  10  11
ENDBRANCH   8  10
ENDBRANCH   2   5
BRANCH   1  23
ATOM     23  C   UNL     1       1.391   8.731  21.497  0.00  0.00    +0.000 C 
BRANCH  23  24
ATOM     24  C   UNL     1      -0.133   8.888  21.490  0.00  0.00    +0.000 C 
BRANCH  24  28
ATOM     25  C   UNL     1      -1.201  12.907  20.221  0.00  0.00    +0.000 A 
ATOM     26  C   UNL     1      -1.027  12.597  21.578  0.00  0.00    +0.000 A 
ATOM     27  C   UNL     1      -0.697  11.301  21.993  0.00  0.00    +0.000 A 
ATOM     28  C   UNL     1      -0.559  10.275  21.056  0.00  0.00    +0.000 A 
ATOM     29  C   UNL     1      -0.803  10.570  19.705  0.00  0.00    +0.000 A 
ATOM     30  C   UNL     1      -1.159  11.865  19.286  0.00  0.00    +0.000 A 
BRANCH  25  31
ATOM     31  O   UNL     1      -1.388  14.194  19.784  0.00  0.00    +0.000 OA
BRANCH  31  33
ATOM     32  C   UNL     1       0.454  15.661  20.266  0.00  0.00    +0.000 C 
ATOM     33  C   UNL     1      -0.247  14.833  19.204  0.00  0.00    +0.000 C 
ENDBRANCH  31  33
ENDBRANCH  25  31
BRANCH  30  34
ATOM     34  O   UNL     1      -1.383  11.943  17.928  0.00  0.00    +0.000 OA
BRANCH  34  35
ATOM     35  C   UNL     1      -2.634  11.453  17.440  0.00  0.00    +0.000 C 
ATOM     36  C   UNL     1      -2.364  10.322  16.460  0.00  0.00    +0.000 C 
ENDBRANCH  34  35
ENDBRANCH  30  34
ENDBRANCH  24  28
ENDBRANCH  23  24
ENDBRANCH   1  23
TORSDOF 13
ENDMDL
MODEL 3
REMARK VINA RESULT:      -7.0      5.280      9.819
REMARK  Name = 
REMARK  18 active torsions:
REMARK  status: ('A' for Active; 'I' for Inactive)
REMARK    1  A    between atoms: C_1  and  C_2
REMARK    2  A    between atoms: C_2  and  O_3
REMARK    3  A    between atoms: O_3  and  C_4
REMARK    4  A    between atoms: C_7  and  C_8
REMARK    5  A    between atoms: C_8  and  C_9
REMARK    6  A    between atoms: C_9  and  N_10
REMARK    7  A    between atoms: C_11  and  C_13
REMARK    8  A    between atoms: C_16  and  C_17
REMARK    9  A    between atoms: C_17  and  C_18
REMARK   10  A    between atoms: C_20  and  O_21
REMARK   11  A    between atoms: O_21  and  C_22
REMARK   12  A    between atoms: C_23  and  O_24
REMARK   13  A    between atoms: O_24  and  C_25
REMARK   14  A    between atoms: C_26  and  O_27
REMARK   15  A    between atoms: O_27  and  C_28
REMARK   16  A    between atoms: C_32  and  O_33
REMARK   17  A    between atoms: O_33  and  C_34
REMARK   18  A    between atoms: C_34  and  C_35
REMARK                            x       y       z     vdW  Elec       q    Type
REMARK                         _______ _______ _______ _____ _____    ______ ____
ROOT
ATOM      1  N   UNL     1       2.451   6.344  19.693  0.00  0.00    +0.000 N 
ATOM      2  C   UNL     1       1.804   7.464  20.215  0.00  0.00    +0.000 C 
ATOM      3  O   UNL     1       1.448   7.497  21.392  0.00  0.00    +0.000 OA
ATOM      4  H   UNL     1       2.757   6.370  18.728  0.00  0.00    +0.000 HD
ENDROOT
BRANCH   2   5
ATOM      5  C   UNL     1       1.608   8.570  19.294  0.00  0.00    +0.000 A 
ATOM      6  N   UNL     1       2.184   8.744  18.118  0.00  0.00    +0.000 NA
ATOM      7  N   UNL     1       1.738   9.964  17.642  0.00  0.00    +0.000 NA
ATOM      8  C   UNL     1       0.923  10.450  18.555  0.00  0.00    +0.000 A 
ATOM      9  O   UNL     1       0.784   9.616  19.635  0.00  0.00    +0.000 OA
BRANCH   8  10
ATOM     10  C   UNL     1       0.276  11.787  18.636  0.00  0.00    +0.000 C 
BRANCH  10  11
ATOM     11  C   UNL     1      -1.231  11.775  18.492  0.00  0.00    +0.000 A 
ATOM     12  C   UNL     1      -1.818  11.262  17.333  0.00  0.00    +0.000 A 
ATOM     13  C   UNL     1      -3.206  11.155  17.211  0.00  0.00    +0.000 A 
ATOM     14  C   UNL     1      -4.044  11.613  18.257  0.00  0.00    +0.000 A 
ATOM     15  C   UNL     1      -3.463  12.178  19.411  0.00  0.00    +0.000 A 
ATOM     16  C   UNL     1      -2.063  12.243  19.518  0.00  0.00    +0.000 A 
BRANCH  13  17
ATOM     17  O   UNL     1      -3.810  10.619  16.099  0.00  0.00    +0.000 OA
ATOM     18  C   UNL     1      -2.958  10.366  14.986  0.00  0.00    +0.000 C 
ENDBRANCH  13  17
BRANCH  14  19
ATOM     19  O   UNL     1      -5.393  11.503  18.008  0.00  0.00    +0.000 OA
ATOM     20  C   UNL     1      -6.098  10.454  18.660  0.00  0.00    +0.000 C 
ENDBRANCH  14  19
BRANCH  15  21
ATOM     21  O   UNL     1      -4.302  12.659  20.384  0.00  0.00    +0.000 OA
ATOM     22  C   UNL     1      -3.760  12.941  21.667  0.00  0.00    +0.000 C 
ENDBRANCH  15  21
ENDBRANCH  10  11
ENDBRANCH   8  10
ENDBRANCH   2   5
BRANCH   1  23
ATOM     23  C   UNL     1       2.752   5.209  20.556  0.00  0.00    +0.000 C 
BRANCH  23  24
ATOM     24  C   UNL     1       3.238   3.959  19.815  0.00  0.00    +0.000 C 
BRANCH  24  28
ATOM     25  C   UNL     1       5.526   5.092  16.296  0.00  0.00    +0.000 A 
ATOM     26  C   UNL     1       4.427   4.226  16.199  0.00  0.00    +0.000 A 
ATOM     27  C   UNL     1       3.695   3.847  17.330  0.00  0.00    +0.000 A 
ATOM     28  C   UNL     1       4.066   4.307  18.596  0.00  0.00    +0.000 A 
ATOM     29  C   UNL     1       5.208   5.117  18.702  0.00  0.00    +0.000 A 
ATOM     30  C   UNL     1       5.962   5.480  17.570  0.00  0.00    +0.000 A 
BRANCH  25  31
ATOM     31  O   UNL     1       6.170   5.583  15.188  0.00  0.00    +0.000 OA
BRANCH  31  33
ATOM     32  C   UNL     1       6.396   4.016  13.379  0.00  0.00    +0.000 C 
ATOM     33  C   UNL     1       7.089   4.691  14.549  0.00  0.00    +0.000 C 
ENDBRANCH  31  33
ENDBRANCH  25  31
BRANCH  30  34
ATOM     34  O   UNL     1       7.058   6.252  17.886  0.00  0.00    +0.000 OA
BRANCH  34  35
ATOM     35  C   UNL     1       7.074   7.599  17.404  0.00  0.00    +0.000 C 
ATOM     36  C   UNL     1       8.202   8.349  18.096  0.00  0.00    +0.000 C 
ENDBRANCH  34  35
ENDBRANCH  30  34
ENDBRANCH  24  28
ENDBRANCH  23  24
ENDBRANCH   1  23
TORSDOF 13
ENDMDL
MODEL 4
REMARK VINA RESULT:      -7.0      5.358      9.742
REMARK  Name = 
REMARK  18 active torsions:
REMARK  status: ('A' for Active; 'I' for Inactive)
REMARK    1  A    between atoms: C_1  and  C_2
REMARK    2  A    between atoms: C_2  and  O_3
REMARK    3  A    between atoms: O_3  and  C_4
REMARK    4  A    between atoms: C_7  and  C_8
REMARK    5  A    between atoms: C_8  and  C_9
REMARK    6  A    between atoms: C_9  and  N_10
REMARK    7  A    between atoms: C_11  and  C_13
REMARK    8  A    between atoms: C_16  and  C_17
REMARK    9  A    between atoms: C_17  and  C_18
REMARK   10  A    between atoms: C_20  and  O_21
REMARK   11  A    between atoms: O_21  and  C_22
REMARK   12  A    between atoms: C_23  and  O_24
REMARK   13  A    between atoms: O_24  and  C_25
REMARK   14  A    between atoms: C_26  and  O_27
REMARK   15  A    between atoms: O_27  and  C_28
REMARK   16  A    between atoms: C_32  and  O_33
REMARK   17  A    between atoms: O_33  and  C_34
REMARK   18  A    between atoms: C_34  and  C_35
REMARK                            x       y       z     vdW  Elec       q    Type
REMARK                         _______ _______ _______ _____ _____    ______ ____
ROOT
ATOM      1  N   UNL     1      -0.555  10.812  21.469  0.00  0.00    +0.000 N 
ATOM      2  C   UNL     1       0.762  10.651  21.041  0.00  0.00    +0.000 C 
ATOM      3  O   UNL     1       1.549  11.598  21.046  0.00  0.00    +0.000 OA
ATOM      4  H   UNL     1      -1.161  10.000  21.480  0.00  0.00    +0.000 HD
ENDROOT
BRANCH   2   5
ATOM      5  C   UNL     1       1.135   9.310  20.622  0.00  0.00    +0.000 A 
ATOM      6  N   UNL     1       1.314   8.252  21.393  0.00  0.00    +0.000 NA
ATOM      7  N   UNL     1       1.719   7.227  20.557  0.00  0.00    +0.000 NA
ATOM      8  C   UNL     1       1.760   7.725  19.339  0.00  0.00    +0.000 A 
ATOM      9  O   UNL     1       1.394   9.047  19.299  0.00  0.00    +0.000 OA
BRANCH   8  10
ATOM     10  C   UNL     1       2.266   7.117  18.080  0.00  0.00    +0.000 C 
BRANCH  10  11
ATOM     11  C   UNL     1       3.660   6.535  18.169  0.00  0.00    +0.000 A 
ATOM     12  C   UNL     1       3.883   5.363  18.897  0.00  0.00    +0.000 A 
ATOM     13  C   UNL     1       5.141   4.755  18.920  0.00  0.00    +0.000 A 
ATOM     14  C   UNL     1       6.227   5.350  18.234  0.00  0.00    +0.000 A 
ATOM     15  C   UNL     1       6.024   6.558  17.536  0.00  0.00    +0.000 A 
ATOM     16  C   UNL     1       4.741   7.131  17.504  0.00  0.00    +0.000 A 
BRANCH  13  17
ATOM     17  O   UNL     1       5.380   3.582  19.596  0.00  0.00    +0.000 OA
ATOM     18  C   UNL     1       4.303   2.650  19.631  0.00  0.00    +0.000 C 
ENDBRANCH  13  17
BRANCH  14  19
ATOM     19  O   UNL     1       7.427   4.689  18.365  0.00  0.00    +0.000 OA
ATOM     20  C   UNL     1       8.335   5.164  19.351  0.00  0.00    +0.000 C 
ENDBRANCH  14  19
BRANCH  15  21
ATOM     21  O   UNL     1       7.107   7.137  16.923  0.00  0.00    +0.000 OA
ATOM     22  C   UNL     1       7.719   8.257  17.546  0.00  0.00    +0.000 C 
ENDBRANCH  15  21
ENDBRANCH  10  11
ENDBRANCH   8  10
ENDBRANCH   2   5
BRANCH   1  23
ATOM     23  C   UNL     1      -1.006  12.103  21.970  0.00  0.00    +0.000 C 
BRANCH  23  24
ATOM     24  C   UNL     1      -1.446  13.089  20.883  0.00  0.00    +0.000 C 
BRANCH  24  28
ATOM     25  C   UNL     1      -4.813  11.720  18.497  0.00  0.00    +0.000 A 
ATOM     26  C   UNL     1      -5.010  12.475  19.663  0.00  0.00    +0.000 A 
ATOM     27  C   UNL     1      -3.930  12.907  20.442  0.00  0.00    +0.000 A 
ATOM     28  C   UNL     1      -2.623  12.567  20.086  0.00  0.00    +0.000 A 
ATOM     29  C   UNL     1      -2.431  11.752  18.958  0.00  0.00    +0.000 A 
ATOM     30  C   UNL     1      -3.515  11.295  18.186  0.00  0.00    +0.000 A 
BRANCH  25  31
ATOM     31  O   UNL     1      -5.844  11.405  17.648  0.00  0.00    +0.000 OA
BRANCH  31  33
ATOM     32  C   UNL     1      -6.888  13.421  16.857  0.00  0.00    +0.000 C 
ATOM     33  C   UNL     1      -7.022  12.211  17.764  0.00  0.00    +0.000 C 
ENDBRANCH  31  33
ENDBRANCH  25  31
BRANCH  30  34
ATOM     34  O   UNL     1      -3.122  10.487  17.142  0.00  0.00    +0.000 OA
BRANCH  34  35
ATOM     35  C   UNL     1      -2.827  11.121  15.894  0.00  0.00    +0.000 C 
ATOM     36  C   UNL     1      -3.016  10.107  14.777  0.00  0.00    +0.000 C 
ENDBRANCH  34  35
ENDBRANCH  30  34
ENDBRANCH  24  28
ENDBRANCH  23  24
ENDBRANCH   1  23
TORSDOF 13
ENDMDL
MODEL 5
REMARK VINA RESULT:      -6.9      5.187      9.705
REMARK  Name = 
REMARK  18 active torsions:
REMARK  status: ('A' for Active; 'I' for Inactive)
REMARK    1  A    between atoms: C_1  and  C_2
REMARK    2  A    between atoms: C_2  and  O_3
REMARK    3  A    between atoms: O_3  and  C_4
REMARK    4  A    between atoms: C_7  and  C_8
REMARK    5  A    between atoms: C_8  and  C_9
REMARK    6  A    between atoms: C_9  and  N_10
REMARK    7  A    between atoms: C_11  and  C_13
REMARK    8  A    between atoms: C_16  and  C_17
REMARK    9  A    between atoms: C_17  and  C_18
REMARK   10  A    between atoms: C_20  and  O_21
REMARK   11  A    between atoms: O_21  and  C_22
REMARK   12  A    between atoms: C_23  and  O_24
REMARK   13  A    between atoms: O_24  and  C_25
REMARK   14  A    between atoms: C_26  and  O_27
REMARK   15  A    between atoms: O_27  and  C_28
REMARK   16  A    between atoms: C_32  and  O_33
REMARK   17  A    between atoms: O_33  and  C_34
REMARK   18  A    between atoms: C_34  and  C_35
REMARK                            x       y       z     vdW  Elec       q    Type
REMARK                         _______ _______ _______ _____ _____    ______ ____
ROOT
ATOM      1  N   UNL     1       2.721   6.459  19.828  0.00  0.00    +0.000 N 
ATOM      2  C   UNL     1       2.315   6.908  18.572  0.00  0.00    +0.000 C 
ATOM      3  O   UNL     1       2.226   6.132  17.621  0.00  0.00    +0.000 OA
ATOM      4  H   UNL     1       2.749   7.124  20.592  0.00  0.00    +0.000 HD
ENDROOT
BRANCH   2   5
ATOM      5  C   UNL     1       1.987   8.321  18.478  0.00  0.00    +0.000 A 
ATOM      6  N   UNL     1       2.507   9.210  17.650  0.00  0.00    +0.000 NA
ATOM      7  N   UNL     1       1.934  10.426  17.975  0.00  0.00    +0.000 NA
ATOM      8  C   UNL     1       1.107  10.199  18.974  0.00  0.00    +0.000 A 
ATOM      9  O   UNL     1       1.081   8.879  19.347  0.00  0.00    +0.000 OA
BRANCH   8  10
ATOM     10  C   UNL     1       0.340  11.161  19.810  0.00  0.00    +0.000 C 
BRANCH  10  11
ATOM     11  C   UNL     1      -1.085  11.402  19.361  0.00  0.00    +0.000 A 
ATOM     12  C   UNL     1      -1.562  10.797  18.195  0.00  0.00    +0.000 A 
ATOM     13  C   UNL     1      -2.897  10.929  17.806  0.00  0.00    +0.000 A 
ATOM     14  C   UNL     1      -3.782  11.723  18.575  0.00  0.00    +0.000 A 
ATOM     15  C   UNL     1      -3.299  12.378  19.727  0.00  0.00    +0.000 A 
ATOM     16  C   UNL     1      -1.958  12.201  20.111  0.00  0.00    +0.000 A 
BRANCH  13  17
ATOM     17  O   UNL     1      -3.403  10.314  16.686  0.00  0.00    +0.000 OA
ATOM     18  C   UNL     1      -3.021  10.881  15.436  0.00  0.00    +0.000 C 
ENDBRANCH  13  17
BRANCH  14  19
ATOM     19  O   UNL     1      -5.059  11.820  18.072  0.00  0.00    +0.000 OA
ATOM     20  C   UNL     1      -6.058  10.989  18.648  0.00  0.00    +0.000 C 
ENDBRANCH  14  19
BRANCH  15  21
ATOM     21  O   UNL     1      -4.167  13.181  20.422  0.00  0.00    +0.000 OA
ATOM     22  C   UNL     1      -3.634  14.081  21.384  0.00  0.00    +0.000 C 
ENDBRANCH  15  21
ENDBRANCH  10  11
ENDBRANCH   8  10
ENDBRANCH   2   5
BRANCH   1  23
ATOM     23  C   UNL     1       3.007   5.047  20.039  0.00  0.00    +0.000 C 
BRANCH  23  24
ATOM     24  C   UNL     1       4.495   4.685  19.994  0.00  0.00    +0.000 C 
BRANCH  24  28
ATOM     25  C   UNL     1       5.998   5.061  15.932  0.00  0.00    +0.000 A 
ATOM     26  C   UNL     1       5.132   4.018  16.291  0.00  0.00    +0.000 A 
ATOM     27  C   UNL     1       4.655   3.884  17.601  0.00  0.00    +0.000 A 
ATOM     28  C   UNL     1       5.060   4.781  18.592  0.00  0.00    +0.000 A 
ATOM     29  C   UNL     1       5.983   5.782  18.248  0.00  0.00    +0.000 A 
ATOM     30  C   UNL     1       6.483   5.905  16.939  0.00  0.00    +0.000 A 
BRANCH  25  31
ATOM     31  O   UNL     1       6.365   5.290  14.629  0.00  0.00    +0.000 OA
BRANCH  31  33
ATOM     32  C   UNL     1       6.090   3.752  12.803  0.00  0.00    +0.000 C 
ATOM     33  C   UNL     1       6.982   4.192  13.949  0.00  0.00    +0.000 C 
ENDBRANCH  31  33
ENDBRANCH  25  31
BRANCH  30  34
ATOM     34  O   UNL     1       7.396   6.929  16.812  0.00  0.00    +0.000 OA
BRANCH  34  35
ATOM     35  C   UNL     1       7.080   8.173  17.442  0.00  0.00    +0.000 C 
ATOM     36  C   UNL     1       8.370   8.812  17.933  0.00  0.00    +0.000 C 
ENDBRANCH  34  35
ENDBRANCH  30  34
ENDBRANCH  24  28
ENDBRANCH  23  24
ENDBRANCH   1  23
TORSDOF 13
ENDMDL
MODEL 6
REMARK VINA RESULT:      -6.9      5.439      8.352
REMARK  Name = 
REMARK  18 active torsions:
REMARK  status: ('A' for Active; 'I' for Inactive)
REMARK    1  A    between atoms: C_1  and  C_2
REMARK    2  A    between atoms: C_2  and  O_3
REMARK    3  A    between atoms: O_3  and  C_4
REMARK    4  A    between atoms: C_7  and  C_8
REMARK    5  A    between atoms: C_8  and  C_9
REMARK    6  A    between atoms: C_9  and  N_10
REMARK    7  A    between atoms: C_11  and  C_13
REMARK    8  A    between atoms: C_16  and  C_17
REMARK    9  A    between atoms: C_17  and  C_18
REMARK   10  A    between atoms: C_20  and  O_21
REMARK   11  A    between atoms: O_21  and  C_22
REMARK   12  A    between atoms: C_23  and  O_24
REMARK   13  A    between atoms: O_24  and  C_25
REMARK   14  A    between atoms: C_26  and  O_27
REMARK   15  A    between atoms: O_27  and  C_28
REMARK   16  A    between atoms: C_32  and  O_33
REMARK   17  A    between atoms: O_33  and  C_34
REMARK   18  A    between atoms: C_34  and  C_35
REMARK                            x       y       z     vdW  Elec       q    Type
REMARK                         _______ _______ _______ _____ _____    ______ ____
ROOT
ATOM      1  N   UNL     1       1.702   4.268  19.188  0.00  0.00    +0.000 N 
ATOM      2  C   UNL     1       1.901   4.945  20.391  0.00  0.00    +0.000 C 
ATOM      3  O   UNL     1       2.209   4.337  21.415  0.00  0.00    +0.000 OA
ATOM      4  H   UNL     1       1.481   4.809  18.360  0.00  0.00    +0.000 HD
ENDROOT
BRANCH   2   5
ATOM      5  C   UNL     1       1.745   6.389  20.340  0.00  0.00    +0.000 A 
ATOM      6  N   UNL     1       2.074   7.195  19.346  0.00  0.00    +0.000 NA
ATOM      7  N   UNL     1       1.800   8.480  19.780  0.00  0.00    +0.000 NA
ATOM      8  C   UNL     1       1.324   8.372  21.003  0.00  0.00    +0.000 A 
ATOM      9  O   UNL     1       1.253   7.069  21.428  0.00  0.00    +0.000 OA
BRANCH   8  10
ATOM     10  C   UNL     1       1.005   9.433  21.995  0.00  0.00    +0.000 C 
BRANCH  10  11
ATOM     11  C   UNL     1       0.317  10.654  21.424  0.00  0.00    +0.000 A 
ATOM     12  C   UNL     1      -0.861  11.129  22.006  0.00  0.00    +0.000 A 
ATOM     13  C   UNL     1      -1.467  12.305  21.557  0.00  0.00    +0.000 A 
ATOM     14  C   UNL     1      -0.912  13.013  20.464  0.00  0.00    +0.000 A 
ATOM     15  C   UNL     1       0.249  12.515  19.837  0.00  0.00    +0.000 A 
ATOM     16  C   UNL     1       0.855  11.347  20.331  0.00  0.00    +0.000 A 
BRANCH  13  17
ATOM     17  O   UNL     1      -2.604  12.816  22.136  0.00  0.00    +0.000 OA
ATOM     18  C   UNL     1      -3.001  12.221  23.368  0.00  0.00    +0.000 C 
ENDBRANCH  13  17
BRANCH  14  19
ATOM     19  O   UNL     1      -1.619  14.129  20.077  0.00  0.00    +0.000 OA
ATOM     20  C   UNL     1      -1.146  15.394  20.524  0.00  0.00    +0.000 C 
ENDBRANCH  14  19
BRANCH  15  21
ATOM     21  O   UNL     1       0.734  13.196  18.748  0.00  0.00    +0.000 OA
ATOM     22  C   UNL     1       2.086  12.984  18.365  0.00  0.00    +0.000 C 
ENDBRANCH  15  21
ENDBRANCH  10  11
ENDBRANCH   8  10
ENDBRANCH   2   5
BRANCH   1  23
ATOM     23  C   UNL     1       1.900   2.827  19.122  0.00  0.00    +0.000 C 
BRANCH  23  24
ATOM     24  C   UNL     1       2.852   2.365  18.015  0.00  0.00    +0.000 C 
BRANCH  24  28
ATOM     25  C   UNL     1       6.313   4.946  17.500  0.00  0.00    +0.000 A 
ATOM     26  C   UNL     1       5.909   4.521  18.773  0.00  0.00    +0.000 A 
ATOM     27  C   UNL     1       4.787   3.701  18.947  0.00  0.00    +0.000 A 
ATOM     28  C   UNL     1       4.024   3.309  17.845  0.00  0.00    +0.000 A 
ATOM     29  C   UNL     1       4.388   3.793  16.577  0.00  0.00    +0.000 A 
ATOM     30  C   UNL     1       5.500   4.637  16.401  0.00  0.00    +0.000 A 
BRANCH  25  31
ATOM     31  O   UNL     1       7.483   5.634  17.296  0.00  0.00    +0.000 OA
BRANCH  31  33
ATOM     32  C   UNL     1       7.789   7.996  17.619  0.00  0.00    +0.000 C 
ATOM     33  C   UNL     1       7.807   6.627  18.275  0.00  0.00    +0.000 C 
ENDBRANCH  31  33
ENDBRANCH  25  31
BRANCH  30  34
ATOM     34  O   UNL     1       5.672   5.025  15.091  0.00  0.00    +0.000 OA
BRANCH  34  35
ATOM     35  C   UNL     1       6.604   4.280  14.302  0.00  0.00    +0.000 C 
ATOM     36  C   UNL     1       5.868   3.690  13.109  0.00  0.00    +0.000 C 
ENDBRANCH  34  35
ENDBRANCH  30  34
ENDBRANCH  24  28
ENDBRANCH  23  24
ENDBRANCH   1  23
TORSDOF 13
ENDMDL
MODEL 7
REMARK VINA RESULT:      -6.9      4.858      7.825
REMARK  Name = 
REMARK  18 active torsions:
REMARK  status: ('A' for Active; 'I' for Inactive)
REMARK    1  A    between atoms: C_1  and  C_2
REMARK    2  A    between atoms: C_2  and  O_3
REMARK    3  A    between atoms: O_3  and  C_4
REMARK    4  A    between atoms: C_7  and  C_8
REMARK    5  A    between atoms: C_8  and  C_9
REMARK    6  A    between atoms: C_9  and  N_10
REMARK    7  A    between atoms: C_11  and  C_13
REMARK    8  A    between atoms: C_16  and  C_17
REMARK    9  A    between atoms: C_17  and  C_18
REMARK   10  A    between atoms: C_20  and  O_21
REMARK   11  A    between atoms: O_21  and  C_22
REMARK   12  A    between atoms: C_23  and  O_24
REMARK   13  A    between atoms: O_24  and  C_25
REMARK   14  A    between atoms: C_26  and  O_27
REMARK   15  A    between atoms: O_27  and  C_28
REMARK   16  A    between atoms: C_32  and  O_33
REMARK   17  A    between atoms: O_33  and  C_34
REMARK   18  A    between atoms: C_34  and  C_35
REMARK                            x       y       z     vdW  Elec       q    Type
REMARK                         _______ _______ _______ _____ _____    ______ ____
ROOT
ATOM      1  N   UNL     1       1.794   4.183  19.002  0.00  0.00    +0.000 N 
ATOM      2  C   UNL     1       1.896   4.896  20.195  0.00  0.00    +0.000 C 
ATOM      3  O   UNL     1       2.042   4.314  21.269  0.00  0.00    +0.000 OA
ATOM      4  H   UNL     1       1.709   4.701  18.135  0.00  0.00    +0.000 HD
ENDROOT
BRANCH   2   5
ATOM      5  C   UNL     1       1.845   6.343  20.076  0.00  0.00    +0.000 A 
ATOM      6  N   UNL     1       1.524   7.213  21.017  0.00  0.00    +0.000 NA
ATOM      7  N   UNL     1       1.554   8.461  20.420  0.00  0.00    +0.000 NA
ATOM      8  C   UNL     1       1.889   8.270  19.161  0.00  0.00    +0.000 A 
ATOM      9  O   UNL     1       2.098   6.946  18.867  0.00  0.00    +0.000 OA
BRANCH   8  10
ATOM     10  C   UNL     1       1.929   9.236  18.031  0.00  0.00    +0.000 C 
BRANCH  10  11
ATOM     11  C   UNL     1       1.527  10.651  18.387  0.00  0.00    +0.000 A 
ATOM     12  C   UNL     1       0.278  10.899  18.963  0.00  0.00    +0.000 A 
ATOM     13  C   UNL     1      -0.082  12.181  19.384  0.00  0.00    +0.000 A 
ATOM     14  C   UNL     1       0.808  13.265  19.190  0.00  0.00    +0.000 A 
ATOM     15  C   UNL     1       2.051  13.034  18.566  0.00  0.00    +0.000 A 
ATOM     16  C   UNL     1       2.400  11.728  18.181  0.00  0.00    +0.000 A 
BRANCH  13  17
ATOM     17  O   UNL     1      -1.287  12.447  19.988  0.00  0.00    +0.000 OA
ATOM     18  C   UNL     1      -1.423  12.004  21.335  0.00  0.00    +0.000 C 
ENDBRANCH  13  17
BRANCH  14  19
ATOM     19  O   UNL     1       0.329  14.488  19.600  0.00  0.00    +0.000 OA
ATOM     20  C   UNL     1      -0.149  15.377  18.598  0.00  0.00    +0.000 C 
ENDBRANCH  14  19
BRANCH  15  21
ATOM     21  O   UNL     1       2.871  14.113  18.345  0.00  0.00    +0.000 OA
ATOM     22  C   UNL     1       3.744  14.524  19.388  0.00  0.00    +0.000 C 
ENDBRANCH  15  21
ENDBRANCH  10  11
ENDBRANCH   8  10
ENDBRANCH   2   5
BRANCH   1  23
ATOM     23  C   UNL     1       1.901   2.730  19.009  0.00  0.00    +0.000 C 
BRANCH  23  24
ATOM     24  C   UNL     1       3.145   2.180  18.306  0.00  0.00    +0.000 C 
BRANCH  24  28
ATOM     25  C   UNL     1       6.158   5.186  17.418  0.00  0.00    +0.000 A 
ATOM     26  C   UNL     1       5.905   4.781  18.736  0.00  0.00    +0.000 A 
ATOM     27  C   UNL     1       4.926   3.823  19.029  0.00  0.00    +0.000 A 
ATOM     28  C   UNL     1       4.156   3.267  18.006  0.00  0.00    +0.000 A 
ATOM     29  C   UNL     1       4.361   3.725  16.694  0.00  0.00    +0.000 A 
ATOM     30  C   UNL     1       5.327   4.705  16.398  0.00  0.00    +0.000 A 
BRANCH  25  31
ATOM     31  O   UNL     1       7.202   6.018  17.097  0.00  0.00    +0.000 OA
BRANCH  31  33
ATOM     32  C   UNL     1       7.801   8.275  17.664  0.00  0.00    +0.000 C 
ATOM     33  C   UNL     1       7.695   6.844  18.157  0.00  0.00    +0.000 C 
ENDBRANCH  31  33
ENDBRANCH  25  31
BRANCH  30  34
ATOM     34  O   UNL     1       5.354   5.039  15.062  0.00  0.00    +0.000 OA
BRANCH  34  35
ATOM     35  C   UNL     1       6.111   4.196  14.190  0.00  0.00    +0.000 C 
ATOM     36  C   UNL     1       7.344   4.957  13.727  0.00  0.00    +0.000 C 
ENDBRANCH  34  35
ENDBRANCH  30  34
ENDBRANCH  24  28
ENDBRANCH  23  24
ENDBRANCH   1  23
TORSDOF 13
ENDMDL
MODEL 8
REMARK VINA RESULT:      -6.8      5.023      9.380
REMARK  Name = 
REMARK  18 active torsions:
REMARK  status: ('A' for Active; 'I' for Inactive)
REMARK    1  A    between atoms: C_1  and  C_2
REMARK    2  A    between atoms: C_2  and  O_3
REMARK    3  A    between atoms: O_3  and  C_4
REMARK    4  A    between atoms: C_7  and  C_8
REMARK    5  A    between atoms: C_8  and  C_9
REMARK    6  A    between atoms: C_9  and  N_10
REMARK    7  A    between atoms: C_11  and  C_13
REMARK    8  A    between atoms: C_16  and  C_17
REMARK    9  A    between atoms: C_17  and  C_18
REMARK   10  A    between atoms: C_20  and  O_21
REMARK   11  A    between atoms: O_21  and  C_22
REMARK   12  A    between atoms: C_23  and  O_24
REMARK   13  A    between atoms: O_24  and  C_25
REMARK   14  A    between atoms: C_26  and  O_27
REMARK   15  A    between atoms: O_27  and  C_28
REMARK   16  A    between atoms: C_32  and  O_33
REMARK   17  A    between atoms: O_33  and  C_34
REMARK   18  A    between atoms: C_34  and  C_35
REMARK                            x       y       z     vdW  Elec       q    Type
REMARK                         _______ _______ _______ _____ _____    ______ ____
ROOT
ATOM      1  N   UNL     1       2.946   4.902  19.567  0.00  0.00    +0.000 N 
ATOM      2  C   UNL     1       1.828   5.345  20.274  0.00  0.00    +0.000 C 
ATOM      3  O   UNL     1       1.066   4.546  20.817  0.00  0.00    +0.000 OA
ATOM      4  H   UNL     1       3.567   5.593  19.163  0.00  0.00    +0.000 HD
ENDROOT
BRANCH   2   5
ATOM      5  C   UNL     1       1.650   6.786  20.341  0.00  0.00    +0.000 A 
ATOM      6  N   UNL     1       1.397   7.512  21.415  0.00  0.00    +0.000 NA
ATOM      7  N   UNL     1       1.248   8.816  20.977  0.00  0.00    +0.000 NA
ATOM      8  C   UNL     1       1.419   8.798  19.672  0.00  0.00    +0.000 A 
ATOM      9  O   UNL     1       1.686   7.540  19.193  0.00  0.00    +0.000 OA
BRANCH   8  10
ATOM     10  C   UNL     1       1.227   9.883  18.673  0.00  0.00    +0.000 C 
BRANCH  10  11
ATOM     11  C   UNL     1      -0.209  10.312  18.466  0.00  0.00    +0.000 A 
ATOM     12  C   UNL     1      -0.787  11.255  19.321  0.00  0.00    +0.000 A 
ATOM     13  C   UNL     1      -2.080  11.736  19.098  0.00  0.00    +0.000 A 
ATOM     14  C   UNL     1      -2.844  11.235  18.017  0.00  0.00    +0.000 A 
ATOM     15  C   UNL     1      -2.288  10.248  17.177  0.00  0.00    +0.000 A 
ATOM     16  C   UNL     1      -0.974   9.806  17.406  0.00  0.00    +0.000 A 
BRANCH  13  17
ATOM     17  O   UNL     1      -2.659  12.691  19.899  0.00  0.00    +0.000 OA
ATOM     18  C   UNL     1      -1.836  13.801  20.244  0.00  0.00    +0.000 C 
ENDBRANCH  13  17
BRANCH  14  19
ATOM     19  O   UNL     1      -4.119  11.745  17.923  0.00  0.00    +0.000 OA
ATOM     20  C   UNL     1      -5.196  10.902  18.313  0.00  0.00    +0.000 C 
ENDBRANCH  14  19
BRANCH  15  21
ATOM     21  O   UNL     1      -3.072   9.745  16.169  0.00  0.00    +0.000 OA
ATOM     22  C   UNL     1      -2.973  10.332  14.878  0.00  0.00    +0.000 C 
ENDBRANCH  15  21
ENDBRANCH  10  11
ENDBRANCH   8  10
ENDBRANCH   2   5
BRANCH   1  23
ATOM     23  C   UNL     1       3.247   3.479  19.499  0.00  0.00    +0.000 C 
BRANCH  23  24
ATOM     24  C   UNL     1       4.683   3.152  19.076  0.00  0.00    +0.000 C 
BRANCH  24  28
ATOM     25  C   UNL     1       6.927   6.575  17.608  0.00  0.00    +0.000 A 
ATOM     26  C   UNL     1       7.012   6.173  18.949  0.00  0.00    +0.000 A 
ATOM     27  C   UNL     1       6.281   5.080  19.431  0.00  0.00    +0.000 A 
ATOM     28  C   UNL     1       5.422   4.378  18.582  0.00  0.00    +0.000 A 
ATOM     29  C   UNL     1       5.284   4.824  17.257  0.00  0.00    +0.000 A 
ATOM     30  C   UNL     1       5.998   5.937  16.776  0.00  0.00    +0.000 A 
BRANCH  25  31
ATOM     31  O   UNL     1       7.736   7.553  17.086  0.00  0.00    +0.000 OA
BRANCH  31  33
ATOM     32  C   UNL     1       8.021   9.849  17.737  0.00  0.00    +0.000 C 
ATOM     33  C   UNL     1       8.383   8.406  18.036  0.00  0.00    +0.000 C 
ENDBRANCH  31  33
ENDBRANCH  25  31
BRANCH  30  34
ATOM     34  O   UNL     1       5.703   6.231  15.463  0.00  0.00    +0.000 OA
BRANCH  34  35
ATOM     35  C   UNL     1       5.585   5.133  14.554  0.00  0.00    +0.000 C 
ATOM     36  C   UNL     1       6.974   4.763  14.056  0.00  0.00    +0.000 C 
ENDBRANCH  34  35
ENDBRANCH  30  34
ENDBRANCH  24  28
ENDBRANCH  23  24
ENDBRANCH   1  23
TORSDOF 13
ENDMDL
MODEL 9
REMARK VINA RESULT:      -6.8      4.864      7.581
REMARK  Name = 
REMARK  18 active torsions:
REMARK  status: ('A' for Active; 'I' for Inactive)
REMARK    1  A    between atoms: C_1  and  C_2
REMARK    2  A    between atoms: C_2  and  O_3
REMARK    3  A    between atoms: O_3  and  C_4
REMARK    4  A    between atoms: C_7  and  C_8
REMARK    5  A    between atoms: C_8  and  C_9
REMARK    6  A    between atoms: C_9  and  N_10
REMARK    7  A    between atoms: C_11  and  C_13
REMARK    8  A    between atoms: C_16  and  C_17
REMARK    9  A    between atoms: C_17  and  C_18
REMARK   10  A    between atoms: C_20  and  O_21
REMARK   11  A    between atoms: O_21  and  C_22
REMARK   12  A    between atoms: C_23  and  O_24
REMARK   13  A    between atoms: O_24  and  C_25
REMARK   14  A    between atoms: C_26  and  O_27
REMARK   15  A    between atoms: O_27  and  C_28
REMARK   16  A    between atoms: C_32  and  O_33
REMARK   17  A    between atoms: O_33  and  C_34
REMARK   18  A    between atoms: C_34  and  C_35
REMARK                            x       y       z     vdW  Elec       q    Type
REMARK                         _______ _______ _______ _____ _____    ______ ____
ROOT
ATOM      1  N   UNL     1       1.601   4.628  19.221  0.00  0.00    +0.000 N 
ATOM      2  C   UNL     1       1.920   5.379  20.352  0.00  0.00    +0.000 C 
ATOM      3  O   UNL     1       2.347   4.836  21.371  0.00  0.00    +0.000 OA
ATOM      4  H   UNL     1       1.285   5.116  18.391  0.00  0.00    +0.000 HD
ENDROOT
BRANCH   2   5
ATOM      5  C   UNL     1       1.740   6.816  20.231  0.00  0.00    +0.000 A 
ATOM      6  N   UNL     1       1.303   7.648  21.159  0.00  0.00    +0.000 NA
ATOM      7  N   UNL     1       1.242   8.896  20.564  0.00  0.00    +0.000 NA
ATOM      8  C   UNL     1       1.643   8.742  19.320  0.00  0.00    +0.000 A 
ATOM      9  O   UNL     1       1.985   7.444  19.034  0.00  0.00    +0.000 OA
BRANCH   8  10
ATOM     10  C   UNL     1       1.639   9.712  18.193  0.00  0.00    +0.000 C 
BRANCH  10  11
ATOM     11  C   UNL     1       1.319  11.139  18.581  0.00  0.00    +0.000 A 
ATOM     12  C   UNL     1       2.258  12.150  18.362  0.00  0.00    +0.000 A 
ATOM     13  C   UNL     1       1.955  13.488  18.627  0.00  0.00    +0.000 A 
ATOM     14  C   UNL     1       0.694  13.833  19.168  0.00  0.00    +0.000 A 
ATOM     15  C   UNL     1      -0.244  12.815  19.438  0.00  0.00    +0.000 A 
ATOM     16  C   UNL     1       0.077  11.482  19.133  0.00  0.00    +0.000 A 
BRANCH  13  17
ATOM     17  O   UNL     1       2.845  14.508  18.385  0.00  0.00    +0.000 OA
ATOM     18  C   UNL     1       3.946  14.603  19.284  0.00  0.00    +0.000 C 
ENDBRANCH  13  17
BRANCH  14  19
ATOM     19  O   UNL     1       0.523  15.173  19.432  0.00  0.00    +0.000 OA
ATOM     20  C   UNL     1      -0.284  15.924  18.533  0.00  0.00    +0.000 C 
ENDBRANCH  14  19
BRANCH  15  21
ATOM     21  O   UNL     1      -1.439  13.176  20.010  0.00  0.00    +0.000 OA
ATOM     22  C   UNL     1      -1.655  12.864  21.379  0.00  0.00    +0.000 C 
ENDBRANCH  15  21
ENDBRANCH  10  11
ENDBRANCH   8  10
ENDBRANCH   2   5
BRANCH   1  23
ATOM     23  C   UNL     1       1.810   3.187  19.221  0.00  0.00    +0.000 C 
BRANCH  23  24
ATOM     24  C   UNL     1       2.757   2.681  18.128  0.00  0.00    +0.000 C 
BRANCH  24  28
ATOM     25  C   UNL     1       6.369   5.060  17.686  0.00  0.00    +0.000 A 
ATOM     26  C   UNL     1       6.040   4.463  18.911  0.00  0.00    +0.000 A 
ATOM     27  C   UNL     1       4.871   3.707  19.063  0.00  0.00    +0.000 A 
ATOM     28  C   UNL     1       3.986   3.555  17.993  0.00  0.00    +0.000 A 
ATOM     29  C   UNL     1       4.281   4.212  16.787  0.00  0.00    +0.000 A 
ATOM     30  C   UNL     1       5.442   4.993  16.637  0.00  0.00    +0.000 A 
BRANCH  25  31
ATOM     31  O   UNL     1       7.572   5.687  17.479  0.00  0.00    +0.000 OA
BRANCH  31  33
ATOM     32  C   UNL     1       7.784   8.081  17.548  0.00  0.00    +0.000 C 
ATOM     33  C   UNL     1       7.863   6.791  18.344  0.00  0.00    +0.000 C 
ENDBRANCH  31  33
ENDBRANCH  25  31
BRANCH  30  34
ATOM     34  O   UNL     1       5.535   5.576  15.393  0.00  0.00    +0.000 OA
BRANCH  34  35
ATOM     35  C   UNL     1       5.626   4.703  14.264  0.00  0.00    +0.000 C 
ATOM     36  C   UNL     1       7.089   4.567  13.870  0.00  0.00    +0.000 C 
ENDBRANCH  34  35
ENDBRANCH  30  34
ENDBRANCH  24  28
ENDBRANCH  23  24
ENDBRANCH   1  23
TORSDOF 13
ENDMDL
