MODEL 1
REMARK VINA RESULT:      -9.8      0.000      0.000
REMARK  Name = 
REMARK  7 active torsions:
REMARK  status: ('A' for Active; 'I' for Inactive)
REMARK    1  A    between atoms: C_1  and  C_2
REMARK    2  A    between atoms: N_5  and  C_6
REMARK    3  A    between atoms: C_8  and  C_9
REMARK    4  A    between atoms: C_15  and  C_16
REMARK    5  A    between atoms: C_16  and  N_17
REMARK    6  A    between atoms: C_18  and  C_20
REMARK    7  A    between atoms: C_20  and  C_21
REMARK                            x       y       z     vdW  Elec       q    Type
REMARK                         _______ _______ _______ _____ _____    ______ ____
ROOT
ATOM      1  C   UNL     1       3.605   4.864  17.577  0.00  0.00    +0.000 A 
ATOM      2  C   UNL     1       4.302   4.332  16.471  0.00  0.00    +0.000 A 
ATOM      3  C   UNL     1       5.141   5.109  15.658  0.00  0.00    +0.000 A 
ATOM      4  C   UNL     1       5.231   6.473  15.900  0.00  0.00    +0.000 A 
ATOM      5  C   UNL     1       4.485   7.042  16.924  0.00  0.00    +0.000 A 
ATOM      6  C   UNL     1       3.685   6.262  17.791  0.00  0.00    +0.000 A 
ENDROOT
BRANCH   1  11
ATOM      7  C   UNL     1       1.362   2.458  21.987  0.00  0.00    +0.000 C 
ATOM      8  C   UNL     1       1.815   2.349  20.527  0.00  0.00    +0.000 C 
ATOM      9  C   UNL     1       3.319   2.647  20.455  0.00  0.00    +0.000 C 
ATOM     10  C   UNL     1       3.788   2.894  19.032  0.00  0.00    +0.000 C 
ATOM     11  N   UNL     1       2.987   4.003  18.491  0.00  0.00    +0.000 N 
ATOM     12  C   UNL     1       1.593   3.606  18.266  0.00  0.00    +0.000 C 
ATOM     13  C   UNL     1       0.964   3.276  19.630  0.00  0.00    +0.000 C 
ENDBRANCH   1  11
BRANCH   3  14
ATOM     14  C   UNL     1       5.991   4.481  14.575  0.00  0.00    +0.000 C 
ATOM     15  F   UNL     1       6.943   5.322  14.081  0.00  0.00    +0.000 F 
ATOM     16  F   UNL     1       6.662   3.382  15.022  0.00  0.00    +0.000 F 
ATOM     17  F   UNL     1       5.258   4.073  13.516  0.00  0.00    +0.000 F 
ENDBRANCH   3  14
BRANCH   6  18
ATOM     18  C   UNL     1       2.942   6.979  18.908  0.00  0.00    +0.000 C 
BRANCH  18  19
ATOM     19  N   UNL     1       2.374   8.249  18.487  0.00  0.00    +0.000 N 
ATOM     20  C   UNL     1       1.486   9.013  19.240  0.00  0.00    +0.000 C 
ATOM     21  O   UNL     1       1.171   8.751  20.400  0.00  0.00    +0.000 OA
ATOM     22  H   UNL     1       2.490   8.476  17.504  0.00  0.00    +0.000 HD
BRANCH  20  23
ATOM     23  C   UNL     1       0.988  10.200  18.424  0.00  0.00    +0.000 C 
BRANCH  23  24
ATOM     24  C   UNL     1      -0.491  10.467  18.310  0.00  0.00    +0.000 A 
ATOM     25  C   UNL     1      -1.175  11.491  19.010  0.00  0.00    +0.000 A 
ATOM     26  C   UNL     1      -2.488  11.847  18.660  0.00  0.00    +0.000 A 
ATOM     27  C   UNL     1      -3.050  11.183  17.595  0.00  0.00    +0.000 A 
ATOM     28  C   UNL     1      -2.443  10.091  17.018  0.00  0.00    +0.000 A 
ATOM     29  C   UNL     1      -1.201   9.662  17.404  0.00  0.00    +0.000 A 
ATOM     30  O   UNL     1      -3.093   9.672  15.895  0.00  0.00    +0.000 OA
ATOM     31  C   UNL     1      -3.813  10.890  15.633  0.00  0.00    +0.000 C 
ATOM     32  O   UNL     1      -4.125  11.591  16.858  0.00  0.00    +0.000 OA
ENDBRANCH  23  24
ENDBRANCH  20  23
ENDBRANCH  18  19
ENDBRANCH   6  18
TORSDOF 6
ENDMDL
MODEL 2
REMARK VINA RESULT:      -9.3      1.072      1.734
REMARK  Name = 
REMARK  7 active torsions:
REMARK  status: ('A' for Active; 'I' for Inactive)
REMARK    1  A    between atoms: C_1  and  C_2
REMARK    2  A    between atoms: N_5  and  C_6
REMARK    3  A    between atoms: C_8  and  C_9
REMARK    4  A    between atoms: C_15  and  C_16
REMARK    5  A    between atoms: C_16  and  N_17
REMARK    6  A    between atoms: C_18  and  C_20
REMARK    7  A    between atoms: C_20  and  C_21
REMARK                            x       y       z     vdW  Elec       q    Type
REMARK                         _______ _______ _______ _____ _____    ______ ____
ROOT
ATOM      1  C   UNL     1       3.539   4.823  17.667  0.00  0.00    +0.000 A 
ATOM      2  C   UNL     1       4.301   4.285  16.608  0.00  0.00    +0.000 A 
ATOM      3  C   UNL     1       5.136   5.071  15.799  0.00  0.00    +0.000 A 
ATOM      4  C   UNL     1       5.156   6.445  15.994  0.00  0.00    +0.000 A 
ATOM      5  C   UNL     1       4.345   7.015  16.968  0.00  0.00    +0.000 A 
ATOM      6  C   UNL     1       3.548   6.230  17.833  0.00  0.00    +0.000 A 
ENDROOT
BRANCH   1  11
ATOM      7  C   UNL     1       1.282   2.455  22.091  0.00  0.00    +0.000 C 
ATOM      8  C   UNL     1       1.755   2.328  20.639  0.00  0.00    +0.000 C 
ATOM      9  C   UNL     1       3.255   2.652  20.581  0.00  0.00    +0.000 C 
ATOM     10  C   UNL     1       3.737   2.883  19.159  0.00  0.00    +0.000 C 
ATOM     11  N   UNL     1       2.923   3.968  18.589  0.00  0.00    +0.000 N 
ATOM     12  C   UNL     1       1.540   3.541  18.353  0.00  0.00    +0.000 C 
ATOM     13  C   UNL     1       0.899   3.224  19.715  0.00  0.00    +0.000 C 
ENDBRANCH   1  11
BRANCH   3  14
ATOM     14  C   UNL     1       6.054   4.445  14.772  0.00  0.00    +0.000 C 
ATOM     15  F   UNL     1       7.154   5.200  14.501  0.00  0.00    +0.000 F 
ATOM     16  F   UNL     1       6.526   3.232  15.177  0.00  0.00    +0.000 F 
ATOM     17  F   UNL     1       5.436   4.235  13.589  0.00  0.00    +0.000 F 
ENDBRANCH   3  14
BRANCH   6  18
ATOM     18  C   UNL     1       2.732   6.951  18.894  0.00  0.00    +0.000 C 
BRANCH  18  19
ATOM     19  N   UNL     1       2.327   8.287  18.489  0.00  0.00    +0.000 N 
ATOM     20  C   UNL     1       1.467   9.112  19.208  0.00  0.00    +0.000 C 
ATOM     21  O   UNL     1       1.039   8.843  20.330  0.00  0.00    +0.000 OA
ATOM     22  H   UNL     1       2.541   8.536  17.528  0.00  0.00    +0.000 HD
BRANCH  20  23
ATOM     23  C   UNL     1       1.154  10.372  18.411  0.00  0.00    +0.000 C 
BRANCH  23  24
ATOM     24  C   UNL     1      -0.264  10.880  18.330  0.00  0.00    +0.000 A 
ATOM     25  C   UNL     1      -1.334  10.171  17.732  0.00  0.00    +0.000 A 
ATOM     26  C   UNL     1      -2.663  10.579  17.924  0.00  0.00    +0.000 A 
ATOM     27  C   UNL     1      -2.868  11.667  18.741  0.00  0.00    +0.000 A 
ATOM     28  C   UNL     1      -1.824  12.440  19.196  0.00  0.00    +0.000 A 
ATOM     29  C   UNL     1      -0.518  12.118  18.944  0.00  0.00    +0.000 A 
ATOM     30  O   UNL     1      -2.230  13.376  20.101  0.00  0.00    +0.000 OA
ATOM     31  C   UNL     1      -3.476  12.753  20.465  0.00  0.00    +0.000 C 
ATOM     32  O   UNL     1      -4.037  12.013  19.357  0.00  0.00    +0.000 OA
ENDBRANCH  23  24
ENDBRANCH  20  23
ENDBRANCH  18  19
ENDBRANCH   6  18
TORSDOF 6
ENDMDL
MODEL 3
REMARK VINA RESULT:      -9.2      1.883      2.564
REMARK  Name = 
REMARK  7 active torsions:
REMARK  status: ('A' for Active; 'I' for Inactive)
REMARK    1  A    between atoms: C_1  and  C_2
REMARK    2  A    between atoms: N_5  and  C_6
REMARK    3  A    between atoms: C_8  and  C_9
REMARK    4  A    between atoms: C_15  and  C_16
REMARK    5  A    between atoms: C_16  and  N_17
REMARK    6  A    between atoms: C_18  and  C_20
REMARK    7  A    between atoms: C_20  and  C_21
REMARK                            x       y       z     vdW  Elec       q    Type
REMARK                         _______ _______ _______ _____ _____    ______ ____
ROOT
ATOM      1  C   UNL     1       3.670   4.905  17.461  0.00  0.00    +0.000 A 
ATOM      2  C   UNL     1       4.278   4.325  16.326  0.00  0.00    +0.000 A 
ATOM      3  C   UNL     1       5.159   5.033  15.494  0.00  0.00    +0.000 A 
ATOM      4  C   UNL     1       5.385   6.378  15.749  0.00  0.00    +0.000 A 
ATOM      5  C   UNL     1       4.729   7.000  16.804  0.00  0.00    +0.000 A 
ATOM      6  C   UNL     1       3.888   6.286  17.688  0.00  0.00    +0.000 A 
ENDROOT
BRANCH   1  11
ATOM      7  C   UNL     1       1.412   2.623  21.929  0.00  0.00    +0.000 C 
ATOM      8  C   UNL     1       1.755   2.517  20.439  0.00  0.00    +0.000 C 
ATOM      9  C   UNL     1       3.278   2.625  20.277  0.00  0.00    +0.000 C 
ATOM     10  C   UNL     1       3.686   2.869  18.834  0.00  0.00    +0.000 C 
ATOM     11  N   UNL     1       3.003   4.092  18.385  0.00  0.00    +0.000 N 
ATOM     12  C   UNL     1       1.558   3.885  18.241  0.00  0.00    +0.000 C 
ATOM     13  C   UNL     1       0.977   3.581  19.632  0.00  0.00    +0.000 C 
ENDBRANCH   1  11
BRANCH   3  14
ATOM     14  C   UNL     1       5.911   4.344  14.376  0.00  0.00    +0.000 C 
ATOM     15  F   UNL     1       6.908   5.106  13.847  0.00  0.00    +0.000 F 
ATOM     16  F   UNL     1       6.505   3.190  14.792  0.00  0.00    +0.000 F 
ATOM     17  F   UNL     1       5.105   4.005  13.346  0.00  0.00    +0.000 F 
ENDBRANCH   3  14
BRANCH   6  18
ATOM     18  C   UNL     1       3.253   7.053  18.837  0.00  0.00    +0.000 C 
BRANCH  18  19
ATOM     19  N   UNL     1       1.992   7.678  18.474  0.00  0.00    +0.000 N 
ATOM     20  C   UNL     1       1.859   8.968  17.968  0.00  0.00    +0.000 C 
ATOM     21  O   UNL     1       2.811   9.686  17.664  0.00  0.00    +0.000 OA
ATOM     22  H   UNL     1       1.157   7.201  18.801  0.00  0.00    +0.000 HD
BRANCH  20  23
ATOM     23  C   UNL     1       0.386   9.337  17.843  0.00  0.00    +0.000 C 
BRANCH  23  24
ATOM     24  C   UNL     1      -0.208  10.382  18.755  0.00  0.00    +0.000 A 
ATOM     25  C   UNL     1      -1.397  11.099  18.480  0.00  0.00    +0.000 A 
ATOM     26  C   UNL     1      -2.027  11.857  19.481  0.00  0.00    +0.000 A 
ATOM     27  C   UNL     1      -1.455  11.834  20.731  0.00  0.00    +0.000 A 
ATOM     28  C   UNL     1      -0.224  11.262  20.956  0.00  0.00    +0.000 A 
ATOM     29  C   UNL     1       0.459  10.597  19.973  0.00  0.00    +0.000 A 
ATOM     30  O   UNL     1       0.093  11.221  22.282  0.00  0.00    +0.000 OA
ATOM     31  C   UNL     1      -1.242  11.373  22.796  0.00  0.00    +0.000 C 
ATOM     32  O   UNL     1      -2.060  12.170  21.909  0.00  0.00    +0.000 OA
ENDBRANCH  23  24
ENDBRANCH  20  23
ENDBRANCH  18  19
ENDBRANCH   6  18
TORSDOF 6
ENDMDL
MODEL 4
REMARK VINA RESULT:      -9.0      2.174      2.974
REMARK  Name = 
REMARK  7 active torsions:
REMARK  status: ('A' for Active; 'I' for Inactive)
REMARK    1  A    between atoms: C_1  and  C_2
REMARK    2  A    between atoms: N_5  and  C_6
REMARK    3  A    between atoms: C_8  and  C_9
REMARK    4  A    between atoms: C_15  and  C_16
REMARK    5  A    between atoms: C_16  and  N_17
REMARK    6  A    between atoms: C_18  and  C_20
REMARK    7  A    between atoms: C_20  and  C_21
REMARK                            x       y       z     vdW  Elec       q    Type
REMARK                         _______ _______ _______ _____ _____    ______ ____
ROOT
ATOM      1  C   UNL     1       3.580   4.858  17.621  0.00  0.00    +0.000 A 
ATOM      2  C   UNL     1       4.301   4.310  16.538  0.00  0.00    +0.000 A 
ATOM      3  C   UNL     1       5.145   5.079  15.722  0.00  0.00    +0.000 A 
ATOM      4  C   UNL     1       5.216   6.449  15.937  0.00  0.00    +0.000 A 
ATOM      5  C   UNL     1       4.446   7.031  16.936  0.00  0.00    +0.000 A 
ATOM      6  C   UNL     1       3.641   6.261  17.807  0.00  0.00    +0.000 A 
ENDROOT
BRANCH   1  11
ATOM      7  C   UNL     1       1.297   2.518  22.046  0.00  0.00    +0.000 C 
ATOM      8  C   UNL     1       1.770   2.384  20.595  0.00  0.00    +0.000 C 
ATOM      9  C   UNL     1       3.273   2.694  20.538  0.00  0.00    +0.000 C 
ATOM     10  C   UNL     1       3.758   2.918  19.116  0.00  0.00    +0.000 C 
ATOM     11  N   UNL     1       2.956   4.009  18.544  0.00  0.00    +0.000 N 
ATOM     12  C   UNL     1       1.569   3.596  18.307  0.00  0.00    +0.000 C 
ATOM     13  C   UNL     1       0.924   3.287  19.669  0.00  0.00    +0.000 C 
ENDBRANCH   1  11
BRANCH   3  14
ATOM     14  C   UNL     1       6.019   4.439  14.667  0.00  0.00    +0.000 C 
ATOM     15  F   UNL     1       6.652   3.314  15.100  0.00  0.00    +0.000 F 
ATOM     16  F   UNL     1       5.305   4.064  13.568  0.00  0.00    +0.000 F 
ATOM     17  F   UNL     1       6.986   5.272  14.224  0.00  0.00    +0.000 F 
ENDBRANCH   3  14
BRANCH   6  18
ATOM     18  C   UNL     1       2.873   6.993  18.896  0.00  0.00    +0.000 C 
BRANCH  18  19
ATOM     19  N   UNL     1       2.269   8.230  18.430  0.00  0.00    +0.000 N 
ATOM     20  C   UNL     1       1.443   9.050  19.194  0.00  0.00    +0.000 C 
ATOM     21  O   UNL     1       1.222   8.875  20.392  0.00  0.00    +0.000 OA
ATOM     22  H   UNL     1       2.305   8.384  17.428  0.00  0.00    +0.000 HD
BRANCH  20  23
ATOM     23  C   UNL     1       0.878  10.176  18.336  0.00  0.00    +0.000 C 
BRANCH  23  24
ATOM     24  C   UNL     1       1.239  11.608  18.641  0.00  0.00    +0.000 A 
ATOM     25  C   UNL     1       2.419  12.248  18.191  0.00  0.00    +0.000 A 
ATOM     26  C   UNL     1       2.564  13.641  18.289  0.00  0.00    +0.000 A 
ATOM     27  C   UNL     1       1.498  14.342  18.804  0.00  0.00    +0.000 A 
ATOM     28  C   UNL     1       0.420  13.707  19.377  0.00  0.00    +0.000 A 
ATOM     29  C   UNL     1       0.297  12.344  19.381  0.00  0.00    +0.000 A 
ATOM     30  O   UNL     1      -0.583  14.576  19.694  0.00  0.00    +0.000 OA
ATOM     31  C   UNL     1      -0.177  15.650  18.826  0.00  0.00    +0.000 C 
ATOM     32  O   UNL     1       1.258  15.680  18.660  0.00  0.00    +0.000 OA
ENDBRANCH  23  24
ENDBRANCH  20  23
ENDBRANCH  18  19
ENDBRANCH   6  18
TORSDOF 6
ENDMDL
MODEL 5
REMARK VINA RESULT:      -8.9      2.610      4.332
REMARK  Name = 
REMARK  7 active torsions:
REMARK  status: ('A' for Active; 'I' for Inactive)
REMARK    1  A    between atoms: C_1  and  C_2
REMARK    2  A    between atoms: N_5  and  C_6
REMARK    3  A    between atoms: C_8  and  C_9
REMARK    4  A    between atoms: C_15  and  C_16
REMARK    5  A    between atoms: C_16  and  N_17
REMARK    6  A    between atoms: C_18  and  C_20
REMARK    7  A    between atoms: C_20  and  C_21
REMARK                            x       y       z     vdW  Elec       q    Type
REMARK                         _______ _______ _______ _____ _____    ______ ____
ROOT
ATOM      1  C   UNL     1       4.172   5.523  18.284  0.00  0.00    +0.000 A 
ATOM      2  C   UNL     1       3.998   4.139  18.498  0.00  0.00    +0.000 A 
ATOM      3  C   UNL     1       2.753   3.503  18.372  0.00  0.00    +0.000 A 
ATOM      4  C   UNL     1       1.631   4.275  18.104  0.00  0.00    +0.000 A 
ATOM      5  C   UNL     1       1.756   5.653  17.980  0.00  0.00    +0.000 A 
ATOM      6  C   UNL     1       3.012   6.299  18.040  0.00  0.00    +0.000 A 
ENDROOT
BRANCH   1  11
ATOM      7  C   UNL     1       8.727   8.598  18.528  0.00  0.00    +0.000 C 
ATOM      8  C   UNL     1       8.022   7.347  17.993  0.00  0.00    +0.000 C 
ATOM      9  C   UNL     1       6.804   7.784  17.169  0.00  0.00    +0.000 C 
ATOM     10  C   UNL     1       5.859   6.629  16.884  0.00  0.00    +0.000 C 
ATOM     11  N   UNL     1       5.462   6.056  18.179  0.00  0.00    +0.000 N 
ATOM     12  C   UNL     1       6.577   5.357  18.827  0.00  0.00    +0.000 C 
ATOM     13  C   UNL     1       7.664   6.394  19.157  0.00  0.00    +0.000 C 
ENDBRANCH   1  11
BRANCH   3  14
ATOM     14  C   UNL     1       2.625   1.997  18.459  0.00  0.00    +0.000 C 
ATOM     15  F   UNL     1       1.607   1.588  19.265  0.00  0.00    +0.000 F 
ATOM     16  F   UNL     1       2.386   1.432  17.241  0.00  0.00    +0.000 F 
ATOM     17  F   UNL     1       3.745   1.412  18.934  0.00  0.00    +0.000 F 
ENDBRANCH   3  14
BRANCH   6  18
ATOM     18  C   UNL     1       3.043   7.808  17.848  0.00  0.00    +0.000 C 
BRANCH  18  19
ATOM     19  N   UNL     1       1.924   8.484  18.484  0.00  0.00    +0.000 N 
ATOM     20  C   UNL     1       1.605   9.828  18.315  0.00  0.00    +0.000 C 
ATOM     21  O   UNL     1       2.171  10.571  17.514  0.00  0.00    +0.000 OA
ATOM     22  H   UNL     1       1.482   7.977  19.244  0.00  0.00    +0.000 HD
BRANCH  20  23
ATOM     23  C   UNL     1       0.465  10.222  19.247  0.00  0.00    +0.000 C 
BRANCH  23  24
ATOM     24  C   UNL     1      -0.924  10.416  18.696  0.00  0.00    +0.000 A 
ATOM     25  C   UNL     1      -1.862  11.349  19.201  0.00  0.00    +0.000 A 
ATOM     26  C   UNL     1      -3.028  11.659  18.483  0.00  0.00    +0.000 A 
ATOM     27  C   UNL     1      -3.188  11.043  17.263  0.00  0.00    +0.000 A 
ATOM     28  C   UNL     1      -2.356  10.030  16.846  0.00  0.00    +0.000 A 
ATOM     29  C   UNL     1      -1.263   9.641  17.574  0.00  0.00    +0.000 A 
ATOM     30  O   UNL     1      -2.600   9.658  15.557  0.00  0.00    +0.000 OA
ATOM     31  C   UNL     1      -3.293  10.851  15.149  0.00  0.00    +0.000 C 
ATOM     32  O   UNL     1      -4.015  11.445  16.252  0.00  0.00    +0.000 OA
ENDBRANCH  23  24
ENDBRANCH  20  23
ENDBRANCH  18  19
ENDBRANCH   6  18
TORSDOF 6
ENDMDL
MODEL 6
REMARK VINA RESULT:      -8.9      2.744      3.569
REMARK  Name = 
REMARK  7 active torsions:
REMARK  status: ('A' for Active; 'I' for Inactive)
REMARK    1  A    between atoms: C_1  and  C_2
REMARK    2  A    between atoms: N_5  and  C_6
REMARK    3  A    between atoms: C_8  and  C_9
REMARK    4  A    between atoms: C_15  and  C_16
REMARK    5  A    between atoms: C_16  and  N_17
REMARK    6  A    between atoms: C_18  and  C_20
REMARK    7  A    between atoms: C_20  and  C_21
REMARK                            x       y       z     vdW  Elec       q    Type
REMARK                         _______ _______ _______ _____ _____    ______ ____
ROOT
ATOM      1  C   UNL     1       4.602   4.320  17.124  0.00  0.00    +0.000 A 
ATOM      2  C   UNL     1       4.730   3.992  15.757  0.00  0.00    +0.000 A 
ATOM      3  C   UNL     1       5.813   4.417  14.973  0.00  0.00    +0.000 A 
ATOM      4  C   UNL     1       6.759   5.260  15.541  0.00  0.00    +0.000 A 
ATOM      5  C   UNL     1       6.611   5.675  16.858  0.00  0.00    +0.000 A 
ATOM      6  C   UNL     1       5.561   5.204  17.678  0.00  0.00    +0.000 A 
ENDROOT
BRANCH   1  11
ATOM      7  C   UNL     1       1.102   2.708  21.051  0.00  0.00    +0.000 C 
ATOM      8  C   UNL     1       1.768   2.429  19.699  0.00  0.00    +0.000 C 
ATOM      9  C   UNL     1       3.288   2.364  19.905  0.00  0.00    +0.000 C 
ATOM     10  C   UNL     1       4.048   2.430  18.591  0.00  0.00    +0.000 C 
ATOM     11  N   UNL     1       3.644   3.670  17.911  0.00  0.00    +0.000 N 
ATOM     12  C   UNL     1       2.259   3.599  17.434  0.00  0.00    +0.000 C 
ATOM     13  C   UNL     1       1.336   3.488  18.659  0.00  0.00    +0.000 C 
ENDBRANCH   1  11
BRANCH   3  14
ATOM     14  C   UNL     1       6.001   3.926  13.555  0.00  0.00    +0.000 C 
ATOM     15  F   UNL     1       6.379   2.620  13.481  0.00  0.00    +0.000 F 
ATOM     16  F   UNL     1       4.854   4.023  12.823  0.00  0.00    +0.000 F 
ATOM     17  F   UNL     1       6.938   4.632  12.885  0.00  0.00    +0.000 F 
ENDBRANCH   3  14
BRANCH   6  18
ATOM     18  C   UNL     1       5.515   5.687  19.120  0.00  0.00    +0.000 C 
BRANCH  18  19
ATOM     19  N   UNL     1       4.163   5.946  19.589  0.00  0.00    +0.000 N 
ATOM     20  C   UNL     1       3.294   6.882  19.037  0.00  0.00    +0.000 C 
ATOM     21  O   UNL     1       3.535   7.520  18.012  0.00  0.00    +0.000 OA
ATOM     22  H   UNL     1       3.931   5.549  20.494  0.00  0.00    +0.000 HD
BRANCH  20  23
ATOM     23  C   UNL     1       2.025   6.984  19.874  0.00  0.00    +0.000 C 
BRANCH  23  24
ATOM     24  C   UNL     1       1.538   8.332  20.343  0.00  0.00    +0.000 A 
ATOM     25  C   UNL     1       1.079   9.359  19.482  0.00  0.00    +0.000 A 
ATOM     26  C   UNL     1       0.402  10.477  19.995  0.00  0.00    +0.000 A 
ATOM     27  C   UNL     1       0.180  10.501  21.352  0.00  0.00    +0.000 A 
ATOM     28  C   UNL     1       0.756   9.581  22.199  0.00  0.00    +0.000 A 
ATOM     29  C   UNL     1       1.502   8.532  21.733  0.00  0.00    +0.000 A 
ATOM     30  O   UNL     1       0.295   9.696  23.477  0.00  0.00    +0.000 OA
ATOM     31  C   UNL     1      -0.912  10.419  23.175  0.00  0.00    +0.000 C 
ATOM     32  O   UNL     1      -0.744  11.262  22.012  0.00  0.00    +0.000 OA
ENDBRANCH  23  24
ENDBRANCH  20  23
ENDBRANCH  18  19
ENDBRANCH   6  18
TORSDOF 6
ENDMDL
MODEL 7
REMARK VINA RESULT:      -8.9      2.847      4.634
REMARK  Name = 
REMARK  7 active torsions:
REMARK  status: ('A' for Active; 'I' for Inactive)
REMARK    1  A    between atoms: C_1  and  C_2
REMARK    2  A    between atoms: N_5  and  C_6
REMARK    3  A    between atoms: C_8  and  C_9
REMARK    4  A    between atoms: C_15  and  C_16
REMARK    5  A    between atoms: C_16  and  N_17
REMARK    6  A    between atoms: C_18  and  C_20
REMARK    7  A    between atoms: C_20  and  C_21
REMARK                            x       y       z     vdW  Elec       q    Type
REMARK                         _______ _______ _______ _____ _____    ______ ____
ROOT
ATOM      1  C   UNL     1       3.623   5.432  18.985  0.00  0.00    +0.000 A 
ATOM      2  C   UNL     1       3.456   4.231  19.708  0.00  0.00    +0.000 A 
ATOM      3  C   UNL     1       2.351   3.994  20.540  0.00  0.00    +0.000 A 
ATOM      4  C   UNL     1       1.422   5.010  20.723  0.00  0.00    +0.000 A 
ATOM      5  C   UNL     1       1.609   6.236  20.098  0.00  0.00    +0.000 A 
ATOM      6  C   UNL     1       2.682   6.467  19.208  0.00  0.00    +0.000 A 
ENDROOT
BRANCH   1  11
ATOM      7  C   UNL     1       6.987   4.627  14.706  0.00  0.00    +0.000 C 
ATOM      8  C   UNL     1       6.605   5.470  15.928  0.00  0.00    +0.000 C 
ATOM      9  C   UNL     1       6.672   4.582  17.178  0.00  0.00    +0.000 C 
ATOM     10  C   UNL     1       5.993   5.224  18.376  0.00  0.00    +0.000 C 
ATOM     11  N   UNL     1       4.604   5.515  17.989  0.00  0.00    +0.000 N 
ATOM     12  C   UNL     1       4.531   6.601  17.006  0.00  0.00    +0.000 C 
ATOM     13  C   UNL     1       5.221   6.125  15.717  0.00  0.00    +0.000 C 
ENDBRANCH   1  11
BRANCH   3  14
ATOM     14  C   UNL     1       2.122   2.643  21.181  0.00  0.00    +0.000 C 
ATOM     15  F   UNL     1       3.206   2.178  21.862  0.00  0.00    +0.000 F 
ATOM     16  F   UNL     1       1.100   2.670  22.083  0.00  0.00    +0.000 F 
ATOM     17  F   UNL     1       1.804   1.691  20.277  0.00  0.00    +0.000 F 
ENDBRANCH   3  14
BRANCH   6  18
ATOM     18  C   UNL     1       2.771   7.832  18.542  0.00  0.00    +0.000 C 
BRANCH  18  19
ATOM     19  N   UNL     1       1.706   8.733  18.951  0.00  0.00    +0.000 N 
ATOM     20  C   UNL     1       1.485   9.999  18.418  0.00  0.00    +0.000 C 
ATOM     21  O   UNL     1       2.103  10.454  17.456  0.00  0.00    +0.000 OA
ATOM     22  H   UNL     1       1.229   8.483  19.811  0.00  0.00    +0.000 HD
BRANCH  20  23
ATOM     23  C   UNL     1       0.379  10.711  19.188  0.00  0.00    +0.000 C 
BRANCH  23  24
ATOM     24  C   UNL     1      -1.028  10.724  18.644  0.00  0.00    +0.000 A 
ATOM     25  C   UNL     1      -2.058  11.576  19.112  0.00  0.00    +0.000 A 
ATOM     26  C   UNL     1      -3.255  11.718  18.393  0.00  0.00    +0.000 A 
ATOM     27  C   UNL     1      -3.356  11.024  17.209  0.00  0.00    +0.000 A 
ATOM     28  C   UNL     1      -2.421  10.085  16.836  0.00  0.00    +0.000 A 
ATOM     29  C   UNL     1      -1.288   9.857  17.569  0.00  0.00    +0.000 A 
ATOM     30  O   UNL     1      -2.632   9.621  15.571  0.00  0.00    +0.000 OA
ATOM     31  C   UNL     1      -3.453  10.709  15.109  0.00  0.00    +0.000 C 
ATOM     32  O   UNL     1      -4.228  11.279  16.188  0.00  0.00    +0.000 OA
ENDBRANCH  23  24
ENDBRANCH  20  23
ENDBRANCH  18  19
ENDBRANCH   6  18
TORSDOF 6
ENDMDL
MODEL 8
REMARK VINA RESULT:      -8.8      1.587      2.173
REMARK  Name = 
REMARK  7 active torsions:
REMARK  status: ('A' for Active; 'I' for Inactive)
REMARK    1  A    between atoms: C_1  and  C_2
REMARK    2  A    between atoms: N_5  and  C_6
REMARK    3  A    between atoms: C_8  and  C_9
REMARK    4  A    between atoms: C_15  and  C_16
REMARK    5  A    between atoms: C_16  and  N_17
REMARK    6  A    between atoms: C_18  and  C_20
REMARK    7  A    between atoms: C_20  and  C_21
REMARK                            x       y       z     vdW  Elec       q    Type
REMARK                         _______ _______ _______ _____ _____    ______ ____
ROOT
ATOM      1  C   UNL     1       3.680   4.860  17.455  0.00  0.00    +0.000 A 
ATOM      2  C   UNL     1       4.251   4.276  16.303  0.00  0.00    +0.000 A 
ATOM      3  C   UNL     1       5.110   4.977  15.444  0.00  0.00    +0.000 A 
ATOM      4  C   UNL     1       5.349   6.323  15.688  0.00  0.00    +0.000 A 
ATOM      5  C   UNL     1       4.727   6.949  16.761  0.00  0.00    +0.000 A 
ATOM      6  C   UNL     1       3.910   6.241  17.672  0.00  0.00    +0.000 A 
ENDROOT
BRANCH   1  11
ATOM      7  C   UNL     1       1.451   2.651  21.974  0.00  0.00    +0.000 C 
ATOM      8  C   UNL     1       1.832   2.501  20.497  0.00  0.00    +0.000 C 
ATOM      9  C   UNL     1       3.350   2.685  20.361  0.00  0.00    +0.000 C 
ATOM     10  C   UNL     1       3.776   2.890  18.917  0.00  0.00    +0.000 C 
ATOM     11  N   UNL     1       3.038   4.053  18.401  0.00  0.00    +0.000 N 
ATOM     12  C   UNL     1       1.610   3.760  18.237  0.00  0.00    +0.000 C 
ATOM     13  C   UNL     1       1.016   3.485  19.628  0.00  0.00    +0.000 C 
ENDBRANCH   1  11
BRANCH   3  14
ATOM     14  C   UNL     1       5.825   4.283  14.305  0.00  0.00    +0.000 C 
ATOM     15  F   UNL     1       6.894   4.983  13.832  0.00  0.00    +0.000 F 
ATOM     16  F   UNL     1       6.313   3.064  14.673  0.00  0.00    +0.000 F 
ATOM     17  F   UNL     1       5.016   4.063  13.247  0.00  0.00    +0.000 F 
ENDBRANCH   3  14
BRANCH   6  18
ATOM     18  C   UNL     1       3.312   7.013  18.838  0.00  0.00    +0.000 C 
BRANCH  18  19
ATOM     19  N   UNL     1       2.072   7.689  18.494  0.00  0.00    +0.000 N 
ATOM     20  C   UNL     1       1.983   8.980  17.982  0.00  0.00    +0.000 C 
ATOM     21  O   UNL     1       2.959   9.655  17.654  0.00  0.00    +0.000 OA
ATOM     22  H   UNL     1       1.225   7.250  18.841  0.00  0.00    +0.000 HD
BRANCH  20  23
ATOM     23  C   UNL     1       0.525   9.410  17.883  0.00  0.00    +0.000 C 
BRANCH  23  24
ATOM     24  C   UNL     1      -0.146  10.071  19.061  0.00  0.00    +0.000 A 
ATOM     25  C   UNL     1       0.428  10.178  20.351  0.00  0.00    +0.000 A 
ATOM     26  C   UNL     1      -0.133  11.027  21.319  0.00  0.00    +0.000 A 
ATOM     27  C   UNL     1      -1.231  11.763  20.939  0.00  0.00    +0.000 A 
ATOM     28  C   UNL     1      -1.873  11.545  19.742  0.00  0.00    +0.000 A 
ATOM     29  C   UNL     1      -1.402  10.653  18.816  0.00  0.00    +0.000 A 
ATOM     30  O   UNL     1      -2.843  12.473  19.499  0.00  0.00    +0.000 OA
ATOM     31  C   UNL     1      -2.368  13.480  20.411  0.00  0.00    +0.000 C 
ATOM     32  O   UNL     1      -1.708  12.888  21.552  0.00  0.00    +0.000 OA
ENDBRANCH  23  24
ENDBRANCH  20  23
ENDBRANCH  18  19
ENDBRANCH   6  18
TORSDOF 6
ENDMDL
MODEL 9
REMARK VINA RESULT:      -8.8      2.472      3.616
REMARK  Name = 
REMARK  7 active torsions:
REMARK  status: ('A' for Active; 'I' for Inactive)
REMARK    1  A    between atoms: C_1  and  C_2
REMARK    2  A    between atoms: N_5  and  C_6
REMARK    3  A    between atoms: C_8  and  C_9
REMARK    4  A    between atoms: C_15  and  C_16
REMARK    5  A    between atoms: C_16  and  N_17
REMARK    6  A    between atoms: C_18  and  C_20
REMARK    7  A    between atoms: C_20  and  C_21
REMARK                            x       y       z     vdW  Elec       q    Type
REMARK                         _______ _______ _______ _____ _____    ______ ____
ROOT
ATOM      1  C   UNL     1       3.546   4.849  17.653  0.00  0.00    +0.000 A 
ATOM      2  C   UNL     1       4.319   4.302  16.606  0.00  0.00    +0.000 A 
ATOM      3  C   UNL     1       5.159   5.083  15.796  0.00  0.00    +0.000 A 
ATOM      4  C   UNL     1       5.173   6.459  15.978  0.00  0.00    +0.000 A 
ATOM      5  C   UNL     1       4.353   7.036  16.939  0.00  0.00    +0.000 A 
ATOM      6  C   UNL     1       3.550   6.258  17.805  0.00  0.00    +0.000 A 
ENDROOT
BRANCH   1  11
ATOM      7  C   UNL     1       1.308   2.497  22.095  0.00  0.00    +0.000 C 
ATOM      8  C   UNL     1       1.752   2.372  20.633  0.00  0.00    +0.000 C 
ATOM      9  C   UNL     1       3.258   2.657  20.551  0.00  0.00    +0.000 C 
ATOM     10  C   UNL     1       3.720   2.890  19.123  0.00  0.00    +0.000 C 
ATOM     11  N   UNL     1       2.926   4.001  18.578  0.00  0.00    +0.000 N 
ATOM     12  C   UNL     1       1.527   3.614  18.364  0.00  0.00    +0.000 C 
ATOM     13  C   UNL     1       0.903   3.300  19.734  0.00  0.00    +0.000 C 
ENDBRANCH   1  11
BRANCH   3  14
ATOM     14  C   UNL     1       6.088   4.450  14.783  0.00  0.00    +0.000 C 
ATOM     15  F   UNL     1       7.243   5.148  14.601  0.00  0.00    +0.000 F 
ATOM     16  F   UNL     1       6.466   3.193  15.151  0.00  0.00    +0.000 F 
ATOM     17  F   UNL     1       5.517   4.333  13.565  0.00  0.00    +0.000 F 
ENDBRANCH   3  14
BRANCH   6  18
ATOM     18  C   UNL     1       2.723   6.987  18.852  0.00  0.00    +0.000 C 
BRANCH  18  19
ATOM     19  N   UNL     1       2.312   8.315  18.427  0.00  0.00    +0.000 N 
ATOM     20  C   UNL     1       1.519   9.181  19.174  0.00  0.00    +0.000 C 
ATOM     21  O   UNL     1       1.169   8.960  20.333  0.00  0.00    +0.000 OA
ATOM     22  H   UNL     1       2.460   8.524  17.445  0.00  0.00    +0.000 HD
BRANCH  20  23
ATOM     23  C   UNL     1       1.170  10.418  18.355  0.00  0.00    +0.000 C 
BRANCH  23  24
ATOM     24  C   UNL     1       1.458  11.791  18.907  0.00  0.00    +0.000 A 
ATOM     25  C   UNL     1       0.973  12.272  20.147  0.00  0.00    +0.000 A 
ATOM     26  C   UNL     1       1.490  13.448  20.714  0.00  0.00    +0.000 A 
ATOM     27  C   UNL     1       2.502  14.077  20.027  0.00  0.00    +0.000 A 
ATOM     28  C   UNL     1       2.864  13.694  18.756  0.00  0.00    +0.000 A 
ATOM     29  C   UNL     1       2.309  12.605  18.139  0.00  0.00    +0.000 A 
ATOM     30  O   UNL     1       3.976  14.349  18.315  0.00  0.00    +0.000 OA
ATOM     31  C   UNL     1       4.469  14.763  19.602  0.00  0.00    +0.000 C 
ATOM     32  O   UNL     1       3.386  14.987  20.534  0.00  0.00    +0.000 OA
ENDBRANCH  23  24
ENDBRANCH  20  23
ENDBRANCH  18  19
ENDBRANCH   6  18
TORSDOF 6
ENDMDL
