MODEL 1
REMARK VINA RESULT:      -6.9      0.000      0.000
REMARK  Name = 
REMARK  11 active torsions:
REMARK  status: ('A' for Active; 'I' for Inactive)
REMARK    1  A    between atoms: C_1  and  C_2
REMARK    2  A    between atoms: C_2  and  C_3
REMARK    3  A    between atoms: C_3  and  C_4
REMARK    4  A    between atoms: C_4  and  C_5
REMARK    5  A    between atoms: C_5  and  C_6
REMARK    6  A    between atoms: C_6  and  C_7
REMARK    7  A    between atoms: C_7  and  C_8
REMARK    8  A    between atoms: C_8  and  C_9
REMARK    9  A    between atoms: C_9  and  C_10
REMARK   10  A    between atoms: N_12  and  C_13
REMARK   11  A    between atoms: C_17  and  N_18
REMARK                            x       y       z     vdW  Elec       q    Type
REMARK                         _______ _______ _______ _____ _____    ______ ____
ROOT
ATOM      1  C   UNL     1       3.292   2.957  18.009  0.00  0.00    +0.000 C 
ATOM      2  O   UNL     1       2.823   3.379  16.951  0.00  0.00    +0.000 OA
ATOM      3  N   UNL     1       4.520   3.296  18.554  0.00  0.00    +0.000 N 
ATOM      4  H   UNL     1       4.857   2.727  19.321  0.00  0.00    +0.000 HD
ENDROOT
BRANCH   3   5
ATOM      5  C   UNL     1       5.431   4.213  17.985  0.00  0.00    +0.000 A 
ATOM      6  C   UNL     1       5.931   5.311  18.693  0.00  0.00    +0.000 A 
ATOM      7  C   UNL     1       6.761   6.252  18.080  0.00  0.00    +0.000 A 
ATOM      8  C   UNL     1       7.113   6.098  16.744  0.00  0.00    +0.000 A 
ATOM      9  C   UNL     1       6.650   4.982  16.038  0.00  0.00    +0.000 A 
ATOM     10  C   UNL     1       5.827   4.024  16.657  0.00  0.00    +0.000 A 
BRANCH   9  11
ATOM     11  N   UNL     1       7.009   4.829  14.625  0.00  0.00    +0.000 N 
ATOM     12  O   UNL     1       6.466   3.915  13.985  0.00  0.00    +0.000 OA
ATOM     13  O   UNL     1       7.842   5.616  14.151  0.00  0.00    +0.000 OA
ENDBRANCH   9  11
ENDBRANCH   3   5
BRANCH   1  14
ATOM     14  C   UNL     1       2.524   1.929  18.806  0.00  0.00    +0.000 C 
BRANCH  14  15
ATOM     15  C   UNL     1       1.488   2.577  19.711  0.00  0.00    +0.000 C 
BRANCH  15  16
ATOM     16  C   UNL     1       2.052   2.778  21.113  0.00  0.00    +0.000 C 
BRANCH  16  17
ATOM     17  C   UNL     1       2.252   4.261  21.399  0.00  0.00    +0.000 C 
BRANCH  17  18
ATOM     18  C   UNL     1       1.451   5.116  20.425  0.00  0.00    +0.000 C 
BRANCH  18  19
ATOM     19  C   UNL     1       2.283   6.299  19.941  0.00  0.00    +0.000 C 
BRANCH  19  20
ATOM     20  C   UNL     1       2.372   6.308  18.420  0.00  0.00    +0.000 C 
BRANCH  20  22
ATOM     21  C   UNL     1       2.181   8.768  17.971  0.00  0.00    +0.000 C 
ATOM     22  C   UNL     1       3.094   7.555  17.921  0.00  0.00    +0.000 C 
ENDBRANCH  20  22
ENDBRANCH  19  20
ENDBRANCH  18  19
ENDBRANCH  17  18
ENDBRANCH  16  17
ENDBRANCH  15  16
ENDBRANCH  14  15
ENDBRANCH   1  14
TORSDOF 10
ENDMDL
MODEL 2
REMARK VINA RESULT:      -6.6      2.497      4.437
REMARK  Name = 
REMARK  11 active torsions:
REMARK  status: ('A' for Active; 'I' for Inactive)
REMARK    1  A    between atoms: C_1  and  C_2
REMARK    2  A    between atoms: C_2  and  C_3
REMARK    3  A    between atoms: C_3  and  C_4
REMARK    4  A    between atoms: C_4  and  C_5
REMARK    5  A    between atoms: C_5  and  C_6
REMARK    6  A    between atoms: C_6  and  C_7
REMARK    7  A    between atoms: C_7  and  C_8
REMARK    8  A    between atoms: C_8  and  C_9
REMARK    9  A    between atoms: C_9  and  C_10
REMARK   10  A    between atoms: N_12  and  C_13
REMARK   11  A    between atoms: C_17  and  N_18
REMARK                            x       y       z     vdW  Elec       q    Type
REMARK                         _______ _______ _______ _____ _____    ______ ____
ROOT
ATOM      1  C   UNL     1       6.853   4.812  16.970  0.00  0.00    +0.000 C 
ATOM      2  O   UNL     1       7.936   4.228  17.018  0.00  0.00    +0.000 OA
ATOM      3  N   UNL     1       6.137   5.118  15.823  0.00  0.00    +0.000 N 
ATOM      4  H   UNL     1       5.366   5.768  15.922  0.00  0.00    +0.000 HD
ENDROOT
BRANCH   3   5
ATOM      5  C   UNL     1       6.532   4.781  14.511  0.00  0.00    +0.000 A 
ATOM      6  C   UNL     1       7.630   5.378  13.881  0.00  0.00    +0.000 A 
ATOM      7  C   UNL     1       7.947   5.093  12.552  0.00  0.00    +0.000 A 
ATOM      8  C   UNL     1       7.171   4.189  11.833  0.00  0.00    +0.000 A 
ATOM      9  C   UNL     1       6.095   3.557  12.467  0.00  0.00    +0.000 A 
ATOM     10  C   UNL     1       5.783   3.830  13.810  0.00  0.00    +0.000 A 
BRANCH   9  11
ATOM     11  N   UNL     1       5.268   2.617  11.704  0.00  0.00    +0.000 N 
ATOM     12  O   UNL     1       4.132   2.985  11.369  0.00  0.00    +0.000 OA
ATOM     13  O   UNL     1       5.749   1.503  11.444  0.00  0.00    +0.000 OA
ENDBRANCH   9  11
ENDBRANCH   3   5
BRANCH   1  14
ATOM     14  C   UNL     1       6.220   5.313  18.247  0.00  0.00    +0.000 C 
BRANCH  14  15
ATOM     15  C   UNL     1       5.324   4.261  18.881  0.00  0.00    +0.000 C 
BRANCH  15  16
ATOM     16  C   UNL     1       4.215   3.851  17.919  0.00  0.00    +0.000 C 
BRANCH  16  17
ATOM     17  C   UNL     1       3.162   4.947  17.820  0.00  0.00    +0.000 C 
BRANCH  17  18
ATOM     18  C   UNL     1       1.761   4.353  17.765  0.00  0.00    +0.000 C 
BRANCH  18  19
ATOM     19  C   UNL     1       1.503   3.475  18.985  0.00  0.00    +0.000 C 
BRANCH  19  20
ATOM     20  C   UNL     1       1.171   4.329  20.202  0.00  0.00    +0.000 C 
BRANCH  20  22
ATOM     21  C   UNL     1       2.618   2.607  21.310  0.00  0.00    +0.000 C 
ATOM     22  C   UNL     1       2.136   4.047  21.349  0.00  0.00    +0.000 C 
ENDBRANCH  20  22
ENDBRANCH  19  20
ENDBRANCH  18  19
ENDBRANCH  17  18
ENDBRANCH  16  17
ENDBRANCH  15  16
ENDBRANCH  14  15
ENDBRANCH   1  14
TORSDOF 10
ENDMDL
MODEL 3
REMARK VINA RESULT:      -6.4      2.524      4.397
REMARK  Name = 
REMARK  11 active torsions:
REMARK  status: ('A' for Active; 'I' for Inactive)
REMARK    1  A    between atoms: C_1  and  C_2
REMARK    2  A    between atoms: C_2  and  C_3
REMARK    3  A    between atoms: C_3  and  C_4
REMARK    4  A    between atoms: C_4  and  C_5
REMARK    5  A    between atoms: C_5  and  C_6
REMARK    6  A    between atoms: C_6  and  C_7
REMARK    7  A    between atoms: C_7  and  C_8
REMARK    8  A    between atoms: C_8  and  C_9
REMARK    9  A    between atoms: C_9  and  C_10
REMARK   10  A    between atoms: N_12  and  C_13
REMARK   11  A    between atoms: C_17  and  N_18
REMARK                            x       y       z     vdW  Elec       q    Type
REMARK                         _______ _______ _______ _____ _____    ______ ____
ROOT
ATOM      1  C   UNL     1       6.878   4.530  17.085  0.00  0.00    +0.000 C 
ATOM      2  O   UNL     1       8.062   4.191  17.062  0.00  0.00    +0.000 OA
ATOM      3  N   UNL     1       6.063   4.733  15.983  0.00  0.00    +0.000 N 
ATOM      4  H   UNL     1       5.176   5.197  16.145  0.00  0.00    +0.000 HD
ENDROOT
BRANCH   3   5
ATOM      5  C   UNL     1       6.462   4.557  14.640  0.00  0.00    +0.000 A 
ATOM      6  C   UNL     1       7.507   5.288  14.066  0.00  0.00    +0.000 A 
ATOM      7  C   UNL     1       7.824   5.160  12.712  0.00  0.00    +0.000 A 
ATOM      8  C   UNL     1       7.102   4.282  11.912  0.00  0.00    +0.000 A 
ATOM      9  C   UNL     1       6.080   3.517  12.486  0.00  0.00    +0.000 A 
ATOM     10  C   UNL     1       5.768   3.632  13.853  0.00  0.00    +0.000 A 
BRANCH   9  11
ATOM     11  N   UNL     1       5.308   2.603  11.638  0.00  0.00    +0.000 N 
ATOM     12  O   UNL     1       5.819   1.510  11.350  0.00  0.00    +0.000 OA
ATOM     13  O   UNL     1       4.191   2.979  11.250  0.00  0.00    +0.000 OA
ENDBRANCH   9  11
ENDBRANCH   3   5
BRANCH   1  14
ATOM     14  C   UNL     1       6.211   4.816  18.410  0.00  0.00    +0.000 C 
BRANCH  14  15
ATOM     15  C   UNL     1       4.911   5.582  18.231  0.00  0.00    +0.000 C 
BRANCH  15  16
ATOM     16  C   UNL     1       4.116   5.601  19.531  0.00  0.00    +0.000 C 
BRANCH  16  17
ATOM     17  C   UNL     1       2.672   6.010  19.267  0.00  0.00    +0.000 C 
BRANCH  17  18
ATOM     18  C   UNL     1       1.734   4.819  19.417  0.00  0.00    +0.000 C 
BRANCH  18  19
ATOM     19  C   UNL     1       1.513   4.139  18.070  0.00  0.00    +0.000 C 
BRANCH  19  20
ATOM     20  C   UNL     1       1.646   2.626  18.203  0.00  0.00    +0.000 C 
BRANCH  20  22
ATOM     21  C   UNL     1       3.864   1.805  19.038  0.00  0.00    +0.000 C 
ATOM     22  C   UNL     1       2.468   2.255  19.433  0.00  0.00    +0.000 C 
ENDBRANCH  20  22
ENDBRANCH  19  20
ENDBRANCH  18  19
ENDBRANCH  17  18
ENDBRANCH  16  17
ENDBRANCH  15  16
ENDBRANCH  14  15
ENDBRANCH   1  14
TORSDOF 10
ENDMDL
MODEL 4
REMARK VINA RESULT:      -6.3      3.263      7.126
REMARK  Name = 
REMARK  11 active torsions:
REMARK  status: ('A' for Active; 'I' for Inactive)
REMARK    1  A    between atoms: C_1  and  C_2
REMARK    2  A    between atoms: C_2  and  C_3
REMARK    3  A    between atoms: C_3  and  C_4
REMARK    4  A    between atoms: C_4  and  C_5
REMARK    5  A    between atoms: C_5  and  C_6
REMARK    6  A    between atoms: C_6  and  C_7
REMARK    7  A    between atoms: C_7  and  C_8
REMARK    8  A    between atoms: C_8  and  C_9
REMARK    9  A    between atoms: C_9  and  C_10
REMARK   10  A    between atoms: N_12  and  C_13
REMARK   11  A    between atoms: C_17  and  N_18
REMARK                            x       y       z     vdW  Elec       q    Type
REMARK                         _______ _______ _______ _____ _____    ______ ____
ROOT
ATOM      1  C   UNL     1       6.326   5.450  18.812  0.00  0.00    +0.000 C 
ATOM      2  O   UNL     1       6.607   5.127  19.966  0.00  0.00    +0.000 OA
ATOM      3  N   UNL     1       5.053   5.668  18.308  0.00  0.00    +0.000 N 
ATOM      4  H   UNL     1       4.961   5.734  17.301  0.00  0.00    +0.000 HD
ENDROOT
BRANCH   3   5
ATOM      5  C   UNL     1       3.861   5.575  19.059  0.00  0.00    +0.000 A 
ATOM      6  C   UNL     1       3.033   6.678  19.292  0.00  0.00    +0.000 A 
ATOM      7  C   UNL     1       1.907   6.580  20.111  0.00  0.00    +0.000 A 
ATOM      8  C   UNL     1       1.585   5.363  20.702  0.00  0.00    +0.000 A 
ATOM      9  C   UNL     1       2.384   4.244  20.443  0.00  0.00    +0.000 A 
ATOM     10  C   UNL     1       3.510   4.336  19.606  0.00  0.00    +0.000 A 
BRANCH   9  11
ATOM     11  N   UNL     1       2.054   2.965  21.080  0.00  0.00    +0.000 N 
ATOM     12  O   UNL     1       2.448   2.777  22.241  0.00  0.00    +0.000 OA
ATOM     13  O   UNL     1       1.405   2.140  20.418  0.00  0.00    +0.000 OA
ENDBRANCH   9  11
ENDBRANCH   3   5
BRANCH   1  14
ATOM     14  C   UNL     1       7.428   5.587  17.787  0.00  0.00    +0.000 C 
BRANCH  14  15
ATOM     15  C   UNL     1       7.276   4.581  16.658  0.00  0.00    +0.000 C 
BRANCH  15  16
ATOM     16  C   UNL     1       7.051   5.295  15.330  0.00  0.00    +0.000 C 
BRANCH  16  17
ATOM     17  C   UNL     1       5.754   4.823  14.685  0.00  0.00    +0.000 C 
BRANCH  17  18
ATOM     18  C   UNL     1       5.957   3.499  13.960  0.00  0.00    +0.000 C 
BRANCH  18  19
ATOM     19  C   UNL     1       6.180   3.732  12.470  0.00  0.00    +0.000 C 
BRANCH  19  20
ATOM     20  C   UNL     1       5.178   2.934  11.644  0.00  0.00    +0.000 C 
BRANCH  20  22
ATOM     21  C   UNL     1       7.208   1.609  11.001  0.00  0.00    +0.000 C 
ATOM     22  C   UNL     1       5.722   1.548  11.313  0.00  0.00    +0.000 C 
ENDBRANCH  20  22
ENDBRANCH  19  20
ENDBRANCH  18  19
ENDBRANCH  17  18
ENDBRANCH  16  17
ENDBRANCH  15  16
ENDBRANCH  14  15
ENDBRANCH   1  14
TORSDOF 10
ENDMDL
MODEL 5
REMARK VINA RESULT:      -6.3      1.147      1.240
REMARK  Name = 
REMARK  11 active torsions:
REMARK  status: ('A' for Active; 'I' for Inactive)
REMARK    1  A    between atoms: C_1  and  C_2
REMARK    2  A    between atoms: C_2  and  C_3
REMARK    3  A    between atoms: C_3  and  C_4
REMARK    4  A    between atoms: C_4  and  C_5
REMARK    5  A    between atoms: C_5  and  C_6
REMARK    6  A    between atoms: C_6  and  C_7
REMARK    7  A    between atoms: C_7  and  C_8
REMARK    8  A    between atoms: C_8  and  C_9
REMARK    9  A    between atoms: C_9  and  C_10
REMARK   10  A    between atoms: N_12  and  C_13
REMARK   11  A    between atoms: C_17  and  N_18
REMARK                            x       y       z     vdW  Elec       q    Type
REMARK                         _______ _______ _______ _____ _____    ______ ____
ROOT
ATOM      1  C   UNL     1       3.146   2.763  17.795  0.00  0.00    +0.000 C 
ATOM      2  O   UNL     1       3.820   1.782  18.107  0.00  0.00    +0.000 OA
ATOM      3  N   UNL     1       3.616   3.925  17.203  0.00  0.00    +0.000 N 
ATOM      4  H   UNL     1       2.987   4.719  17.184  0.00  0.00    +0.000 HD
ENDROOT
BRANCH   3   5
ATOM      5  C   UNL     1       4.959   4.159  16.838  0.00  0.00    +0.000 A 
ATOM      6  C   UNL     1       5.963   4.396  17.783  0.00  0.00    +0.000 A 
ATOM      7  C   UNL     1       7.266   4.712  17.394  0.00  0.00    +0.000 A 
ATOM      8  C   UNL     1       7.587   4.784  16.043  0.00  0.00    +0.000 A 
ATOM      9  C   UNL     1       6.600   4.510  15.090  0.00  0.00    +0.000 A 
ATOM     10  C   UNL     1       5.290   4.176  15.479  0.00  0.00    +0.000 A 
BRANCH   9  11
ATOM     11  N   UNL     1       6.934   4.602  13.665  0.00  0.00    +0.000 N 
ATOM     12  O   UNL     1       6.427   3.771  12.896  0.00  0.00    +0.000 OA
ATOM     13  O   UNL     1       7.713   5.501  13.311  0.00  0.00    +0.000 OA
ENDBRANCH   9  11
ENDBRANCH   3   5
BRANCH   1  14
ATOM     14  C   UNL     1       1.669   2.782  18.108  0.00  0.00    +0.000 C 
BRANCH  14  15
ATOM     15  C   UNL     1       1.359   2.059  19.409  0.00  0.00    +0.000 C 
BRANCH  15  16
ATOM     16  C   UNL     1       1.016   3.057  20.509  0.00  0.00    +0.000 C 
BRANCH  16  17
ATOM     17  C   UNL     1       1.215   4.484  20.014  0.00  0.00    +0.000 C 
BRANCH  17  18
ATOM     18  C   UNL     1       2.421   5.130  20.683  0.00  0.00    +0.000 C 
BRANCH  18  19
ATOM     19  C   UNL     1       3.191   5.990  19.686  0.00  0.00    +0.000 C 
BRANCH  19  20
ATOM     20  C   UNL     1       2.241   6.623  18.676  0.00  0.00    +0.000 C 
BRANCH  20  22
ATOM     21  C   UNL     1       1.634   8.852  17.700  0.00  0.00    +0.000 C 
ATOM     22  C   UNL     1       2.767   7.974  18.202  0.00  0.00    +0.000 C 
ENDBRANCH  20  22
ENDBRANCH  19  20
ENDBRANCH  18  19
ENDBRANCH  17  18
ENDBRANCH  16  17
ENDBRANCH  15  16
ENDBRANCH  14  15
ENDBRANCH   1  14
TORSDOF 10
ENDMDL
MODEL 6
REMARK VINA RESULT:      -6.3      2.475      4.238
REMARK  Name = 
REMARK  11 active torsions:
REMARK  status: ('A' for Active; 'I' for Inactive)
REMARK    1  A    between atoms: C_1  and  C_2
REMARK    2  A    between atoms: C_2  and  C_3
REMARK    3  A    between atoms: C_3  and  C_4
REMARK    4  A    between atoms: C_4  and  C_5
REMARK    5  A    between atoms: C_5  and  C_6
REMARK    6  A    between atoms: C_6  and  C_7
REMARK    7  A    between atoms: C_7  and  C_8
REMARK    8  A    between atoms: C_8  and  C_9
REMARK    9  A    between atoms: C_9  and  C_10
REMARK   10  A    between atoms: N_12  and  C_13
REMARK   11  A    between atoms: C_17  and  N_18
REMARK                            x       y       z     vdW  Elec       q    Type
REMARK                         _______ _______ _______ _____ _____    ______ ____
ROOT
ATOM      1  C   UNL     1       6.202   4.969  16.978  0.00  0.00    +0.000 C 
ATOM      2  O   UNL     1       7.232   4.333  17.199  0.00  0.00    +0.000 OA
ATOM      3  N   UNL     1       5.678   5.271  15.730  0.00  0.00    +0.000 N 
ATOM      4  H   UNL     1       4.939   5.964  15.696  0.00  0.00    +0.000 HD
ENDROOT
BRANCH   3   5
ATOM      5  C   UNL     1       6.240   4.869  14.499  0.00  0.00    +0.000 A 
ATOM      6  C   UNL     1       7.420   5.426  13.995  0.00  0.00    +0.000 A 
ATOM      7  C   UNL     1       7.907   5.075  12.735  0.00  0.00    +0.000 A 
ATOM      8  C   UNL     1       7.222   4.145  11.962  0.00  0.00    +0.000 A 
ATOM      9  C   UNL     1       6.062   3.552  12.474  0.00  0.00    +0.000 A 
ATOM     10  C   UNL     1       5.577   3.891  13.749  0.00  0.00    +0.000 A 
BRANCH   9  11
ATOM     11  N   UNL     1       5.331   2.583  11.651  0.00  0.00    +0.000 N 
ATOM     12  O   UNL     1       5.914   1.534  11.335  0.00  0.00    +0.000 OA
ATOM     13  O   UNL     1       4.173   2.870  11.311  0.00  0.00    +0.000 OA
ENDBRANCH   9  11
ENDBRANCH   3   5
BRANCH   1  14
ATOM     14  C   UNL     1       5.419   5.546  18.134  0.00  0.00    +0.000 C 
BRANCH  14  15
ATOM     15  C   UNL     1       3.946   5.179  18.055  0.00  0.00    +0.000 C 
BRANCH  15  16
ATOM     16  C   UNL     1       3.772   3.666  18.009  0.00  0.00    +0.000 C 
BRANCH  16  17
ATOM     17  C   UNL     1       2.436   3.302  17.374  0.00  0.00    +0.000 C 
BRANCH  17  18
ATOM     18  C   UNL     1       1.499   2.676  18.399  0.00  0.00    +0.000 C 
BRANCH  18  19
ATOM     19  C   UNL     1       2.276   2.231  19.634  0.00  0.00    +0.000 C 
BRANCH  19  20
ATOM     20  C   UNL     1       1.855   3.040  20.855  0.00  0.00    +0.000 C 
BRANCH  20  22
ATOM     21  C   UNL     1       1.654   5.537  20.747  0.00  0.00    +0.000 C 
ATOM     22  C   UNL     1       0.967   4.214  20.455  0.00  0.00    +0.000 C 
ENDBRANCH  20  22
ENDBRANCH  19  20
ENDBRANCH  18  19
ENDBRANCH  17  18
ENDBRANCH  16  17
ENDBRANCH  15  16
ENDBRANCH  14  15
ENDBRANCH   1  14
TORSDOF 10
ENDMDL
MODEL 7
REMARK VINA RESULT:      -6.2      2.563      4.159
REMARK  Name = 
REMARK  11 active torsions:
REMARK  status: ('A' for Active; 'I' for Inactive)
REMARK    1  A    between atoms: C_1  and  C_2
REMARK    2  A    between atoms: C_2  and  C_3
REMARK    3  A    between atoms: C_3  and  C_4
REMARK    4  A    between atoms: C_4  and  C_5
REMARK    5  A    between atoms: C_5  and  C_6
REMARK    6  A    between atoms: C_6  and  C_7
REMARK    7  A    between atoms: C_7  and  C_8
REMARK    8  A    between atoms: C_8  and  C_9
REMARK    9  A    between atoms: C_9  and  C_10
REMARK   10  A    between atoms: N_12  and  C_13
REMARK   11  A    between atoms: C_17  and  N_18
REMARK                            x       y       z     vdW  Elec       q    Type
REMARK                         _______ _______ _______ _____ _____    ______ ____
ROOT
ATOM      1  C   UNL     1       5.225   5.924  16.367  0.00  0.00    +0.000 C 
ATOM      2  O   UNL     1       5.095   6.963  15.720  0.00  0.00    +0.000 OA
ATOM      3  N   UNL     1       5.741   4.725  15.898  0.00  0.00    +0.000 N 
ATOM      4  H   UNL     1       5.605   3.907  16.480  0.00  0.00    +0.000 HD
ENDROOT
BRANCH   3   5
ATOM      5  C   UNL     1       6.227   4.513  14.590  0.00  0.00    +0.000 A 
ATOM      6  C   UNL     1       7.335   5.197  14.081  0.00  0.00    +0.000 A 
ATOM      7  C   UNL     1       7.743   5.034  12.755  0.00  0.00    +0.000 A 
ATOM      8  C   UNL     1       7.048   4.168  11.919  0.00  0.00    +0.000 A 
ATOM      9  C   UNL     1       5.962   3.448  12.430  0.00  0.00    +0.000 A 
ATOM     10  C   UNL     1       5.559   3.597  13.769  0.00  0.00    +0.000 A 
BRANCH   9  11
ATOM     11  N   UNL     1       5.220   2.546  11.544  0.00  0.00    +0.000 N 
ATOM     12  O   UNL     1       5.680   1.409  11.358  0.00  0.00    +0.000 OA
ATOM     13  O   UNL     1       4.179   2.974  11.023  0.00  0.00    +0.000 OA
ENDBRANCH   9  11
ENDBRANCH   3   5
BRANCH   1  14
ATOM     14  C   UNL     1       4.748   5.874  17.799  0.00  0.00    +0.000 C 
BRANCH  14  15
ATOM     15  C   UNL     1       4.086   4.545  18.126  0.00  0.00    +0.000 C 
BRANCH  15  16
ATOM     16  C   UNL     1       4.880   3.797  19.190  0.00  0.00    +0.000 C 
BRANCH  16  17
ATOM     17  C   UNL     1       4.147   2.530  19.610  0.00  0.00    +0.000 C 
BRANCH  17  18
ATOM     18  C   UNL     1       2.887   2.329  18.778  0.00  0.00    +0.000 C 
BRANCH  18  19
ATOM     19  C   UNL     1       1.676   2.119  19.681  0.00  0.00    +0.000 C 
BRANCH  19  20
ATOM     20  C   UNL     1       0.919   3.427  19.878  0.00  0.00    +0.000 C 
BRANCH  20  22
ATOM     21  C   UNL     1       1.656   5.737  20.521  0.00  0.00    +0.000 C 
ATOM     22  C   UNL     1       1.577   4.284  20.956  0.00  0.00    +0.000 C 
ENDBRANCH  20  22
ENDBRANCH  19  20
ENDBRANCH  18  19
ENDBRANCH  17  18
ENDBRANCH  16  17
ENDBRANCH  15  16
ENDBRANCH  14  15
ENDBRANCH   1  14
TORSDOF 10
ENDMDL
MODEL 8
REMARK VINA RESULT:      -6.2      4.005      7.312
REMARK  Name = 
REMARK  11 active torsions:
REMARK  status: ('A' for Active; 'I' for Inactive)
REMARK    1  A    between atoms: C_1  and  C_2
REMARK    2  A    between atoms: C_2  and  C_3
REMARK    3  A    between atoms: C_3  and  C_4
REMARK    4  A    between atoms: C_4  and  C_5
REMARK    5  A    between atoms: C_5  and  C_6
REMARK    6  A    between atoms: C_6  and  C_7
REMARK    7  A    between atoms: C_7  and  C_8
REMARK    8  A    between atoms: C_8  and  C_9
REMARK    9  A    between atoms: C_9  and  C_10
REMARK   10  A    between atoms: N_12  and  C_13
REMARK   11  A    between atoms: C_17  and  N_18
REMARK                            x       y       z     vdW  Elec       q    Type
REMARK                         _______ _______ _______ _____ _____    ______ ____
ROOT
ATOM      1  C   UNL     1       6.003   5.367  18.409  0.00  0.00    +0.000 C 
ATOM      2  O   UNL     1       6.283   4.422  19.148  0.00  0.00    +0.000 OA
ATOM      3  N   UNL     1       4.742   5.906  18.211  0.00  0.00    +0.000 N 
ATOM      4  H   UNL     1       4.632   6.545  17.432  0.00  0.00    +0.000 HD
ENDROOT
BRANCH   3   5
ATOM      5  C   UNL     1       3.565   5.465  18.853  0.00  0.00    +0.000 A 
ATOM      6  C   UNL     1       2.937   6.206  19.860  0.00  0.00    +0.000 A 
ATOM      7  C   UNL     1       1.825   5.708  20.541  0.00  0.00    +0.000 A 
ATOM      8  C   UNL     1       1.315   4.457  20.213  0.00  0.00    +0.000 A 
ATOM      9  C   UNL     1       1.911   3.725  19.180  0.00  0.00    +0.000 A 
ATOM     10  C   UNL     1       3.022   4.231  18.481  0.00  0.00    +0.000 A 
BRANCH   9  11
ATOM     11  N   UNL     1       1.383   2.399  18.844  0.00  0.00    +0.000 N 
ATOM     12  O   UNL     1       2.139   1.424  18.976  0.00  0.00    +0.000 OA
ATOM     13  O   UNL     1       0.213   2.328  18.439  0.00  0.00    +0.000 OA
ENDBRANCH   9  11
ENDBRANCH   3   5
BRANCH   1  14
ATOM     14  C   UNL     1       7.088   6.006  17.575  0.00  0.00    +0.000 C 
BRANCH  14  15
ATOM     15  C   UNL     1       7.944   6.956  18.396  0.00  0.00    +0.000 C 
BRANCH  15  16
ATOM     16  C   UNL     1       7.939   8.351  17.781  0.00  0.00    +0.000 C 
BRANCH  16  17
ATOM     17  C   UNL     1       8.829   9.290  18.585  0.00  0.00    +0.000 C 
BRANCH  17  18
ATOM     18  C   UNL     1       8.739  10.714  18.052  0.00  0.00    +0.000 C 
BRANCH  18  19
ATOM     19  C   UNL     1       9.642  11.645  18.854  0.00  0.00    +0.000 C 
BRANCH  19  20
ATOM     20  C   UNL     1      10.997  11.800  18.173  0.00  0.00    +0.000 C 
BRANCH  20  22
ATOM     21  C   UNL     1      12.332  13.471  16.863  0.00  0.00    +0.000 C 
ATOM     22  C   UNL     1      10.950  12.888  17.104  0.00  0.00    +0.000 C 
ENDBRANCH  20  22
ENDBRANCH  19  20
ENDBRANCH  18  19
ENDBRANCH  17  18
ENDBRANCH  16  17
ENDBRANCH  15  16
ENDBRANCH  14  15
ENDBRANCH   1  14
TORSDOF 10
ENDMDL
MODEL 9
REMARK VINA RESULT:      -6.2      2.377      4.014
REMARK  Name = 
REMARK  11 active torsions:
REMARK  status: ('A' for Active; 'I' for Inactive)
REMARK    1  A    between atoms: C_1  and  C_2
REMARK    2  A    between atoms: C_2  and  C_3
REMARK    3  A    between atoms: C_3  and  C_4
REMARK    4  A    between atoms: C_4  and  C_5
REMARK    5  A    between atoms: C_5  and  C_6
REMARK    6  A    between atoms: C_6  and  C_7
REMARK    7  A    between atoms: C_7  and  C_8
REMARK    8  A    between atoms: C_8  and  C_9
REMARK    9  A    between atoms: C_9  and  C_10
REMARK   10  A    between atoms: N_12  and  C_13
REMARK   11  A    between atoms: C_17  and  N_18
REMARK                            x       y       z     vdW  Elec       q    Type
REMARK                         _______ _______ _______ _____ _____    ______ ____
ROOT
ATOM      1  C   UNL     1       4.624   5.547  16.927  0.00  0.00    +0.000 C 
ATOM      2  O   UNL     1       4.595   6.658  16.397  0.00  0.00    +0.000 OA
ATOM      3  N   UNL     1       5.180   4.396  16.387  0.00  0.00    +0.000 N 
ATOM      4  H   UNL     1       4.958   3.520  16.845  0.00  0.00    +0.000 HD
ENDROOT
BRANCH   3   5
ATOM      5  C   UNL     1       5.830   4.324  15.136  0.00  0.00    +0.000 A 
ATOM      6  C   UNL     1       7.027   4.998  14.873  0.00  0.00    +0.000 A 
ATOM      7  C   UNL     1       7.603   4.982  13.601  0.00  0.00    +0.000 A 
ATOM      8  C   UNL     1       6.991   4.275  12.572  0.00  0.00    +0.000 A 
ATOM      9  C   UNL     1       5.815   3.565  12.836  0.00  0.00    +0.000 A 
ATOM     10  C   UNL     1       5.240   3.566  14.119  0.00  0.00    +0.000 A 
BRANCH   9  11
ATOM     11  N   UNL     1       5.161   2.833  11.747  0.00  0.00    +0.000 N 
ATOM     12  O   UNL     1       4.147   3.336  11.237  0.00  0.00    +0.000 OA
ATOM     13  O   UNL     1       5.654   1.748  11.401  0.00  0.00    +0.000 OA
ENDBRANCH   9  11
ENDBRANCH   3   5
BRANCH   1  14
ATOM     14  C   UNL     1       3.963   5.343  18.270  0.00  0.00    +0.000 C 
BRANCH  14  15
ATOM     15  C   UNL     1       3.214   6.586  18.722  0.00  0.00    +0.000 C 
BRANCH  15  16
ATOM     16  C   UNL     1       2.238   6.245  19.842  0.00  0.00    +0.000 C 
BRANCH  16  17
ATOM     17  C   UNL     1       2.574   4.888  20.447  0.00  0.00    +0.000 C 
BRANCH  17  18
ATOM     18  C   UNL     1       1.325   4.026  20.578  0.00  0.00    +0.000 C 
BRANCH  18  19
ATOM     19  C   UNL     1       1.620   2.588  20.163  0.00  0.00    +0.000 C 
BRANCH  19  20
ATOM     20  C   UNL     1       1.114   2.321  18.750  0.00  0.00    +0.000 C 
BRANCH  20  22
ATOM     21  C   UNL     1       3.489   1.592  18.408  0.00  0.00    +0.000 C 
ATOM     22  C   UNL     1       2.273   2.232  17.762  0.00  0.00    +0.000 C 
ENDBRANCH  20  22
ENDBRANCH  19  20
ENDBRANCH  18  19
ENDBRANCH  17  18
ENDBRANCH  16  17
ENDBRANCH  15  16
ENDBRANCH  14  15
ENDBRANCH   1  14
TORSDOF 10
ENDMDL
