MODEL 1
REMARK VINA RESULT:      -7.8      0.000      0.000
REMARK  Name = 
REMARK  5 active torsions:
REMARK  status: ('A' for Active; 'I' for Inactive)
REMARK    1  A    between atoms: C_1  and  O_2
REMARK    2  A    between atoms: O_2  and  C_3
REMARK    3  A    between atoms: C_12  and  C_14
REMARK    4  A    between atoms: C_31  and  O_32
REMARK    5  A    between atoms: O_32  and  C_33
REMARK                            x       y       z     vdW  Elec       q    Type
REMARK                         _______ _______ _______ _____ _____    ______ ____
ROOT
ATOM      1  C   UNL     1       2.741   3.966  20.478  0.00  0.00    +0.000 A 
ATOM      2  C   UNL     1       2.211   5.217  20.815  0.00  0.00    +0.000 A 
ATOM      3  C   UNL     1       2.340   6.315  19.984  0.00  0.00    +0.000 A 
ATOM      4  N   UNL     1       1.755   7.459  20.346  0.00  0.00    +0.000 NA
ATOM      5  C   UNL     1       1.844   8.525  19.540  0.00  0.00    +0.000 A 
ATOM      6  N   UNL     1       1.252   9.694  19.955  0.00  0.00    +0.000 N 
ATOM      7  C   UNL     1       1.250  10.888  19.102  0.00  0.00    +0.000 C 
ATOM      8  C   UNL     1      -0.165  11.201  18.572  0.00  0.00    +0.000 C 
ATOM      9  N   UNL     1      -1.174  11.173  19.645  0.00  0.00    +0.000 N 
ATOM     10  C   UNL     1      -2.004  12.270  19.844  0.00  0.00    +0.000 C 
ATOM     11  O   UNL     1      -1.920  13.266  19.117  0.00  0.00    +0.000 OA
ATOM     12  C   UNL     1      -1.164   9.929  20.425  0.00  0.00    +0.000 C 
ATOM     13  C   UNL     1       0.235   9.656  21.010  0.00  0.00    +0.000 C 
ATOM     14  N   UNL     1       2.515   8.489  18.382  0.00  0.00    +0.000 NA
ATOM     15  C   UNL     1       3.112   7.339  18.032  0.00  0.00    +0.000 A 
ATOM     16  N   UNL     1       3.768   7.364  16.792  0.00  0.00    +0.000 N 
ATOM     17  C   UNL     1       3.054   6.177  18.801  0.00  0.00    +0.000 A 
ATOM     18  C   UNL     1       3.642   4.930  18.467  0.00  0.00    +0.000 A 
ATOM     19  C   UNL     1       3.493   3.822  19.303  0.00  0.00    +0.000 A 
ATOM     20  H   UNL     1       3.709   8.318  16.443  0.00  0.00    +0.000 HD
ATOM     21  H   UNL     1       4.732   7.058  16.873  0.00  0.00    +0.000 HD
ENDROOT
BRANCH  10  22
ATOM     22  C   UNL     1      -3.040  12.223  20.998  0.00  0.00    +0.000 C 
ATOM     23  C   UNL     1      -4.448  12.568  20.460  0.00  0.00    +0.000 C 
ATOM     24  C   UNL     1      -5.412  12.720  21.607  0.00  0.00    +0.000 A 
ATOM     25  C   UNL     1      -6.731  12.262  21.553  0.00  0.00    +0.000 A 
ATOM     26  C   UNL     1      -7.579  12.463  22.642  0.00  0.00    +0.000 A 
ATOM     27  C   UNL     1      -7.114  13.127  23.778  0.00  0.00    +0.000 A 
ATOM     28  C   UNL     1      -5.802  13.602  23.828  0.00  0.00    +0.000 A 
ATOM     29  C   UNL     1      -4.943  13.398  22.744  0.00  0.00    +0.000 A 
ATOM     30  C   UNL     1      -3.552  13.973  22.692  0.00  0.00    +0.000 C 
ATOM     31  N   UNL     1      -2.548  13.053  22.137  0.00  0.00    +0.000 NA
ATOM     32  H   UNL     1      -2.255  12.429  22.884  0.00  0.00    +0.000 HD
ENDBRANCH  10  22
BRANCH   1  34
ATOM     33  C   UNL     1       1.222   2.535  21.579  0.00  0.00    +0.000 C 
ATOM     34  O   UNL     1       2.578   2.860  21.280  0.00  0.00    +0.000 OA
ENDBRANCH   1  34
BRANCH  19  35
ATOM     35  O   UNL     1       4.016   2.585  19.046  0.00  0.00    +0.000 OA
ATOM     36  C   UNL     1       3.314   1.754  18.131  0.00  0.00    +0.000 C 
ENDBRANCH  19  35
TORSDOF 3
ENDMDL
MODEL 2
REMARK VINA RESULT:      -7.7      3.631      5.602
REMARK  Name = 
REMARK  5 active torsions:
REMARK  status: ('A' for Active; 'I' for Inactive)
REMARK    1  A    between atoms: C_1  and  O_2
REMARK    2  A    between atoms: O_2  and  C_3
REMARK    3  A    between atoms: C_12  and  C_14
REMARK    4  A    between atoms: C_31  and  O_32
REMARK    5  A    between atoms: O_32  and  C_33
REMARK                            x       y       z     vdW  Elec       q    Type
REMARK                         _______ _______ _______ _____ _____    ______ ____
ROOT
ATOM      1  C   UNL     1       5.293   6.045  16.537  0.00  0.00    +0.000 A 
ATOM      2  C   UNL     1       4.276   6.998  16.674  0.00  0.00    +0.000 A 
ATOM      3  C   UNL     1       3.471   7.054  17.798  0.00  0.00    +0.000 A 
ATOM      4  N   UNL     1       2.565   8.030  17.881  0.00  0.00    +0.000 NA
ATOM      5  C   UNL     1       1.796   8.118  18.975  0.00  0.00    +0.000 A 
ATOM      6  N   UNL     1       0.855   9.119  19.018  0.00  0.00    +0.000 N 
ATOM      7  C   UNL     1       0.017   9.322  20.206  0.00  0.00    +0.000 C 
ATOM      8  C   UNL     1       0.391  10.626  20.943  0.00  0.00    +0.000 C 
ATOM      9  N   UNL     1       0.493  11.770  20.022  0.00  0.00    +0.000 N 
ATOM     10  C   UNL     1      -0.241  12.925  20.268  0.00  0.00    +0.000 C 
ATOM     11  O   UNL     1      -0.966  13.013  21.265  0.00  0.00    +0.000 OA
ATOM     12  C   UNL     1       1.391  11.528  18.886  0.00  0.00    +0.000 C 
ATOM     13  C   UNL     1       0.973  10.264  18.111  0.00  0.00    +0.000 C 
ATOM     14  N   UNL     1       1.896   7.250  19.990  0.00  0.00    +0.000 NA
ATOM     15  C   UNL     1       2.801   6.264  19.891  0.00  0.00    +0.000 A 
ATOM     16  N   UNL     1       2.875   5.411  21.003  0.00  0.00    +0.000 N 
ATOM     17  C   UNL     1       3.654   6.108  18.799  0.00  0.00    +0.000 A 
ATOM     18  C   UNL     1       4.645   5.103  18.655  0.00  0.00    +0.000 A 
ATOM     19  C   UNL     1       5.464   5.064  17.525  0.00  0.00    +0.000 A 
ATOM     20  H   UNL     1       2.137   5.695  21.644  0.00  0.00    +0.000 HD
ATOM     21  H   UNL     1       2.779   4.438  20.735  0.00  0.00    +0.000 HD
ENDROOT
BRANCH  10  22
ATOM     22  C   UNL     1      -0.134  14.106  19.266  0.00  0.00    +0.000 C 
ATOM     23  C   UNL     1       1.242  14.797  19.407  0.00  0.00    +0.000 C 
ATOM     24  C   UNL     1       1.268  16.058  18.584  0.00  0.00    +0.000 A 
ATOM     25  C   UNL     1       2.392  16.467  17.863  0.00  0.00    +0.000 A 
ATOM     26  C   UNL     1       2.357  17.663  17.146  0.00  0.00    +0.000 A 
ATOM     27  C   UNL     1       1.206  18.452  17.156  0.00  0.00    +0.000 A 
ATOM     28  C   UNL     1       0.088  18.055  17.890  0.00  0.00    +0.000 A 
ATOM     29  C   UNL     1       0.111  16.854  18.606  0.00  0.00    +0.000 A 
ATOM     30  C   UNL     1      -1.021  16.419  19.499  0.00  0.00    +0.000 C 
ATOM     31  N   UNL     1      -1.332  14.985  19.410  0.00  0.00    +0.000 NA
ATOM     32  H   UNL     1      -1.928  14.848  18.598  0.00  0.00    +0.000 HD
ENDBRANCH  10  22
BRANCH   1  34
ATOM     33  C   UNL     1       5.780   5.035  14.462  0.00  0.00    +0.000 C 
ATOM     34  O   UNL     1       6.125   6.011  15.442  0.00  0.00    +0.000 OA
ENDBRANCH   1  34
BRANCH  19  35
ATOM     35  O   UNL     1       6.449   4.138  17.318  0.00  0.00    +0.000 OA
ATOM     36  C   UNL     1       7.761   4.468  17.754  0.00  0.00    +0.000 C 
ENDBRANCH  19  35
TORSDOF 3
ENDMDL
MODEL 3
REMARK VINA RESULT:      -7.1      6.585     11.438
REMARK  Name = 
REMARK  5 active torsions:
REMARK  status: ('A' for Active; 'I' for Inactive)
REMARK    1  A    between atoms: C_1  and  O_2
REMARK    2  A    between atoms: O_2  and  C_3
REMARK    3  A    between atoms: C_12  and  C_14
REMARK    4  A    between atoms: C_31  and  O_32
REMARK    5  A    between atoms: O_32  and  C_33
REMARK                            x       y       z     vdW  Elec       q    Type
REMARK                         _______ _______ _______ _____ _____    ______ ____
ROOT
ATOM      1  C   UNL     1      -0.550  11.357  21.885  0.00  0.00    +0.000 A 
ATOM      2  C   UNL     1       0.407  11.899  21.020  0.00  0.00    +0.000 A 
ATOM      3  C   UNL     1       0.665  13.257  20.970  0.00  0.00    +0.000 A 
ATOM      4  N   UNL     1       1.636  13.690  20.164  0.00  0.00    +0.000 NA
ATOM      5  C   UNL     1       1.919  14.999  20.124  0.00  0.00    +0.000 A 
ATOM      6  N   UNL     1       2.908  15.415  19.264  0.00  0.00    +0.000 N 
ATOM      7  C   UNL     1       3.321  16.822  19.207  0.00  0.00    +0.000 C 
ATOM      8  C   UNL     1       4.739  17.017  19.786  0.00  0.00    +0.000 C 
ATOM      9  N   UNL     1       5.697  16.041  19.240  0.00  0.00    +0.000 N 
ATOM     10  C   UNL     1       6.874  16.482  18.648  0.00  0.00    +0.000 C 
ATOM     11  O   UNL     1       7.140  17.688  18.591  0.00  0.00    +0.000 OA
ATOM     12  C   UNL     1       5.255  14.647  19.380  0.00  0.00    +0.000 C 
ATOM     13  C   UNL     1       3.870  14.441  18.739  0.00  0.00    +0.000 C 
ATOM     14  N   UNL     1       1.251  15.897  20.859  0.00  0.00    +0.000 NA
ATOM     15  C   UNL     1       0.267  15.454  21.656  0.00  0.00    +0.000 A 
ATOM     16  N   UNL     1      -0.369  16.443  22.421  0.00  0.00    +0.000 N 
ATOM     17  C   UNL     1      -0.082  14.108  21.774  0.00  0.00    +0.000 A 
ATOM     18  C   UNL     1      -1.093  13.583  22.619  0.00  0.00    +0.000 A 
ATOM     19  C   UNL     1      -1.335  12.209  22.676  0.00  0.00    +0.000 A 
ATOM     20  H   UNL     1       0.025  17.338  22.137  0.00  0.00    +0.000 HD
ATOM     21  H   UNL     1      -1.375  16.423  22.297  0.00  0.00    +0.000 HD
ENDROOT
BRANCH  10  22
ATOM     22  C   UNL     1       7.853  15.432  18.058  0.00  0.00    +0.000 C 
ATOM     23  C   UNL     1       8.354  14.489  19.177  0.00  0.00    +0.000 C 
ATOM     24  C   UNL     1       9.452  13.604  18.646  0.00  0.00    +0.000 A 
ATOM     25  C   UNL     1       9.576  12.259  19.001  0.00  0.00    +0.000 A 
ATOM     26  C   UNL     1      10.636  11.504  18.495  0.00  0.00    +0.000 A 
ATOM     27  C   UNL     1      11.572  12.095  17.645  0.00  0.00    +0.000 A 
ATOM     28  C   UNL     1      11.460  13.443  17.304  0.00  0.00    +0.000 A 
ATOM     29  C   UNL     1      10.398  14.205  17.800  0.00  0.00    +0.000 A 
ATOM     30  C   UNL     1      10.277  15.686  17.554  0.00  0.00    +0.000 C 
ATOM     31  N   UNL     1       8.906  16.131  17.264  0.00  0.00    +0.000 NA
ATOM     32  H   UNL     1       8.728  15.959  16.277  0.00  0.00    +0.000 HD
ENDBRANCH  10  22
BRANCH   1  34
ATOM     33  C   UNL     1       0.306   9.248  22.502  0.00  0.00    +0.000 C 
ATOM     34  O   UNL     1      -0.780  10.003  21.971  0.00  0.00    +0.000 OA
ENDBRANCH   1  34
BRANCH  19  35
ATOM     35  O   UNL     1      -2.280  11.624  23.473  0.00  0.00    +0.000 OA
ATOM     36  C   UNL     1      -3.396  12.416  23.854  0.00  0.00    +0.000 C 
ENDBRANCH  19  35
TORSDOF 3
ENDMDL
MODEL 4
REMARK VINA RESULT:      -7.0      6.318     11.602
REMARK  Name = 
REMARK  5 active torsions:
REMARK  status: ('A' for Active; 'I' for Inactive)
REMARK    1  A    between atoms: C_1  and  O_2
REMARK    2  A    between atoms: O_2  and  C_3
REMARK    3  A    between atoms: C_12  and  C_14
REMARK    4  A    between atoms: C_31  and  O_32
REMARK    5  A    between atoms: O_32  and  C_33
REMARK                            x       y       z     vdW  Elec       q    Type
REMARK                         _______ _______ _______ _____ _____    ______ ____
ROOT
ATOM      1  C   UNL     1      -1.840  12.064  19.198  0.00  0.00    +0.000 A 
ATOM      2  C   UNL     1      -0.647  12.605  18.707  0.00  0.00    +0.000 A 
ATOM      3  C   UNL     1      -0.189  13.849  19.103  0.00  0.00    +0.000 A 
ATOM      4  N   UNL     1       0.989  14.270  18.638  0.00  0.00    +0.000 NA
ATOM      5  C   UNL     1       1.462  15.459  19.033  0.00  0.00    +0.000 A 
ATOM      6  N   UNL     1       2.666  15.874  18.515  0.00  0.00    +0.000 N 
ATOM      7  C   UNL     1       3.283  17.134  18.945  0.00  0.00    +0.000 C 
ATOM      8  C   UNL     1       4.551  16.882  19.789  0.00  0.00    +0.000 C 
ATOM      9  N   UNL     1       5.452  15.907  19.152  0.00  0.00    +0.000 N 
ATOM     10  C   UNL     1       6.783  16.238  18.926  0.00  0.00    +0.000 C 
ATOM     11  O   UNL     1       7.228  17.339  19.271  0.00  0.00    +0.000 OA
ATOM     12  C   UNL     1       4.791  14.644  18.799  0.00  0.00    +0.000 C 
ATOM     13  C   UNL     1       3.567  14.895  17.899  0.00  0.00    +0.000 C 
ATOM     14  N   UNL     1       0.787  16.252  19.874  0.00  0.00    +0.000 NA
ATOM     15  C   UNL     1      -0.403  15.827  20.326  0.00  0.00    +0.000 A 
ATOM     16  N   UNL     1      -1.040  16.692  21.228  0.00  0.00    +0.000 N 
ATOM     17  C   UNL     1      -0.962  14.596  19.982  0.00  0.00    +0.000 A 
ATOM     18  C   UNL     1      -2.200  14.086  20.451  0.00  0.00    +0.000 A 
ATOM     19  C   UNL     1      -2.647  12.823  20.059  0.00  0.00    +0.000 A 
ATOM     20  H   UNL     1      -0.466  17.531  21.291  0.00  0.00    +0.000 HD
ATOM     21  H   UNL     1      -1.985  16.910  20.934  0.00  0.00    +0.000 HD
ENDROOT
BRANCH  10  22
ATOM     22  C   UNL     1       7.703  15.201  18.229  0.00  0.00    +0.000 C 
ATOM     23  C   UNL     1       8.206  14.163  19.259  0.00  0.00    +0.000 C 
ATOM     24  C   UNL     1       9.253  13.282  18.630  0.00  0.00    +0.000 A 
ATOM     25  C   UNL     1       9.340  11.911  18.884  0.00  0.00    +0.000 A 
ATOM     26  C   UNL     1      10.354  11.160  18.289  0.00  0.00    +0.000 A 
ATOM     27  C   UNL     1      11.283  11.778  17.451  0.00  0.00    +0.000 A 
ATOM     28  C   UNL     1      11.210  13.150  17.210  0.00  0.00    +0.000 A 
ATOM     29  C   UNL     1      10.192  13.910  17.796  0.00  0.00    +0.000 A 
ATOM     30  C   UNL     1      10.117  15.408  17.659  0.00  0.00    +0.000 C 
ATOM     31  N   UNL     1       8.755  15.919  17.449  0.00  0.00    +0.000 NA
ATOM     32  H   UNL     1       8.539  15.825  16.460  0.00  0.00    +0.000 HD
ENDBRANCH  10  22
BRANCH   1  34
ATOM     33  C   UNL     1      -1.436  10.123  17.919  0.00  0.00    +0.000 C 
ATOM     34  O   UNL     1      -2.279  10.809  18.842  0.00  0.00    +0.000 OA
ENDBRANCH   1  34
BRANCH  19  35
ATOM     35  O   UNL     1      -3.819  12.256  20.476  0.00  0.00    +0.000 OA
ATOM     36  C   UNL     1      -4.850  13.130  20.915  0.00  0.00    +0.000 C 
ENDBRANCH  19  35
TORSDOF 3
ENDMDL
MODEL 5
REMARK VINA RESULT:      -7.0      2.654     10.409
REMARK  Name = 
REMARK  5 active torsions:
REMARK  status: ('A' for Active; 'I' for Inactive)
REMARK    1  A    between atoms: C_1  and  O_2
REMARK    2  A    between atoms: O_2  and  C_3
REMARK    3  A    between atoms: C_12  and  C_14
REMARK    4  A    between atoms: C_31  and  O_32
REMARK    5  A    between atoms: O_32  and  C_33
REMARK                            x       y       z     vdW  Elec       q    Type
REMARK                         _______ _______ _______ _____ _____    ______ ____
ROOT
ATOM      1  C   UNL     1      -5.583  13.294  23.043  0.00  0.00    +0.000 A 
ATOM      2  C   UNL     1      -4.809  12.631  22.084  0.00  0.00    +0.000 A 
ATOM      3  C   UNL     1      -3.784  13.265  21.404  0.00  0.00    +0.000 A 
ATOM      4  N   UNL     1      -3.051  12.548  20.549  0.00  0.00    +0.000 NA
ATOM      5  C   UNL     1      -2.036  13.138  19.903  0.00  0.00    +0.000 A 
ATOM      6  N   UNL     1      -1.317  12.378  19.010  0.00  0.00    +0.000 N 
ATOM      7  C   UNL     1      -0.152  12.931  18.310  0.00  0.00    +0.000 C 
ATOM      8  C   UNL     1       1.161  12.292  18.809  0.00  0.00    +0.000 C 
ATOM      9  N   UNL     1       1.075  10.823  18.858  0.00  0.00    +0.000 N 
ATOM     10  C   UNL     1       2.026  10.051  18.200  0.00  0.00    +0.000 C 
ATOM     11  O   UNL     1       2.957  10.583  17.586  0.00  0.00    +0.000 OA
ATOM     12  C   UNL     1      -0.077  10.330  19.624  0.00  0.00    +0.000 C 
ATOM     13  C   UNL     1      -1.393  10.916  19.078  0.00  0.00    +0.000 C 
ATOM     14  N   UNL     1      -1.736  14.431  20.074  0.00  0.00    +0.000 NA
ATOM     15  C   UNL     1      -2.487  15.147  20.925  0.00  0.00    +0.000 A 
ATOM     16  N   UNL     1      -2.097  16.486  21.081  0.00  0.00    +0.000 N 
ATOM     17  C   UNL     1      -3.549  14.611  21.653  0.00  0.00    +0.000 A 
ATOM     18  C   UNL     1      -4.357  15.313  22.584  0.00  0.00    +0.000 A 
ATOM     19  C   UNL     1      -5.378  14.662  23.278  0.00  0.00    +0.000 A 
ATOM     20  H   UNL     1      -1.335  16.651  20.426  0.00  0.00    +0.000 HD
ATOM     21  H   UNL     1      -2.870  17.122  20.920  0.00  0.00    +0.000 HD
ENDROOT
BRANCH  10  22
ATOM     22  C   UNL     1       1.896   8.505  18.247  0.00  0.00    +0.000 C 
ATOM     23  C   UNL     1       2.135   7.998  19.688  0.00  0.00    +0.000 C 
ATOM     24  C   UNL     1       2.210   6.494  19.696  0.00  0.00    +0.000 A 
ATOM     25  C   UNL     1       1.654   5.714  20.713  0.00  0.00    +0.000 A 
ATOM     26  C   UNL     1       1.785   4.326  20.672  0.00  0.00    +0.000 A 
ATOM     27  C   UNL     1       2.478   3.719  19.624  0.00  0.00    +0.000 A 
ATOM     28  C   UNL     1       3.050   4.497  18.616  0.00  0.00    +0.000 A 
ATOM     29  C   UNL     1       2.916   5.888  18.644  0.00  0.00    +0.000 A 
ATOM     30  C   UNL     1       3.595   6.789  17.646  0.00  0.00    +0.000 C 
ATOM     31  N   UNL     1       2.756   7.904  17.185  0.00  0.00    +0.000 NA
ATOM     32  H   UNL     1       2.152   7.553  16.447  0.00  0.00    +0.000 HD
ENDBRANCH  10  22
BRANCH   1  34
ATOM     33  C   UNL     1      -7.738  12.337  22.997  0.00  0.00    +0.000 C 
ATOM     34  O   UNL     1      -6.574  12.658  23.755  0.00  0.00    +0.000 OA
ENDBRANCH   1  34
BRANCH  19  35
ATOM     35  O   UNL     1      -6.190  15.264  24.200  0.00  0.00    +0.000 OA
ATOM     36  C   UNL     1      -6.556  16.617  23.966  0.00  0.00    +0.000 C 
ENDBRANCH  19  35
TORSDOF 3
ENDMDL
MODEL 6
REMARK VINA RESULT:      -7.0      3.696      5.536
REMARK  Name = 
REMARK  5 active torsions:
REMARK  status: ('A' for Active; 'I' for Inactive)
REMARK    1  A    between atoms: C_1  and  O_2
REMARK    2  A    between atoms: O_2  and  C_3
REMARK    3  A    between atoms: C_12  and  C_14
REMARK    4  A    between atoms: C_31  and  O_32
REMARK    5  A    between atoms: O_32  and  C_33
REMARK                            x       y       z     vdW  Elec       q    Type
REMARK                         _______ _______ _______ _____ _____    ______ ____
ROOT
ATOM      1  C   UNL     1       4.769   6.648  16.866  0.00  0.00    +0.000 A 
ATOM      2  C   UNL     1       3.911   7.726  17.111  0.00  0.00    +0.000 A 
ATOM      3  C   UNL     1       3.030   7.734  18.178  0.00  0.00    +0.000 A 
ATOM      4  N   UNL     1       2.289   8.825  18.381  0.00  0.00    +0.000 NA
ATOM      5  C   UNL     1       1.451   8.862  19.426  0.00  0.00    +0.000 A 
ATOM      6  N   UNL     1       0.683   9.990  19.592  0.00  0.00    +0.000 N 
ATOM      7  C   UNL     1      -0.212  10.136  20.746  0.00  0.00    +0.000 C 
ATOM      8  C   UNL     1       0.301  11.213  21.725  0.00  0.00    +0.000 C 
ATOM      9  N   UNL     1       0.666  12.459  21.031  0.00  0.00    +0.000 N 
ATOM     10  C   UNL     1       0.110  13.667  21.436  0.00  0.00    +0.000 C 
ATOM     11  O   UNL     1      -0.677  13.712  22.389  0.00  0.00    +0.000 OA
ATOM     12  C   UNL     1       1.611  12.257  19.924  0.00  0.00    +0.000 C 
ATOM     13  C   UNL     1       1.064  11.232  18.913  0.00  0.00    +0.000 C 
ATOM     14  N   UNL     1       1.320   7.833  20.273  0.00  0.00    +0.000 NA
ATOM     15  C   UNL     1       2.060   6.735  20.053  0.00  0.00    +0.000 A 
ATOM     16  N   UNL     1       1.897   5.710  20.996  0.00  0.00    +0.000 N 
ATOM     17  C   UNL     1       2.969   6.618  19.002  0.00  0.00    +0.000 A 
ATOM     18  C   UNL     1       3.795   5.494  18.739  0.00  0.00    +0.000 A 
ATOM     19  C   UNL     1       4.693   5.501  17.670  0.00  0.00    +0.000 A 
ATOM     20  H   UNL     1       1.161   6.007  21.634  0.00  0.00    +0.000 HD
ATOM     21  H   UNL     1       1.670   4.827  20.553  0.00  0.00    +0.000 HD
ENDROOT
BRANCH  10  22
ATOM     22  C   UNL     1       0.493  14.961  20.670  0.00  0.00    +0.000 C 
ATOM     23  C   UNL     1      -0.389  15.110  19.409  0.00  0.00    +0.000 C 
ATOM     24  C   UNL     1       0.115  16.249  18.562  0.00  0.00    +0.000 A 
ATOM     25  C   UNL     1      -0.738  17.130  17.893  0.00  0.00    +0.000 A 
ATOM     26  C   UNL     1      -0.202  18.146  17.102  0.00  0.00    +0.000 A 
ATOM     27  C   UNL     1       1.181  18.276  16.972  0.00  0.00    +0.000 A 
ATOM     28  C   UNL     1       2.036  17.386  17.625  0.00  0.00    +0.000 A 
ATOM     29  C   UNL     1       1.508  16.370  18.426  0.00  0.00    +0.000 A 
ATOM     30  C   UNL     1       2.369  15.317  19.073  0.00  0.00    +0.000 C 
ATOM     31  N   UNL     1       1.969  14.985  20.448  0.00  0.00    +0.000 NA
ATOM     32  H   UNL     1       2.373  15.685  21.065  0.00  0.00    +0.000 HD
ENDBRANCH  10  22
BRANCH   1  34
ATOM     33  C   UNL     1       5.416   5.700  14.805  0.00  0.00    +0.000 C 
ATOM     34  O   UNL     1       5.678   6.653  15.833  0.00  0.00    +0.000 OA
ENDBRANCH   1  34
BRANCH  19  35
ATOM     35  O   UNL     1       5.530   4.465  17.359  0.00  0.00    +0.000 OA
ATOM     36  C   UNL     1       6.810   4.451  17.975  0.00  0.00    +0.000 C 
ENDBRANCH  19  35
TORSDOF 3
ENDMDL
MODEL 7
REMARK VINA RESULT:      -6.9      7.006     11.452
REMARK  Name = 
REMARK  5 active torsions:
REMARK  status: ('A' for Active; 'I' for Inactive)
REMARK    1  A    between atoms: C_1  and  O_2
REMARK    2  A    between atoms: O_2  and  C_3
REMARK    3  A    between atoms: C_12  and  C_14
REMARK    4  A    between atoms: C_31  and  O_32
REMARK    5  A    between atoms: O_32  and  C_33
REMARK                            x       y       z     vdW  Elec       q    Type
REMARK                         _______ _______ _______ _____ _____    ______ ____
ROOT
ATOM      1  C   UNL     1       0.527  11.039  18.655  0.00  0.00    +0.000 A 
ATOM      2  C   UNL     1       1.754  11.673  18.421  0.00  0.00    +0.000 A 
ATOM      3  C   UNL     1       1.898  13.046  18.508  0.00  0.00    +0.000 A 
ATOM      4  N   UNL     1       3.113  13.570  18.332  0.00  0.00    +0.000 NA
ATOM      5  C   UNL     1       3.276  14.895  18.441  0.00  0.00    +0.000 A 
ATOM      6  N   UNL     1       4.536  15.404  18.229  0.00  0.00    +0.000 N 
ATOM      7  C   UNL     1       4.812  16.836  18.392  0.00  0.00    +0.000 C 
ATOM      8  C   UNL     1       5.695  17.103  19.629  0.00  0.00    +0.000 C 
ATOM      9  N   UNL     1       6.865  16.211  19.674  0.00  0.00    +0.000 N 
ATOM     10  C   UNL     1       8.142  16.749  19.789  0.00  0.00    +0.000 C 
ATOM     11  O   UNL     1       8.308  17.971  19.874  0.00  0.00    +0.000 OA
ATOM     12  C   UNL     1       6.520  14.788  19.567  0.00  0.00    +0.000 C 
ATOM     13  C   UNL     1       5.698  14.514  18.294  0.00  0.00    +0.000 C 
ATOM     14  N   UNL     1       2.257  15.720  18.710  0.00  0.00    +0.000 NA
ATOM     15  C   UNL     1       1.037  15.186  18.872  0.00  0.00    +0.000 A 
ATOM     16  N   UNL     1       0.023  16.104  19.183  0.00  0.00    +0.000 N 
ATOM     17  C   UNL     1       0.779  13.818  18.794  0.00  0.00    +0.000 A 
ATOM     18  C   UNL     1      -0.483  13.198  18.983  0.00  0.00    +0.000 A 
ATOM     19  C   UNL     1      -0.616  11.810  18.911  0.00  0.00    +0.000 A 
ATOM     20  H   UNL     1       0.440  17.032  19.144  0.00  0.00    +0.000 HD
ATOM     21  H   UNL     1      -0.763  16.024  18.547  0.00  0.00    +0.000 HD
ENDROOT
BRANCH  10  22
ATOM     22  C   UNL     1       9.359  15.786  19.808  0.00  0.00    +0.000 C 
ATOM     23  C   UNL     1       9.251  14.774  18.644  0.00  0.00    +0.000 C 
ATOM     24  C   UNL     1      10.318  13.720  18.782  0.00  0.00    +0.000 A 
ATOM     25  C   UNL     1      11.011  13.198  17.687  0.00  0.00    +0.000 A 
ATOM     26  C   UNL     1      11.967  12.201  17.883  0.00  0.00    +0.000 A 
ATOM     27  C   UNL     1      12.224  11.721  19.168  0.00  0.00    +0.000 A 
ATOM     28  C   UNL     1      11.520  12.228  20.262  0.00  0.00    +0.000 A 
ATOM     29  C   UNL     1      10.566  13.233  20.075  0.00  0.00    +0.000 A 
ATOM     30  C   UNL     1       9.701  13.749  21.195  0.00  0.00    +0.000 C 
ATOM     31  N   UNL     1       9.509  15.206  21.175  0.00  0.00    +0.000 NA
ATOM     32  H   UNL     1      10.321  15.631  21.615  0.00  0.00    +0.000 HD
ENDBRANCH  10  22
BRANCH   1  34
ATOM     33  C   UNL     1       1.547   8.967  18.174  0.00  0.00    +0.000 C 
ATOM     34  O   UNL     1       0.388   9.672  18.613  0.00  0.00    +0.000 OA
ENDBRANCH   1  34
BRANCH  19  35
ATOM     35  O   UNL     1      -1.793  11.137  19.094  0.00  0.00    +0.000 OA
ATOM     36  C   UNL     1      -2.827  11.357  18.145  0.00  0.00    +0.000 C 
ENDBRANCH  19  35
TORSDOF 3
ENDMDL
MODEL 8
REMARK VINA RESULT:      -6.9      3.041      4.624
REMARK  Name = 
REMARK  5 active torsions:
REMARK  status: ('A' for Active; 'I' for Inactive)
REMARK    1  A    between atoms: C_1  and  O_2
REMARK    2  A    between atoms: O_2  and  C_3
REMARK    3  A    between atoms: C_12  and  C_14
REMARK    4  A    between atoms: C_31  and  O_32
REMARK    5  A    between atoms: O_32  and  C_33
REMARK                            x       y       z     vdW  Elec       q    Type
REMARK                         _______ _______ _______ _____ _____    ______ ____
ROOT
ATOM      1  C   UNL     1       4.953   6.396  17.128  0.00  0.00    +0.000 A 
ATOM      2  C   UNL     1       3.927   7.273  17.501  0.00  0.00    +0.000 A 
ATOM      3  C   UNL     1       3.135   7.043  18.611  0.00  0.00    +0.000 A 
ATOM      4  N   UNL     1       2.218   7.956  18.937  0.00  0.00    +0.000 NA
ATOM      5  C   UNL     1       1.461   7.764  20.026  0.00  0.00    +0.000 A 
ATOM      6  N   UNL     1       0.509   8.712  20.319  0.00  0.00    +0.000 N 
ATOM      7  C   UNL     1      -0.317   8.608  21.527  0.00  0.00    +0.000 C 
ATOM      8  C   UNL     1       0.050   9.698  22.557  0.00  0.00    +0.000 C 
ATOM      9  N   UNL     1       0.128  11.033  21.941  0.00  0.00    +0.000 N 
ATOM     10  C   UNL     1      -0.616  12.083  22.468  0.00  0.00    +0.000 C 
ATOM     11  O   UNL     1      -1.331  11.915  23.462  0.00  0.00    +0.000 OA
ATOM     12  C   UNL     1       1.016  11.088  20.773  0.00  0.00    +0.000 C 
ATOM     13  C   UNL     1       0.604  10.045  19.717  0.00  0.00    +0.000 C 
ATOM     14  N   UNL     1       1.582   6.677  20.797  0.00  0.00    +0.000 NA
ATOM     15  C   UNL     1       2.497   5.757  20.454  0.00  0.00    +0.000 A 
ATOM     16  N   UNL     1       2.593   4.661  21.323  0.00  0.00    +0.000 N 
ATOM     17  C   UNL     1       3.340   5.884  19.349  0.00  0.00    +0.000 A 
ATOM     18  C   UNL     1       4.341   4.958  18.957  0.00  0.00    +0.000 A 
ATOM     19  C   UNL     1       5.147   5.206  17.845  0.00  0.00    +0.000 A 
ATOM     20  H   UNL     1       1.860   4.770  22.021  0.00  0.00    +0.000 HD
ATOM     21  H   UNL     1       2.505   3.781  20.827  0.00  0.00    +0.000 HD
ENDROOT
BRANCH  10  22
ATOM     22  C   UNL     1      -0.534  13.474  21.783  0.00  0.00    +0.000 C 
ATOM     23  C   UNL     1      -0.656  14.593  22.842  0.00  0.00    +0.000 C 
ATOM     24  C   UNL     1      -0.780  15.931  22.162  0.00  0.00    +0.000 A 
ATOM     25  C   UNL     1      -0.158  17.086  22.644  0.00  0.00    +0.000 A 
ATOM     26  C   UNL     1      -0.340  18.299  21.980  0.00  0.00    +0.000 A 
ATOM     27  C   UNL     1      -1.146  18.361  20.843  0.00  0.00    +0.000 A 
ATOM     28  C   UNL     1      -1.783  17.212  20.369  0.00  0.00    +0.000 A 
ATOM     29  C   UNL     1      -1.600  15.990  21.024  0.00  0.00    +0.000 A 
ATOM     30  C   UNL     1      -2.338  14.739  20.626  0.00  0.00    +0.000 C 
ATOM     31  N   UNL     1      -1.508  13.526  20.653  0.00  0.00    +0.000 NA
ATOM     32  H   UNL     1      -0.988  13.488  19.780  0.00  0.00    +0.000 HD
ENDBRANCH  10  22
BRANCH   1  34
ATOM     33  C   UNL     1       5.502   5.843  14.901  0.00  0.00    +0.000 C 
ATOM     34  O   UNL     1       5.773   6.642  16.051  0.00  0.00    +0.000 OA
ENDBRANCH   1  34
BRANCH  19  35
ATOM     35  O   UNL     1       6.140   4.372  17.410  0.00  0.00    +0.000 OA
ATOM     36  C   UNL     1       7.464   4.646  17.849  0.00  0.00    +0.000 C 
ENDBRANCH  19  35
TORSDOF 3
ENDMDL
MODEL 9
REMARK VINA RESULT:      -6.9      6.896     11.754
REMARK  Name = 
REMARK  5 active torsions:
REMARK  status: ('A' for Active; 'I' for Inactive)
REMARK    1  A    between atoms: C_1  and  O_2
REMARK    2  A    between atoms: O_2  and  C_3
REMARK    3  A    between atoms: C_12  and  C_14
REMARK    4  A    between atoms: C_31  and  O_32
REMARK    5  A    between atoms: O_32  and  C_33
REMARK                            x       y       z     vdW  Elec       q    Type
REMARK                         _______ _______ _______ _____ _____    ______ ____
ROOT
ATOM      1  C   UNL     1      -0.941  11.895  19.685  0.00  0.00    +0.000 A 
ATOM      2  C   UNL     1       0.268  12.321  19.123  0.00  0.00    +0.000 A 
ATOM      3  C   UNL     1       0.610  13.659  19.045  0.00  0.00    +0.000 A 
ATOM      4  N   UNL     1       1.807  13.982  18.551  0.00  0.00    +0.000 NA
ATOM      5  C   UNL     1       2.166  15.271  18.496  0.00  0.00    +0.000 A 
ATOM      6  N   UNL     1       3.396  15.571  17.958  0.00  0.00    +0.000 N 
ATOM      7  C   UNL     1       3.890  16.952  17.919  0.00  0.00    +0.000 C 
ATOM      8  C   UNL     1       5.068  17.157  18.894  0.00  0.00    +0.000 C 
ATOM      9  N   UNL     1       6.087  16.103  18.758  0.00  0.00    +0.000 N 
ATOM     10  C   UNL     1       7.414  16.448  18.531  0.00  0.00    +0.000 C 
ATOM     11  O   UNL     1       7.756  17.634  18.461  0.00  0.00    +0.000 OA
ATOM     12  C   UNL     1       5.541  14.744  18.866  0.00  0.00    +0.000 C 
ATOM     13  C   UNL     1       4.412  14.521  17.842  0.00  0.00    +0.000 C 
ATOM     14  N   UNL     1       1.359  16.256  18.908  0.00  0.00    +0.000 NA
ATOM     15  C   UNL     1       0.151  15.923  19.391  0.00  0.00    +0.000 A 
ATOM     16  N   UNL     1      -0.629  17.001  19.835  0.00  0.00    +0.000 N 
ATOM     17  C   UNL     1      -0.297  14.607  19.502  0.00  0.00    +0.000 A 
ATOM     18  C   UNL     1      -1.549  14.198  20.029  0.00  0.00    +0.000 A 
ATOM     19  C   UNL     1      -1.879  12.844  20.119  0.00  0.00    +0.000 A 
ATOM     20  H   UNL     1      -0.114  17.851  19.616  0.00  0.00    +0.000 HD
ATOM     21  H   UNL     1      -1.546  17.001  19.403  0.00  0.00    +0.000 HD
ENDROOT
BRANCH  10  22
ATOM     22  C   UNL     1       8.463  15.315  18.365  0.00  0.00    +0.000 C 
ATOM     23  C   UNL     1       8.939  14.828  19.753  0.00  0.00    +0.000 C 
ATOM     24  C   UNL     1      10.096  13.877  19.592  0.00  0.00    +0.000 A 
ATOM     25  C   UNL     1      10.253  12.736  20.382  0.00  0.00    +0.000 A 
ATOM     26  C   UNL     1      11.365  11.914  20.199  0.00  0.00    +0.000 A 
ATOM     27  C   UNL     1      12.323  12.237  19.236  0.00  0.00    +0.000 A 
ATOM     28  C   UNL     1      12.178  13.386  18.458  0.00  0.00    +0.000 A 
ATOM     29  C   UNL     1      11.062  14.211  18.629  0.00  0.00    +0.000 A 
ATOM     30  C   UNL     1      10.899  15.517  17.896  0.00  0.00    +0.000 C 
ATOM     31  N   UNL     1       9.530  15.765  17.422  0.00  0.00    +0.000 NA
ATOM     32  H   UNL     1       9.411  15.265  16.544  0.00  0.00    +0.000 HD
ENDBRANCH  10  22
BRANCH   1  34
ATOM     33  C   UNL     1      -0.158   9.698  20.034  0.00  0.00    +0.000 C 
ATOM     34  O   UNL     1      -1.267  10.564  19.805  0.00  0.00    +0.000 OA
ENDBRANCH   1  34
BRANCH  19  35
ATOM     35  O   UNL     1      -3.057  12.369  20.625  0.00  0.00    +0.000 OA
ATOM     36  C   UNL     1      -4.230  12.566  19.848  0.00  0.00    +0.000 C 
ENDBRANCH  19  35
TORSDOF 3
ENDMDL
