MODEL 1
REMARK VINA RESULT:      -7.7      0.000      0.000
REMARK  Name = 
REMARK  8 active torsions:
REMARK  status: ('A' for Active; 'I' for Inactive)
REMARK    1  A    between atoms: C_2  and  C_3
REMARK    2  A    between atoms: C_6  and  C_7
REMARK    3  A    between atoms: C_7  and  S_8
REMARK    4  A    between atoms: S_8  and  C_9
REMARK    5  A    between atoms: C_11  and  C_12
REMARK    6  A    between atoms: C_24  and  C_25
REMARK    7  A    between atoms: C_25  and  O_26
REMARK    8  A    between atoms: C_29  and  C_30
REMARK                            x       y       z     vdW  Elec       q    Type
REMARK                         _______ _______ _______ _____ _____    ______ ____
ROOT
ATOM      1  C   UNL     1      -0.565  11.921  19.354  0.00  0.00    +0.000 A 
ATOM      2  N   UNL     1      -0.105  10.665  19.344  0.00  0.00    +0.000 NA
ATOM      3  C   UNL     1       1.180  10.476  19.008  0.00  0.00    +0.000 A 
ATOM      4  N   UNL     1       2.036  11.467  18.712  0.00  0.00    +0.000 NA
ATOM      5  C   UNL     1       1.536  12.719  18.720  0.00  0.00    +0.000 A 
ATOM      6  C   UNL     1       0.222  13.004  19.014  0.00  0.00    +0.000 A 
ATOM      7  C   UNL     1      -0.307  14.390  18.943  0.00  0.00    +0.000 C 
ATOM      8  C   UNL     1       0.737  15.416  18.619  0.00  0.00    +0.000 A 
ATOM      9  C   UNL     1       0.392  16.781  18.554  0.00  0.00    +0.000 A 
ATOM     10  C   UNL     1       1.410  17.682  18.272  0.00  0.00    +0.000 A 
ATOM     11  N   UNL     1       2.695  17.331  18.060  0.00  0.00    +0.000 NA
ATOM     12  C   UNL     1       3.011  16.010  18.122  0.00  0.00    +0.000 A 
ATOM     13  C   UNL     1       4.459  15.683  17.903  0.00  0.00    +0.000 C 
ATOM     14  C   UNL     1       2.059  15.021  18.391  0.00  0.00    +0.000 A 
ATOM     15  O   UNL     1       2.461  13.703  18.420  0.00  0.00    +0.000 OA
ENDROOT
BRANCH   3  16
ATOM     16  C   UNL     1       1.653   9.077  18.994  0.00  0.00    +0.000 A 
ATOM     17  C   UNL     1       1.558   8.267  20.149  0.00  0.00    +0.000 A 
ATOM     18  C   UNL     1       2.018   6.946  20.163  0.00  0.00    +0.000 A 
ATOM     19  C   UNL     1       2.580   6.403  19.013  0.00  0.00    +0.000 A 
ATOM     20 CL   UNL     1       3.157   4.785  19.027  0.00  0.00    +0.000 Cl
ATOM     21  C   UNL     1       2.679   7.170  17.856  0.00  0.00    +0.000 A 
ATOM     22  C   UNL     1       2.216   8.493  17.847  0.00  0.00    +0.000 A 
ENDBRANCH   3  16
BRANCH   1  23
ATOM     23  S   UNL     1      -2.281  12.108  19.828  0.00  0.00    +0.000 S 
BRANCH  23  24
ATOM     24  C   UNL     1      -2.062  12.449  21.602  0.00  0.00    +0.000 C 
BRANCH  24  28
ATOM     25  C   UNL     1      -5.878  12.922  23.606  0.00  0.00    +0.000 A 
ATOM     26  C   UNL     1      -5.743  13.194  22.240  0.00  0.00    +0.000 A 
ATOM     27  C   UNL     1      -4.510  13.048  21.598  0.00  0.00    +0.000 A 
ATOM     28  C   UNL     1      -3.381  12.628  22.311  0.00  0.00    +0.000 A 
ATOM     29  C   UNL     1      -3.504  12.386  23.686  0.00  0.00    +0.000 A 
ATOM     30  C   UNL     1      -4.742  12.536  24.326  0.00  0.00    +0.000 A 
BRANCH  25  32
ATOM     31  C   UNL     1      -7.909  14.192  24.273  0.00  0.00    +0.000 C 
ATOM     32  C   UNL     1      -7.160  13.083  24.310  0.00  0.00    +0.000 C 
ENDBRANCH  25  32
ENDBRANCH  24  28
ENDBRANCH  23  24
ENDBRANCH   1  23
BRANCH   9  33
ATOM     33  C   UNL     1      -1.000  17.282  18.820  0.00  0.00    +0.000 C 
BRANCH  33  34
ATOM     34  O   UNL     1      -1.146  17.670  20.177  0.00  0.00    +0.000 OA
ATOM     35  H   UNL     1      -0.439  18.309  20.375  0.00  0.00    +0.000 HD
ENDBRANCH  33  34
ENDBRANCH   9  33
TORSDOF 7
ENDMDL
MODEL 2
REMARK VINA RESULT:      -7.7      3.611      7.956
REMARK  Name = 
REMARK  8 active torsions:
REMARK  status: ('A' for Active; 'I' for Inactive)
REMARK    1  A    between atoms: C_2  and  C_3
REMARK    2  A    between atoms: C_6  and  C_7
REMARK    3  A    between atoms: C_7  and  S_8
REMARK    4  A    between atoms: S_8  and  C_9
REMARK    5  A    between atoms: C_11  and  C_12
REMARK    6  A    between atoms: C_24  and  C_25
REMARK    7  A    between atoms: C_25  and  O_26
REMARK    8  A    between atoms: C_29  and  C_30
REMARK                            x       y       z     vdW  Elec       q    Type
REMARK                         _______ _______ _______ _____ _____    ______ ____
ROOT
ATOM      1  C   UNL     1       0.305  12.739  20.451  0.00  0.00    +0.000 A 
ATOM      2  N   UNL     1       1.480  13.081  19.910  0.00  0.00    +0.000 NA
ATOM      3  C   UNL     1       2.158  14.086  20.483  0.00  0.00    +0.000 A 
ATOM      4  N   UNL     1       1.747  14.748  21.578  0.00  0.00    +0.000 NA
ATOM      5  C   UNL     1       0.553  14.386  22.089  0.00  0.00    +0.000 A 
ATOM      6  C   UNL     1      -0.229  13.393  21.545  0.00  0.00    +0.000 A 
ATOM      7  C   UNL     1      -1.571  13.071  22.095  0.00  0.00    +0.000 C 
ATOM      8  C   UNL     1      -1.921  13.858  23.322  0.00  0.00    +0.000 A 
ATOM      9  C   UNL     1      -3.147  13.636  23.980  0.00  0.00    +0.000 A 
ATOM     10  C   UNL     1      -3.401  14.380  25.124  0.00  0.00    +0.000 A 
ATOM     11  N   UNL     1      -2.550  15.293  25.637  0.00  0.00    +0.000 NA
ATOM     12  C   UNL     1      -1.373  15.499  24.989  0.00  0.00    +0.000 A 
ATOM     13  C   UNL     1      -0.459  16.507  25.620  0.00  0.00    +0.000 C 
ATOM     14  C   UNL     1      -1.024  14.807  23.824  0.00  0.00    +0.000 A 
ATOM     15  O   UNL     1       0.181  15.088  23.220  0.00  0.00    +0.000 OA
ENDROOT
BRANCH   3  16
ATOM     16  C   UNL     1       3.445  14.448  19.855  0.00  0.00    +0.000 A 
ATOM     17  C   UNL     1       3.601  14.416  18.450  0.00  0.00    +0.000 A 
ATOM     18  C   UNL     1       4.816  14.736  17.836  0.00  0.00    +0.000 A 
ATOM     19  C   UNL     1       5.905  15.102  18.619  0.00  0.00    +0.000 A 
ATOM     20 CL   UNL     1       7.404  15.485  17.871  0.00  0.00    +0.000 Cl
ATOM     21  C   UNL     1       5.782  15.154  20.004  0.00  0.00    +0.000 A 
ATOM     22  C   UNL     1       4.563  14.833  20.614  0.00  0.00    +0.000 A 
ENDBRANCH   3  16
BRANCH   1  23
ATOM     23  S   UNL     1      -0.542  11.380  19.653  0.00  0.00    +0.000 S 
BRANCH  23  24
ATOM     24  C   UNL     1       0.106  10.002  20.649  0.00  0.00    +0.000 C 
BRANCH  24  28
ATOM     25  C   UNL     1       2.777   7.477  18.348  0.00  0.00    +0.000 A 
ATOM     26  C   UNL     1       2.200   8.620  17.783  0.00  0.00    +0.000 A 
ATOM     27  C   UNL     1       1.333   9.428  18.523  0.00  0.00    +0.000 A 
ATOM     28  C   UNL     1       1.022   9.108  19.851  0.00  0.00    +0.000 A 
ATOM     29  C   UNL     1       1.571   7.947  20.411  0.00  0.00    +0.000 A 
ATOM     30  C   UNL     1       2.438   7.139  19.663  0.00  0.00    +0.000 A 
BRANCH  25  32
ATOM     31  C   UNL     1       4.574   5.772  18.138  0.00  0.00    +0.000 C 
ATOM     32  C   UNL     1       3.679   6.600  17.585  0.00  0.00    +0.000 C 
ENDBRANCH  25  32
ENDBRANCH  24  28
ENDBRANCH  23  24
ENDBRANCH   1  23
BRANCH   9  33
ATOM     33  C   UNL     1      -4.144  12.609  23.518  0.00  0.00    +0.000 C 
BRANCH  33  34
ATOM     34  O   UNL     1      -4.618  11.838  24.612  0.00  0.00    +0.000 OA
ATOM     35  H   UNL     1      -4.767  10.933  24.287  0.00  0.00    +0.000 HD
ENDBRANCH  33  34
ENDBRANCH   9  33
TORSDOF 7
ENDMDL
MODEL 3
REMARK VINA RESULT:      -7.6      3.631      7.811
REMARK  Name = 
REMARK  8 active torsions:
REMARK  status: ('A' for Active; 'I' for Inactive)
REMARK    1  A    between atoms: C_2  and  C_3
REMARK    2  A    between atoms: C_6  and  C_7
REMARK    3  A    between atoms: C_7  and  S_8
REMARK    4  A    between atoms: S_8  and  C_9
REMARK    5  A    between atoms: C_11  and  C_12
REMARK    6  A    between atoms: C_24  and  C_25
REMARK    7  A    between atoms: C_25  and  O_26
REMARK    8  A    between atoms: C_29  and  C_30
REMARK                            x       y       z     vdW  Elec       q    Type
REMARK                         _______ _______ _______ _____ _____    ______ ____
ROOT
ATOM      1  C   UNL     1       0.270  12.661  20.624  0.00  0.00    +0.000 A 
ATOM      2  N   UNL     1       1.437  12.977  20.049  0.00  0.00    +0.000 NA
ATOM      3  C   UNL     1       2.114  14.020  20.552  0.00  0.00    +0.000 A 
ATOM      4  N   UNL     1       1.711  14.744  21.609  0.00  0.00    +0.000 NA
ATOM      5  C   UNL     1       0.526  14.406  22.156  0.00  0.00    +0.000 A 
ATOM      6  C   UNL     1      -0.256  13.376  21.682  0.00  0.00    +0.000 A 
ATOM      7  C   UNL     1      -1.588  13.080  22.268  0.00  0.00    +0.000 C 
ATOM      8  C   UNL     1      -1.929  13.937  23.449  0.00  0.00    +0.000 A 
ATOM      9  C   UNL     1      -3.146  13.747  24.134  0.00  0.00    +0.000 A 
ATOM     10  C   UNL     1      -3.392  14.558  25.234  0.00  0.00    +0.000 A 
ATOM     11  N   UNL     1      -2.542  15.506  25.680  0.00  0.00    +0.000 NA
ATOM     12  C   UNL     1      -1.374  15.680  25.006  0.00  0.00    +0.000 A 
ATOM     13  C   UNL     1      -0.460  16.730  25.564  0.00  0.00    +0.000 C 
ATOM     14  C   UNL     1      -1.034  14.921  23.882  0.00  0.00    +0.000 A 
ATOM     15  O   UNL     1       0.162  15.173  23.247  0.00  0.00    +0.000 OA
ENDROOT
BRANCH   3  16
ATOM     16  C   UNL     1       3.391  14.351  19.887  0.00  0.00    +0.000 A 
ATOM     17  C   UNL     1       4.496  14.823  20.634  0.00  0.00    +0.000 A 
ATOM     18  C   UNL     1       5.707  15.161  20.022  0.00  0.00    +0.000 A 
ATOM     19  C   UNL     1       5.841  15.030  18.644  0.00  0.00    +0.000 A 
ATOM     20 CL   UNL     1       7.323  15.454  17.886  0.00  0.00    +0.000 Cl
ATOM     21  C   UNL     1       4.776  14.559  17.882  0.00  0.00    +0.000 A 
ATOM     22  C   UNL     1       3.565  14.221  18.500  0.00  0.00    +0.000 A 
ENDBRANCH   3  16
BRANCH   1  23
ATOM     23  S   UNL     1      -0.576  11.250  19.920  0.00  0.00    +0.000 S 
BRANCH  23  24
ATOM     24  C   UNL     1       0.634  10.788  18.642  0.00  0.00    +0.000 C 
BRANCH  24  28
ATOM     25  C   UNL     1       2.417   6.922  19.466  0.00  0.00    +0.000 A 
ATOM     26  C   UNL     1       1.742   7.632  20.465  0.00  0.00    +0.000 A 
ATOM     27  C   UNL     1       1.175   8.881  20.200  0.00  0.00    +0.000 A 
ATOM     28  C   UNL     1       1.273   9.451  18.924  0.00  0.00    +0.000 A 
ATOM     29  C   UNL     1       1.977   8.758  17.929  0.00  0.00    +0.000 A 
ATOM     30  C   UNL     1       2.546   7.507  18.201  0.00  0.00    +0.000 A 
BRANCH  25  32
ATOM     31  C   UNL     1       2.498   4.658  20.490  0.00  0.00    +0.000 C 
ATOM     32  C   UNL     1       3.038   5.613  19.723  0.00  0.00    +0.000 C 
ENDBRANCH  25  32
ENDBRANCH  24  28
ENDBRANCH  23  24
ENDBRANCH   1  23
BRANCH   9  33
ATOM     33  C   UNL     1      -4.140  12.688  23.747  0.00  0.00    +0.000 C 
BRANCH  33  34
ATOM     34  O   UNL     1      -4.364  11.789  24.823  0.00  0.00    +0.000 OA
ATOM     35  H   UNL     1      -3.582  11.215  24.890  0.00  0.00    +0.000 HD
ENDBRANCH  33  34
ENDBRANCH   9  33
TORSDOF 7
ENDMDL
MODEL 4
REMARK VINA RESULT:      -7.6      2.931      7.853
REMARK  Name = 
REMARK  8 active torsions:
REMARK  status: ('A' for Active; 'I' for Inactive)
REMARK    1  A    between atoms: C_2  and  C_3
REMARK    2  A    between atoms: C_6  and  C_7
REMARK    3  A    between atoms: C_7  and  S_8
REMARK    4  A    between atoms: S_8  and  C_9
REMARK    5  A    between atoms: C_11  and  C_12
REMARK    6  A    between atoms: C_24  and  C_25
REMARK    7  A    between atoms: C_25  and  O_26
REMARK    8  A    between atoms: C_29  and  C_30
REMARK                            x       y       z     vdW  Elec       q    Type
REMARK                         _______ _______ _______ _____ _____    ______ ____
ROOT
ATOM      1  C   UNL     1      -0.378  12.489  20.754  0.00  0.00    +0.000 A 
ATOM      2  N   UNL     1      -1.597  12.351  21.287  0.00  0.00    +0.000 NA
ATOM      3  C   UNL     1      -2.440  13.389  21.187  0.00  0.00    +0.000 A 
ATOM      4  N   UNL     1      -2.148  14.542  20.563  0.00  0.00    +0.000 NA
ATOM      5  C   UNL     1      -0.906  14.652  20.048  0.00  0.00    +0.000 A 
ATOM      6  C   UNL     1       0.037  13.653  20.137  0.00  0.00    +0.000 A 
ATOM      7  C   UNL     1       1.417  13.839  19.619  0.00  0.00    +0.000 C 
ATOM      8  C   UNL     1       1.627  15.154  18.930  0.00  0.00    +0.000 A 
ATOM      9  C   UNL     1       2.877  15.459  18.354  0.00  0.00    +0.000 A 
ATOM     10  C   UNL     1       3.000  16.683  17.710  0.00  0.00    +0.000 A 
ATOM     11  N   UNL     1       2.003  17.586  17.605  0.00  0.00    +0.000 NA
ATOM     12  C   UNL     1       0.805  17.279  18.170  0.00  0.00    +0.000 A 
ATOM     13  C   UNL     1      -0.270  18.311  17.999  0.00  0.00    +0.000 C 
ATOM     14  C   UNL     1       0.579  16.076  18.848  0.00  0.00    +0.000 A 
ATOM     15  O   UNL     1      -0.660  15.851  19.406  0.00  0.00    +0.000 OA
ENDROOT
BRANCH   3  16
ATOM     16  C   UNL     1      -3.773  13.210  21.796  0.00  0.00    +0.000 A 
ATOM     17  C   UNL     1      -4.873  12.775  21.021  0.00  0.00    +0.000 A 
ATOM     18  C   UNL     1      -6.148  12.617  21.574  0.00  0.00    +0.000 A 
ATOM     19  C   UNL     1      -6.350  12.889  22.923  0.00  0.00    +0.000 A 
ATOM     20 CL   UNL     1      -7.916  12.709  23.605  0.00  0.00    +0.000 Cl
ATOM     21  C   UNL     1      -5.287  13.310  23.716  0.00  0.00    +0.000 A 
ATOM     22  C   UNL     1      -4.011  13.465  23.157  0.00  0.00    +0.000 A 
ENDBRANCH   3  16
BRANCH   1  23
ATOM     23  S   UNL     1       0.692  11.062  20.904  0.00  0.00    +0.000 S 
BRANCH  23  24
ATOM     24  C   UNL     1       0.576  10.426  19.203  0.00  0.00    +0.000 C 
BRANCH  24  28
ATOM     25  C   UNL     1       2.899   6.806  18.653  0.00  0.00    +0.000 A 
ATOM     26  C   UNL     1       2.261   7.075  19.869  0.00  0.00    +0.000 A 
ATOM     27  C   UNL     1       1.519   8.245  20.047  0.00  0.00    +0.000 A 
ATOM     28  C   UNL     1       1.401   9.178  19.009  0.00  0.00    +0.000 A 
ATOM     29  C   UNL     1       2.065   8.928  17.800  0.00  0.00    +0.000 A 
ATOM     30  C   UNL     1       2.810   7.754  17.628  0.00  0.00    +0.000 A 
BRANCH  25  32
ATOM     31  C   UNL     1       4.213   5.214  17.267  0.00  0.00    +0.000 C 
ATOM     32  C   UNL     1       3.700   5.589  18.445  0.00  0.00    +0.000 C 
ENDBRANCH  25  32
ENDBRANCH  24  28
ENDBRANCH  23  24
ENDBRANCH   1  23
BRANCH   9  33
ATOM     33  C   UNL     1       4.037  14.503  18.374  0.00  0.00    +0.000 C 
BRANCH  33  34
ATOM     34  O   UNL     1       5.010  14.870  17.407  0.00  0.00    +0.000 OA
ATOM     35  H   UNL     1       5.494  14.063  17.161  0.00  0.00    +0.000 HD
ENDBRANCH  33  34
ENDBRANCH   9  33
TORSDOF 7
ENDMDL
MODEL 5
REMARK VINA RESULT:      -7.5      0.568      1.286
REMARK  Name = 
REMARK  8 active torsions:
REMARK  status: ('A' for Active; 'I' for Inactive)
REMARK    1  A    between atoms: C_2  and  C_3
REMARK    2  A    between atoms: C_6  and  C_7
REMARK    3  A    between atoms: C_7  and  S_8
REMARK    4  A    between atoms: S_8  and  C_9
REMARK    5  A    between atoms: C_11  and  C_12
REMARK    6  A    between atoms: C_24  and  C_25
REMARK    7  A    between atoms: C_25  and  O_26
REMARK    8  A    between atoms: C_29  and  C_30
REMARK                            x       y       z     vdW  Elec       q    Type
REMARK                         _______ _______ _______ _____ _____    ______ ____
ROOT
ATOM      1  C   UNL     1      -0.595  11.991  19.172  0.00  0.00    +0.000 A 
ATOM      2  N   UNL     1      -0.130  10.737  19.203  0.00  0.00    +0.000 NA
ATOM      3  C   UNL     1       1.180  10.555  18.978  0.00  0.00    +0.000 A 
ATOM      4  N   UNL     1       2.053  11.551  18.753  0.00  0.00    +0.000 NA
ATOM      5  C   UNL     1       1.547  12.800  18.716  0.00  0.00    +0.000 A 
ATOM      6  C   UNL     1       0.212  13.078  18.896  0.00  0.00    +0.000 A 
ATOM      7  C   UNL     1      -0.317  14.461  18.777  0.00  0.00    +0.000 C 
ATOM      8  C   UNL     1       0.745  15.492  18.541  0.00  0.00    +0.000 A 
ATOM      9  C   UNL     1       0.400  16.855  18.443  0.00  0.00    +0.000 A 
ATOM     10  C   UNL     1       1.432  17.761  18.247  0.00  0.00    +0.000 A 
ATOM     11  N   UNL     1       2.733  17.417  18.146  0.00  0.00    +0.000 NA
ATOM     12  C   UNL     1       3.050  16.098  18.237  0.00  0.00    +0.000 A 
ATOM     13  C   UNL     1       4.512  15.779  18.143  0.00  0.00    +0.000 C 
ATOM     14  C   UNL     1       2.084  15.104  18.427  0.00  0.00    +0.000 A 
ATOM     15  O   UNL     1       2.488  13.788  18.493  0.00  0.00    +0.000 OA
ENDROOT
BRANCH   3  16
ATOM     16  C   UNL     1       1.660   9.159  19.007  0.00  0.00    +0.000 A 
ATOM     17  C   UNL     1       2.286   8.584  17.877  0.00  0.00    +0.000 A 
ATOM     18  C   UNL     1       2.730   7.258  17.876  0.00  0.00    +0.000 A 
ATOM     19  C   UNL     1       2.562   6.476  19.014  0.00  0.00    +0.000 A 
ATOM     20 CL   UNL     1       3.096   4.843  19.016  0.00  0.00    +0.000 Cl
ATOM     21  C   UNL     1       1.959   7.015  20.147  0.00  0.00    +0.000 A 
ATOM     22  C   UNL     1       1.516   8.344  20.143  0.00  0.00    +0.000 A 
ENDBRANCH   3  16
BRANCH   1  23
ATOM     23  S   UNL     1      -2.346  12.169  19.498  0.00  0.00    +0.000 S 
BRANCH  23  24
ATOM     24  C   UNL     1      -2.272  12.672  21.245  0.00  0.00    +0.000 C 
BRANCH  24  28
ATOM     25  C   UNL     1      -6.195  12.916  23.075  0.00  0.00    +0.000 A 
ATOM     26  C   UNL     1      -5.036  12.888  23.857  0.00  0.00    +0.000 A 
ATOM     27  C   UNL     1      -3.773  12.802  23.266  0.00  0.00    +0.000 A 
ATOM     28  C   UNL     1      -3.641  12.739  21.873  0.00  0.00    +0.000 A 
ATOM     29  C   UNL     1      -4.801  12.733  21.086  0.00  0.00    +0.000 A 
ATOM     30  C   UNL     1      -6.066  12.817  21.685  0.00  0.00    +0.000 A 
BRANCH  25  32
ATOM     31  C   UNL     1      -7.907  13.887  24.594  0.00  0.00    +0.000 C 
ATOM     32  C   UNL     1      -7.538  12.989  23.672  0.00  0.00    +0.000 C 
ENDBRANCH  25  32
ENDBRANCH  24  28
ENDBRANCH  23  24
ENDBRANCH   1  23
BRANCH   9  33
ATOM     33  C   UNL     1      -1.013  17.348  18.589  0.00  0.00    +0.000 C 
BRANCH  33  34
ATOM     34  O   UNL     1      -1.290  18.371  17.644  0.00  0.00    +0.000 OA
ATOM     35  H   UNL     1      -0.714  19.126  17.854  0.00  0.00    +0.000 HD
ENDBRANCH  33  34
ENDBRANCH   9  33
TORSDOF 7
ENDMDL
MODEL 6
REMARK VINA RESULT:      -7.5      4.561      8.980
REMARK  Name = 
REMARK  8 active torsions:
REMARK  status: ('A' for Active; 'I' for Inactive)
REMARK    1  A    between atoms: C_2  and  C_3
REMARK    2  A    between atoms: C_6  and  C_7
REMARK    3  A    between atoms: C_7  and  S_8
REMARK    4  A    between atoms: S_8  and  C_9
REMARK    5  A    between atoms: C_11  and  C_12
REMARK    6  A    between atoms: C_24  and  C_25
REMARK    7  A    between atoms: C_25  and  O_26
REMARK    8  A    between atoms: C_29  and  C_30
REMARK                            x       y       z     vdW  Elec       q    Type
REMARK                         _______ _______ _______ _____ _____    ______ ____
ROOT
ATOM      1  C   UNL     1      -0.613  12.835  20.977  0.00  0.00    +0.000 A 
ATOM      2  N   UNL     1      -0.370  13.596  22.050  0.00  0.00    +0.000 NA
ATOM      3  C   UNL     1      -1.406  14.256  22.591  0.00  0.00    +0.000 A 
ATOM      4  N   UNL     1      -2.670  14.177  22.141  0.00  0.00    +0.000 NA
ATOM      5  C   UNL     1      -2.875  13.410  21.051  0.00  0.00    +0.000 A 
ATOM      6  C   UNL     1      -1.867  12.729  20.408  0.00  0.00    +0.000 A 
ATOM      7  C   UNL     1      -2.123  11.952  19.168  0.00  0.00    +0.000 C 
ATOM      8  C   UNL     1      -3.567  11.919  18.767  0.00  0.00    +0.000 A 
ATOM      9  C   UNL     1      -3.969  11.189  17.631  0.00  0.00    +0.000 A 
ATOM     10  C   UNL     1      -5.324  11.179  17.326  0.00  0.00    +0.000 A 
ATOM     11  N   UNL     1      -6.266  11.820  18.048  0.00  0.00    +0.000 NA
ATOM     12  C   UNL     1      -5.861  12.524  19.139  0.00  0.00    +0.000 A 
ATOM     13  C   UNL     1      -6.956  13.194  19.914  0.00  0.00    +0.000 C 
ATOM     14  C   UNL     1      -4.520  12.604  19.527  0.00  0.00    +0.000 A 
ATOM     15  O   UNL     1      -4.193  13.352  20.637  0.00  0.00    +0.000 OA
ENDROOT
BRANCH   3  16
ATOM     16  C   UNL     1      -1.103  15.097  23.766  0.00  0.00    +0.000 A 
ATOM     17  C   UNL     1      -1.726  14.854  25.012  0.00  0.00    +0.000 A 
ATOM     18  C   UNL     1      -1.469  15.651  26.132  0.00  0.00    +0.000 A 
ATOM     19  C   UNL     1      -0.574  16.711  26.030  0.00  0.00    +0.000 A 
ATOM     20 CL   UNL     1      -0.263  17.701  27.399  0.00  0.00    +0.000 Cl
ATOM     21  C   UNL     1       0.063  16.971  24.820  0.00  0.00    +0.000 A 
ATOM     22  C   UNL     1      -0.198  16.169  23.701  0.00  0.00    +0.000 A 
ENDBRANCH   3  16
BRANCH   1  23
ATOM     23  S   UNL     1       0.805  11.967  20.314  0.00  0.00    +0.000 S 
BRANCH  23  24
ATOM     24  C   UNL     1       0.396  10.278  20.853  0.00  0.00    +0.000 C 
BRANCH  24  28
ATOM     25  C   UNL     1       2.520   7.314  18.506  0.00  0.00    +0.000 A 
ATOM     26  C   UNL     1       2.066   8.504  17.925  0.00  0.00    +0.000 A 
ATOM     27  C   UNL     1       1.376   9.454  18.681  0.00  0.00    +0.000 A 
ATOM     28  C   UNL     1       1.120   9.234  20.040  0.00  0.00    +0.000 A 
ATOM     29  C   UNL     1       1.543   8.029  20.619  0.00  0.00    +0.000 A 
ATOM     30  C   UNL     1       2.233   7.078  19.855  0.00  0.00    +0.000 A 
BRANCH  25  32
ATOM     31  C   UNL     1       3.315   4.999  18.073  0.00  0.00    +0.000 C 
ATOM     32  C   UNL     1       3.235   6.290  17.728  0.00  0.00    +0.000 C 
ENDBRANCH  25  32
ENDBRANCH  24  28
ENDBRANCH  23  24
ENDBRANCH   1  23
BRANCH   9  33
ATOM     33  C   UNL     1      -3.006  10.401  16.786  0.00  0.00    +0.000 C 
BRANCH  33  34
ATOM     34  O   UNL     1      -2.425  11.223  15.785  0.00  0.00    +0.000 OA
ATOM     35  H   UNL     1      -1.824  10.664  15.262  0.00  0.00    +0.000 HD
ENDBRANCH  33  34
ENDBRANCH   9  33
TORSDOF 7
ENDMDL
MODEL 7
REMARK VINA RESULT:      -7.5      0.638      1.043
REMARK  Name = 
REMARK  8 active torsions:
REMARK  status: ('A' for Active; 'I' for Inactive)
REMARK    1  A    between atoms: C_2  and  C_3
REMARK    2  A    between atoms: C_6  and  C_7
REMARK    3  A    between atoms: C_7  and  S_8
REMARK    4  A    between atoms: S_8  and  C_9
REMARK    5  A    between atoms: C_11  and  C_12
REMARK    6  A    between atoms: C_24  and  C_25
REMARK    7  A    between atoms: C_25  and  O_26
REMARK    8  A    between atoms: C_29  and  C_30
REMARK                            x       y       z     vdW  Elec       q    Type
REMARK                         _______ _______ _______ _____ _____    ______ ____
ROOT
ATOM      1  C   UNL     1      -0.252  11.617  19.260  0.00  0.00    +0.000 A 
ATOM      2  N   UNL     1       0.186  10.353  19.230  0.00  0.00    +0.000 NA
ATOM      3  C   UNL     1       1.466  10.147  18.886  0.00  0.00    +0.000 A 
ATOM      4  N   UNL     1       2.338  11.128  18.600  0.00  0.00    +0.000 NA
ATOM      5  C   UNL     1       1.860  12.388  18.629  0.00  0.00    +0.000 A 
ATOM      6  C   UNL     1       0.552  12.691  18.932  0.00  0.00    +0.000 A 
ATOM      7  C   UNL     1       0.047  14.087  18.884  0.00  0.00    +0.000 C 
ATOM      8  C   UNL     1       1.107  15.099  18.571  0.00  0.00    +0.000 A 
ATOM      9  C   UNL     1       0.786  16.471  18.527  0.00  0.00    +0.000 A 
ATOM     10  C   UNL     1       1.817  17.359  18.254  0.00  0.00    +0.000 A 
ATOM     11  N   UNL     1       3.095  16.988  18.032  0.00  0.00    +0.000 NA
ATOM     12  C   UNL     1       3.389  15.661  18.073  0.00  0.00    +0.000 A 
ATOM     13  C   UNL     1       4.830  15.313  17.843  0.00  0.00    +0.000 C 
ATOM     14  C   UNL     1       2.421  14.685  18.332  0.00  0.00    +0.000 A 
ATOM     15  O   UNL     1       2.800  13.360  18.339  0.00  0.00    +0.000 OA
ENDROOT
BRANCH   3  16
ATOM     16  C   UNL     1       1.915   8.741  18.849  0.00  0.00    +0.000 A 
ATOM     17  C   UNL     1       1.761   7.901  19.976  0.00  0.00    +0.000 A 
ATOM     18  C   UNL     1       2.197   6.571  19.969  0.00  0.00    +0.000 A 
ATOM     19  C   UNL     1       2.794   6.050  18.826  0.00  0.00    +0.000 A 
ATOM     20 CL   UNL     1       3.342   4.422  18.815  0.00  0.00    +0.000 Cl
ATOM     21  C   UNL     1       2.951   6.848  17.696  0.00  0.00    +0.000 A 
ATOM     22  C   UNL     1       2.512   8.179  17.709  0.00  0.00    +0.000 A 
ENDBRANCH   3  16
BRANCH   1  23
ATOM     23  S   UNL     1      -1.962  11.826  19.744  0.00  0.00    +0.000 S 
BRANCH  23  24
ATOM     24  C   UNL     1      -1.718  12.402  21.453  0.00  0.00    +0.000 C 
BRANCH  24  28
ATOM     25  C   UNL     1      -5.454  12.985  23.574  0.00  0.00    +0.000 A 
ATOM     26  C   UNL     1      -4.313  12.522  24.239  0.00  0.00    +0.000 A 
ATOM     27  C   UNL     1      -3.112  12.328  23.552  0.00  0.00    +0.000 A 
ATOM     28  C   UNL     1      -3.026  12.590  22.179  0.00  0.00    +0.000 A 
ATOM     29  C   UNL     1      -4.175  13.022  21.502  0.00  0.00    +0.000 A 
ATOM     30  C   UNL     1      -5.378  13.213  22.196  0.00  0.00    +0.000 A 
BRANCH  25  32
ATOM     31  C   UNL     1      -7.916  13.324  23.654  0.00  0.00    +0.000 C 
ATOM     32  C   UNL     1      -6.736  13.182  24.270  0.00  0.00    +0.000 C 
ENDBRANCH  25  32
ENDBRANCH  24  28
ENDBRANCH  23  24
ENDBRANCH   1  23
BRANCH   9  33
ATOM     33  C   UNL     1      -0.597  16.991  18.806  0.00  0.00    +0.000 C 
BRANCH  33  34
ATOM     34  O   UNL     1      -1.053  17.809  17.738  0.00  0.00    +0.000 OA
ATOM     35  H   UNL     1      -1.922  17.469  17.463  0.00  0.00    +0.000 HD
ENDBRANCH  33  34
ENDBRANCH   9  33
TORSDOF 7
ENDMDL
MODEL 8
REMARK VINA RESULT:      -7.4      3.997      6.567
REMARK  Name = 
REMARK  8 active torsions:
REMARK  status: ('A' for Active; 'I' for Inactive)
REMARK    1  A    between atoms: C_2  and  C_3
REMARK    2  A    between atoms: C_6  and  C_7
REMARK    3  A    between atoms: C_7  and  S_8
REMARK    4  A    between atoms: S_8  and  C_9
REMARK    5  A    between atoms: C_11  and  C_12
REMARK    6  A    between atoms: C_24  and  C_25
REMARK    7  A    between atoms: C_25  and  O_26
REMARK    8  A    between atoms: C_29  and  C_30
REMARK                            x       y       z     vdW  Elec       q    Type
REMARK                         _______ _______ _______ _____ _____    ______ ____
ROOT
ATOM      1  C   UNL     1       0.818  12.355  20.893  0.00  0.00    +0.000 A 
ATOM      2  N   UNL     1       1.946  12.758  20.299  0.00  0.00    +0.000 NA
ATOM      3  C   UNL     1       2.408  13.980  20.607  0.00  0.00    +0.000 A 
ATOM      4  N   UNL     1       1.825  14.807  21.491  0.00  0.00    +0.000 NA
ATOM      5  C   UNL     1       0.683  14.372  22.061  0.00  0.00    +0.000 A 
ATOM      6  C   UNL     1       0.116  13.151  21.777  0.00  0.00    +0.000 A 
ATOM      7  C   UNL     1      -1.181  12.739  22.373  0.00  0.00    +0.000 C 
ATOM      8  C   UNL     1      -1.732  13.729  23.355  0.00  0.00    +0.000 A 
ATOM      9  C   UNL     1      -2.939  13.458  24.031  0.00  0.00    +0.000 A 
ATOM     10  C   UNL     1      -3.383  14.405  24.944  0.00  0.00    +0.000 A 
ATOM     11  N   UNL     1      -2.733  15.554  25.220  0.00  0.00    +0.000 NA
ATOM     12  C   UNL     1      -1.573  15.803  24.556  0.00  0.00    +0.000 A 
ATOM     13  C   UNL     1      -0.884  17.083  24.923  0.00  0.00    +0.000 C 
ATOM     14  C   UNL     1      -1.043  14.918  23.611  0.00  0.00    +0.000 A 
ATOM     15  O   UNL     1       0.131  15.254  22.972  0.00  0.00    +0.000 OA
ENDROOT
BRANCH   3  16
ATOM     16  C   UNL     1       3.648  14.401  19.925  0.00  0.00    +0.000 A 
ATOM     17  C   UNL     1       4.773  14.830  20.667  0.00  0.00    +0.000 A 
ATOM     18  C   UNL     1       5.951  15.252  20.041  0.00  0.00    +0.000 A 
ATOM     19  C   UNL     1       6.030  15.248  18.652  0.00  0.00    +0.000 A 
ATOM     20 CL   UNL     1       7.469  15.776  17.877  0.00  0.00    +0.000 Cl
ATOM     21  C   UNL     1       4.944  14.822  17.893  0.00  0.00    +0.000 A 
ATOM     22  C   UNL     1       3.767  14.400  18.526  0.00  0.00    +0.000 A 
ENDBRANCH   3  16
BRANCH   1  23
ATOM     23  S   UNL     1       0.265  10.710  20.455  0.00  0.00    +0.000 S 
BRANCH  23  24
ATOM     24  C   UNL     1      -0.103  10.981  18.694  0.00  0.00    +0.000 C 
BRANCH  24  28
ATOM     25  C   UNL     1      -4.372  11.097  17.945  0.00  0.00    +0.000 A 
ATOM     26  C   UNL     1      -3.534  10.250  17.210  0.00  0.00    +0.000 A 
ATOM     27  C   UNL     1      -2.158  10.220  17.448  0.00  0.00    +0.000 A 
ATOM     28  C   UNL     1      -1.586  11.041  18.428  0.00  0.00    +0.000 A 
ATOM     29  C   UNL     1      -2.417  11.915  19.144  0.00  0.00    +0.000 A 
ATOM     30  C   UNL     1      -3.796  11.943  18.899  0.00  0.00    +0.000 A 
BRANCH  25  32
ATOM     31  C   UNL     1      -6.754  10.991  18.649  0.00  0.00    +0.000 C 
ATOM     32  C   UNL     1      -5.822  11.160  17.704  0.00  0.00    +0.000 C 
ENDBRANCH  25  32
ENDBRANCH  24  28
ENDBRANCH  23  24
ENDBRANCH   1  23
BRANCH   9  33
ATOM     33  C   UNL     1      -3.716  12.187  23.831  0.00  0.00    +0.000 C 
BRANCH  33  34
ATOM     34  O   UNL     1      -4.550  11.925  24.950  0.00  0.00    +0.000 OA
ATOM     35  H   UNL     1      -4.662  10.960  25.010  0.00  0.00    +0.000 HD
ENDBRANCH  33  34
ENDBRANCH   9  33
TORSDOF 7
ENDMDL
MODEL 9
REMARK VINA RESULT:      -7.3      2.914      7.733
REMARK  Name = 
REMARK  8 active torsions:
REMARK  status: ('A' for Active; 'I' for Inactive)
REMARK    1  A    between atoms: C_2  and  C_3
REMARK    2  A    between atoms: C_6  and  C_7
REMARK    3  A    between atoms: C_7  and  S_8
REMARK    4  A    between atoms: S_8  and  C_9
REMARK    5  A    between atoms: C_11  and  C_12
REMARK    6  A    between atoms: C_24  and  C_25
REMARK    7  A    between atoms: C_25  and  O_26
REMARK    8  A    between atoms: C_29  and  C_30
REMARK                            x       y       z     vdW  Elec       q    Type
REMARK                         _______ _______ _______ _____ _____    ______ ____
ROOT
ATOM      1  C   UNL     1      -0.032  12.768  20.647  0.00  0.00    +0.000 A 
ATOM      2  N   UNL     1      -1.191  12.599  21.294  0.00  0.00    +0.000 NA
ATOM      3  C   UNL     1      -2.078  13.604  21.253  0.00  0.00    +0.000 A 
ATOM      4  N   UNL     1      -1.888  14.752  20.583  0.00  0.00    +0.000 NA
ATOM      5  C   UNL     1      -0.704  14.894  19.953  0.00  0.00    +0.000 A 
ATOM      6  C   UNL     1       0.280  13.932  19.973  0.00  0.00    +0.000 A 
ATOM      7  C   UNL     1       1.598  14.155  19.325  0.00  0.00    +0.000 C 
ATOM      8  C   UNL     1       1.695  15.461  18.594  0.00  0.00    +0.000 A 
ATOM      9  C   UNL     1       2.873  15.797  17.899  0.00  0.00    +0.000 A 
ATOM     10  C   UNL     1       2.891  17.009  17.223  0.00  0.00    +0.000 A 
ATOM     11  N   UNL     1       1.856  17.874  17.194  0.00  0.00    +0.000 NA
ATOM     12  C   UNL     1       0.727  17.538  17.874  0.00  0.00    +0.000 A 
ATOM     13  C   UNL     1      -0.397  18.526  17.784  0.00  0.00    +0.000 C 
ATOM     14  C   UNL     1       0.610  16.343  18.592  0.00  0.00    +0.000 A 
ATOM     15  O   UNL     1      -0.563  16.087  19.268  0.00  0.00    +0.000 OA
ENDROOT
BRANCH   3  16
ATOM     16  C   UNL     1      -3.341  13.392  21.988  0.00  0.00    +0.000 A 
ATOM     17  C   UNL     1      -4.583  13.390  21.310  0.00  0.00    +0.000 A 
ATOM     18  C   UNL     1      -5.793  13.210  21.988  0.00  0.00    +0.000 A 
ATOM     19  C   UNL     1      -5.786  13.022  23.367  0.00  0.00    +0.000 A 
ATOM     20 CL   UNL     1      -7.269  12.812  24.207  0.00  0.00    +0.000 Cl
ATOM     21  C   UNL     1      -4.580  13.008  24.062  0.00  0.00    +0.000 A 
ATOM     22  C   UNL     1      -3.371  13.188  23.377  0.00  0.00    +0.000 A 
ENDBRANCH   3  16
BRANCH   1  23
ATOM     23  S   UNL     1       1.100  11.384  20.725  0.00  0.00    +0.000 S 
BRANCH  23  24
ATOM     24  C   UNL     1       0.322  10.296  19.490  0.00  0.00    +0.000 C 
BRANCH  24  28
ATOM     25  C   UNL     1       2.952   7.040  18.359  0.00  0.00    +0.000 A 
ATOM     26  C   UNL     1       2.685   8.091  17.475  0.00  0.00    +0.000 A 
ATOM     27  C   UNL     1       1.832   9.135  17.838  0.00  0.00    +0.000 A 
ATOM     28  C   UNL     1       1.222   9.151  19.099  0.00  0.00    +0.000 A 
ATOM     29  C   UNL     1       1.460   8.083  19.976  0.00  0.00    +0.000 A 
ATOM     30  C   UNL     1       2.315   7.037  19.605  0.00  0.00    +0.000 A 
BRANCH  25  32
ATOM     31  C   UNL     1       3.421   4.657  17.824  0.00  0.00    +0.000 C 
ATOM     32  C   UNL     1       3.834   5.919  17.995  0.00  0.00    +0.000 C 
ENDBRANCH  25  32
ENDBRANCH  24  28
ENDBRANCH  23  24
ENDBRANCH   1  23
BRANCH   9  33
ATOM     33  C   UNL     1       4.066  14.883  17.829  0.00  0.00    +0.000 C 
BRANCH  33  34
ATOM     34  O   UNL     1       5.235  15.543  18.290  0.00  0.00    +0.000 OA
ATOM     35  H   UNL     1       5.912  14.862  18.444  0.00  0.00    +0.000 HD
ENDBRANCH  33  34
ENDBRANCH   9  33
TORSDOF 7
ENDMDL
