MODEL 1
REMARK VINA RESULT:      -8.8      0.000      0.000
REMARK  Name = 
REMARK  4 active torsions:
REMARK  status: ('A' for Active; 'I' for Inactive)
REMARK    1  A    between atoms: C_2  and  C_3
REMARK    2  A    between atoms: N_8  and  C_9
REMARK    3  A    between atoms: N_8  and  C_22
REMARK    4  A    between atoms: C_9  and  C_10
REMARK                            x       y       z     vdW  Elec       q    Type
REMARK                         _______ _______ _______ _____ _____    ______ ____
ROOT
ATOM      1  O   UNL     1       8.018   5.157  14.398  0.00  0.00    +0.000 OA
ATOM      2  C   UNL     1       6.962   4.572  14.652  0.00  0.00    +0.000 C 
ATOM      3  N   UNL     1       6.470   4.510  15.986  0.00  0.00    +0.000 N 
ENDROOT
BRANCH   3   4
ATOM      4  C   UNL     1       7.064   5.352  17.014  0.00  0.00    +0.000 A 
ATOM      5  C   UNL     1       7.583   4.801  18.201  0.00  0.00    +0.000 A 
ATOM      6  C   UNL     1       8.159   5.600  19.195  0.00  0.00    +0.000 A 
ATOM      7  C   UNL     1       8.243   6.975  19.022  0.00  0.00    +0.000 A 
ATOM      8  C   UNL     1       7.761   7.539  17.847  0.00  0.00    +0.000 A 
ATOM      9 CL   UNL     1       7.870   9.241  17.611  0.00  0.00    +0.000 Cl
ATOM     10  C   UNL     1       7.190   6.738  16.846  0.00  0.00    +0.000 A 
ENDBRANCH   3   4
BRANCH   2  11
ATOM     11  C   UNL     1       6.241   3.994  13.516  0.00  0.00    +0.000 A 
ATOM     12  C   UNL     1       4.874   4.122  13.308  0.00  0.00    +0.000 A 
ATOM     13  N   UNL     1       4.372   3.575  12.144  0.00  0.00    +0.000 NA
ATOM     14  C   UNL     1       5.370   3.110  11.429  0.00  0.00    +0.000 A 
ATOM     15  S   UNL     1       6.925   3.290  12.115  0.00  0.00    +0.000 S 
ENDBRANCH   2  11
BRANCH   3  16
ATOM     16  C   UNL     1       5.266   3.761  16.382  0.00  0.00    +0.000 C 
BRANCH  16  17
ATOM     17  C   UNL     1       4.285   4.544  17.238  0.00  0.00    +0.000 A 
ATOM     18  C   UNL     1       4.120   5.881  17.184  0.00  0.00    +0.000 A 
ATOM     19  C   UNL     1       3.106   6.603  17.993  0.00  0.00    +0.000 A 
ATOM     20  O   UNL     1       3.045   7.826  17.976  0.00  0.00    +0.000 OA
ATOM     21  N   UNL     1       2.246   5.830  18.710  0.00  0.00    +0.000 N 
ATOM     22  C   UNL     1       2.371   4.441  18.831  0.00  0.00    +0.000 A 
ATOM     23  C   UNL     1       1.465   3.738  19.627  0.00  0.00    +0.000 A 
ATOM     24  F   UNL     1       0.443   4.384  20.208  0.00  0.00    +0.000 F 
ATOM     25  C   UNL     1       1.606   2.372  19.829  0.00  0.00    +0.000 A 
ATOM     26  C   UNL     1       2.685   1.708  19.252  0.00  0.00    +0.000 A 
ATOM     27  C   UNL     1       3.583   2.403  18.432  0.00  0.00    +0.000 A 
ATOM     28  C   UNL     1       3.419   3.775  18.176  0.00  0.00    +0.000 A 
ATOM     29  H   UNL     1       1.524   6.312  19.234  0.00  0.00    +0.000 HD
ENDBRANCH  16  17
ENDBRANCH   3  16
TORSDOF 4
ENDMDL
MODEL 2
REMARK VINA RESULT:      -8.5      6.925      9.994
REMARK  Name = 
REMARK  4 active torsions:
REMARK  status: ('A' for Active; 'I' for Inactive)
REMARK    1  A    between atoms: C_2  and  C_3
REMARK    2  A    between atoms: N_8  and  C_9
REMARK    3  A    between atoms: N_8  and  C_22
REMARK    4  A    between atoms: C_9  and  C_10
REMARK                            x       y       z     vdW  Elec       q    Type
REMARK                         _______ _______ _______ _____ _____    ______ ____
ROOT
ATOM      1  O   UNL     1      -0.965  14.247  19.708  0.00  0.00    +0.000 OA
ATOM      2  C   UNL     1      -0.055  13.458  19.441  0.00  0.00    +0.000 C 
ATOM      3  N   UNL     1      -0.345  12.169  18.912  0.00  0.00    +0.000 N 
ENDROOT
BRANCH   3   4
ATOM      4  C   UNL     1      -1.688  11.868  18.439  0.00  0.00    +0.000 A 
ATOM      5  C   UNL     1      -2.814  12.064  19.260  0.00  0.00    +0.000 A 
ATOM      6  C   UNL     1      -4.111  11.781  18.815  0.00  0.00    +0.000 A 
ATOM      7  C   UNL     1      -4.317  11.305  17.528  0.00  0.00    +0.000 A 
ATOM      8  C   UNL     1      -3.223  11.128  16.689  0.00  0.00    +0.000 A 
ATOM      9 CL   UNL     1      -3.463  10.551  15.085  0.00  0.00    +0.000 Cl
ATOM     10  C   UNL     1      -1.923  11.419  17.132  0.00  0.00    +0.000 A 
ENDBRANCH   3   4
BRANCH   2  11
ATOM     11  C   UNL     1       1.313  13.934  19.657  0.00  0.00    +0.000 A 
ATOM     12  C   UNL     1       2.045  13.713  20.816  0.00  0.00    +0.000 A 
ATOM     13  N   UNL     1       3.348  14.170  20.820  0.00  0.00    +0.000 NA
ATOM     14  C   UNL     1       3.629  14.659  19.635  0.00  0.00    +0.000 A 
ATOM     15  S   UNL     1       2.363  14.610  18.488  0.00  0.00    +0.000 S 
ENDBRANCH   2  11
BRANCH   3  16
ATOM     16  C   UNL     1       0.676  11.142  18.648  0.00  0.00    +0.000 C 
BRANCH  16  17
ATOM     17  C   UNL     1       0.922  10.183  19.801  0.00  0.00    +0.000 A 
ATOM     18  C   UNL     1       0.587  10.425  21.084  0.00  0.00    +0.000 A 
ATOM     19  C   UNL     1       0.788   9.436  22.172  0.00  0.00    +0.000 A 
ATOM     20  O   UNL     1       0.547   9.728  23.337  0.00  0.00    +0.000 OA
ATOM     21  N   UNL     1       1.212   8.201  21.793  0.00  0.00    +0.000 N 
ATOM     22  C   UNL     1       1.599   7.884  20.484  0.00  0.00    +0.000 A 
ATOM     23  C   UNL     1       2.065   6.599  20.200  0.00  0.00    +0.000 A 
ATOM     24  F   UNL     1       2.070   5.661  21.159  0.00  0.00    +0.000 F 
ATOM     25  C   UNL     1       2.528   6.275  18.933  0.00  0.00    +0.000 A 
ATOM     26  C   UNL     1       2.553   7.257  17.947  0.00  0.00    +0.000 A 
ATOM     27  C   UNL     1       2.064   8.540  18.219  0.00  0.00    +0.000 A 
ATOM     28  C   UNL     1       1.542   8.865  19.482  0.00  0.00    +0.000 A 
ATOM     29  H   UNL     1       1.314   7.506  22.524  0.00  0.00    +0.000 HD
ENDBRANCH  16  17
ENDBRANCH   3  16
TORSDOF 4
ENDMDL
MODEL 3
REMARK VINA RESULT:      -8.5      1.700      2.411
REMARK  Name = 
REMARK  4 active torsions:
REMARK  status: ('A' for Active; 'I' for Inactive)
REMARK    1  A    between atoms: C_2  and  C_3
REMARK    2  A    between atoms: N_8  and  C_9
REMARK    3  A    between atoms: N_8  and  C_22
REMARK    4  A    between atoms: C_9  and  C_10
REMARK                            x       y       z     vdW  Elec       q    Type
REMARK                         _______ _______ _______ _____ _____    ______ ____
ROOT
ATOM      1  O   UNL     1       8.096   4.389  14.896  0.00  0.00    +0.000 OA
ATOM      2  C   UNL     1       6.865   4.456  14.855  0.00  0.00    +0.000 C 
ATOM      3  N   UNL     1       6.134   5.019  15.938  0.00  0.00    +0.000 N 
ENDROOT
BRANCH   3   4
ATOM      4  C   UNL     1       6.837   5.754  16.979  0.00  0.00    +0.000 A 
ATOM      5  C   UNL     1       7.332   5.106  18.126  0.00  0.00    +0.000 A 
ATOM      6  C   UNL     1       8.012   5.802  19.132  0.00  0.00    +0.000 A 
ATOM      7  C   UNL     1       8.226   7.168  19.010  0.00  0.00    +0.000 A 
ATOM      8  C   UNL     1       7.769   7.826  17.875  0.00  0.00    +0.000 A 
ATOM      9 CL   UNL     1       8.039   9.518  17.704  0.00  0.00    +0.000 Cl
ATOM     10  C   UNL     1       7.094   7.128  16.862  0.00  0.00    +0.000 A 
ENDBRANCH   3   4
BRANCH   2  11
ATOM     11  C   UNL     1       6.220   3.969  13.634  0.00  0.00    +0.000 A 
ATOM     12  C   UNL     1       4.847   3.851  13.467  0.00  0.00    +0.000 A 
ATOM     13  N   UNL     1       4.409   3.444  12.222  0.00  0.00    +0.000 NA
ATOM     14  C   UNL     1       5.443   3.337  11.423  0.00  0.00    +0.000 A 
ATOM     15  S   UNL     1       6.963   3.699  12.117  0.00  0.00    +0.000 S 
ENDBRANCH   2  11
BRANCH   3  16
ATOM     16  C   UNL     1       4.663   5.057  16.003  0.00  0.00    +0.000 C 
BRANCH  16  17
ATOM     17  C   UNL     1       4.060   4.284  17.164  0.00  0.00    +0.000 A 
ATOM     18  C   UNL     1       4.172   2.952  17.337  0.00  0.00    +0.000 A 
ATOM     19  C   UNL     1       3.621   2.242  18.519  0.00  0.00    +0.000 A 
ATOM     20  O   UNL     1       3.672   1.021  18.596  0.00  0.00    +0.000 OA
ATOM     21  N   UNL     1       3.102   3.024  19.503  0.00  0.00    +0.000 N 
ATOM     22  C   UNL     1       2.933   4.409  19.383  0.00  0.00    +0.000 A 
ATOM     23  C   UNL     1       2.348   5.121  20.431  0.00  0.00    +0.000 A 
ATOM     24  F   UNL     1       2.019   4.490  21.568  0.00  0.00    +0.000 F 
ATOM     25  C   UNL     1       2.097   6.481  20.314  0.00  0.00    +0.000 A 
ATOM     26  C   UNL     1       2.408   7.129  19.122  0.00  0.00    +0.000 A 
ATOM     27  C   UNL     1       3.018   6.426  18.077  0.00  0.00    +0.000 A 
ATOM     28  C   UNL     1       3.327   5.061  18.204  0.00  0.00    +0.000 A 
ATOM     29  H   UNL     1       2.759   2.551  20.332  0.00  0.00    +0.000 HD
ENDBRANCH  16  17
ENDBRANCH   3  16
TORSDOF 4
ENDMDL
MODEL 4
REMARK VINA RESULT:      -8.3      0.962      1.320
REMARK  Name = 
REMARK  4 active torsions:
REMARK  status: ('A' for Active; 'I' for Inactive)
REMARK    1  A    between atoms: C_2  and  C_3
REMARK    2  A    between atoms: N_8  and  C_9
REMARK    3  A    between atoms: N_8  and  C_22
REMARK    4  A    between atoms: C_9  and  C_10
REMARK                            x       y       z     vdW  Elec       q    Type
REMARK                         _______ _______ _______ _____ _____    ______ ____
ROOT
ATOM      1  O   UNL     1       7.951   5.180  14.216  0.00  0.00    +0.000 OA
ATOM      2  C   UNL     1       6.929   4.558  14.517  0.00  0.00    +0.000 C 
ATOM      3  N   UNL     1       6.470   4.527  15.864  0.00  0.00    +0.000 N 
ENDROOT
BRANCH   3   4
ATOM      4  C   UNL     1       7.048   5.434  16.845  0.00  0.00    +0.000 A 
ATOM      5  C   UNL     1       7.128   6.818  16.603  0.00  0.00    +0.000 A 
ATOM      6  C   UNL     1       7.678   7.700  17.540  0.00  0.00    +0.000 A 
ATOM      7  C   UNL     1       8.153   7.220  18.753  0.00  0.00    +0.000 A 
ATOM      8  C   UNL     1       8.061   5.861  19.025  0.00  0.00    +0.000 A 
ATOM      9 CL   UNL     1       8.634   5.253  20.530  0.00  0.00    +0.000 Cl
ATOM     10  C   UNL     1       7.503   4.976  18.090  0.00  0.00    +0.000 A 
ENDBRANCH   3   4
BRANCH   2  11
ATOM     11  C   UNL     1       6.210   3.904  13.422  0.00  0.00    +0.000 A 
ATOM     12  C   UNL     1       4.845   4.025  13.197  0.00  0.00    +0.000 A 
ATOM     13  N   UNL     1       4.346   3.399  12.073  0.00  0.00    +0.000 NA
ATOM     14  C   UNL     1       5.344   2.877  11.400  0.00  0.00    +0.000 A 
ATOM     15  S   UNL     1       6.897   3.096  12.080  0.00  0.00    +0.000 S 
ENDBRANCH   2  11
BRANCH   3  16
ATOM     16  C   UNL     1       5.312   3.740  16.318  0.00  0.00    +0.000 C 
BRANCH  16  17
ATOM     17  C   UNL     1       4.313   4.512  17.164  0.00  0.00    +0.000 A 
ATOM     18  C   UNL     1       4.122   5.844  17.097  0.00  0.00    +0.000 A 
ATOM     19  C   UNL     1       3.092   6.553  17.897  0.00  0.00    +0.000 A 
ATOM     20  O   UNL     1       3.008   7.775  17.868  0.00  0.00    +0.000 OA
ATOM     21  N   UNL     1       2.245   5.771  18.618  0.00  0.00    +0.000 N 
ATOM     22  C   UNL     1       2.397   4.385  18.752  0.00  0.00    +0.000 A 
ATOM     23  C   UNL     1       1.502   3.672  19.552  0.00  0.00    +0.000 A 
ATOM     24  F   UNL     1       0.466   4.304  20.124  0.00  0.00    +0.000 F 
ATOM     25  C   UNL     1       1.669   2.311  19.766  0.00  0.00    +0.000 A 
ATOM     26  C   UNL     1       2.762   1.663  19.198  0.00  0.00    +0.000 A 
ATOM     27  C   UNL     1       3.648   2.367  18.375  0.00  0.00    +0.000 A 
ATOM     28  C   UNL     1       3.459   3.734  18.106  0.00  0.00    +0.000 A 
ATOM     29  H   UNL     1       1.513   6.244  19.136  0.00  0.00    +0.000 HD
ENDBRANCH  16  17
ENDBRANCH   3  16
TORSDOF 4
ENDMDL
MODEL 5
REMARK VINA RESULT:      -8.3      6.765      9.778
REMARK  Name = 
REMARK  4 active torsions:
REMARK  status: ('A' for Active; 'I' for Inactive)
REMARK    1  A    between atoms: C_2  and  C_3
REMARK    2  A    between atoms: N_8  and  C_9
REMARK    3  A    between atoms: N_8  and  C_22
REMARK    4  A    between atoms: C_9  and  C_10
REMARK                            x       y       z     vdW  Elec       q    Type
REMARK                         _______ _______ _______ _____ _____    ______ ____
ROOT
ATOM      1  O   UNL     1      -0.936  13.866  19.457  0.00  0.00    +0.000 OA
ATOM      2  C   UNL     1       0.016  13.114  19.234  0.00  0.00    +0.000 C 
ATOM      3  N   UNL     1      -0.203  11.784  18.778  0.00  0.00    +0.000 N 
ENDROOT
BRANCH   3   4
ATOM      4  C   UNL     1      -1.526  11.385  18.322  0.00  0.00    +0.000 A 
ATOM      5  C   UNL     1      -1.693  10.405  17.326  0.00  0.00    +0.000 A 
ATOM      6  C   UNL     1      -2.961  10.011  16.883  0.00  0.00    +0.000 A 
ATOM      7  C   UNL     1      -4.100  10.582  17.435  0.00  0.00    +0.000 A 
ATOM      8  C   UNL     1      -3.961  11.533  18.438  0.00  0.00    +0.000 A 
ATOM      9 CL   UNL     1      -5.364  12.240  19.142  0.00  0.00    +0.000 Cl
ATOM     10  C   UNL     1      -2.691  11.923  18.889  0.00  0.00    +0.000 A 
ENDBRANCH   3   4
BRANCH   2  11
ATOM     11  C   UNL     1       1.355  13.675  19.423  0.00  0.00    +0.000 A 
ATOM     12  C   UNL     1       2.051  13.652  20.625  0.00  0.00    +0.000 A 
ATOM     13  N   UNL     1       3.335  14.161  20.605  0.00  0.00    +0.000 NA
ATOM     14  C   UNL     1       3.642  14.488  19.372  0.00  0.00    +0.000 A 
ATOM     15  S   UNL     1       2.423  14.220  18.204  0.00  0.00    +0.000 S 
ENDBRANCH   2  11
BRANCH   3  16
ATOM     16  C   UNL     1       0.873  10.800  18.571  0.00  0.00    +0.000 C 
BRANCH  16  17
ATOM     17  C   UNL     1       1.118   9.872  19.749  0.00  0.00    +0.000 A 
ATOM     18  C   UNL     1       0.831  10.171  21.031  0.00  0.00    +0.000 A 
ATOM     19  C   UNL     1       1.027   9.211  22.147  0.00  0.00    +0.000 A 
ATOM     20  O   UNL     1       0.833   9.552  23.308  0.00  0.00    +0.000 OA
ATOM     21  N   UNL     1       1.393   7.948  21.799  0.00  0.00    +0.000 N 
ATOM     22  C   UNL     1       1.728   7.573  20.492  0.00  0.00    +0.000 A 
ATOM     23  C   UNL     1       2.136   6.262  20.240  0.00  0.00    +0.000 A 
ATOM     24  F   UNL     1       2.134   5.358  21.231  0.00  0.00    +0.000 F 
ATOM     25  C   UNL     1       2.548   5.877  18.972  0.00  0.00    +0.000 A 
ATOM     26  C   UNL     1       2.580   6.824  17.952  0.00  0.00    +0.000 A 
ATOM     27  C   UNL     1       2.149   8.133  18.193  0.00  0.00    +0.000 A 
ATOM     28  C   UNL     1       1.678   8.521  19.458  0.00  0.00    +0.000 A 
ATOM     29  H   UNL     1       1.490   7.275  22.551  0.00  0.00    +0.000 HD
ENDBRANCH  16  17
ENDBRANCH   3  16
TORSDOF 4
ENDMDL
MODEL 6
REMARK VINA RESULT:      -8.3      7.690     10.526
REMARK  Name = 
REMARK  4 active torsions:
REMARK  status: ('A' for Active; 'I' for Inactive)
REMARK    1  A    between atoms: C_2  and  C_3
REMARK    2  A    between atoms: N_8  and  C_9
REMARK    3  A    between atoms: N_8  and  C_22
REMARK    4  A    between atoms: C_9  and  C_10
REMARK                            x       y       z     vdW  Elec       q    Type
REMARK                         _______ _______ _______ _____ _____    ______ ____
ROOT
ATOM      1  O   UNL     1      -1.080  15.156  21.233  0.00  0.00    +0.000 OA
ATOM      2  C   UNL     1      -1.293  13.987  20.900  0.00  0.00    +0.000 C 
ATOM      3  N   UNL     1      -0.321  13.255  20.163  0.00  0.00    +0.000 N 
ENDROOT
BRANCH   3   4
ATOM      4  C   UNL     1       1.028  13.783  20.023  0.00  0.00    +0.000 A 
ATOM      5  C   UNL     1       1.960  13.696  21.073  0.00  0.00    +0.000 A 
ATOM      6  C   UNL     1       3.261  14.198  20.950  0.00  0.00    +0.000 A 
ATOM      7  C   UNL     1       3.668  14.790  19.762  0.00  0.00    +0.000 A 
ATOM      8  C   UNL     1       2.774  14.864  18.701  0.00  0.00    +0.000 A 
ATOM      9 CL   UNL     1       3.269  15.583  17.218  0.00  0.00    +0.000 Cl
ATOM     10  C   UNL     1       1.472  14.355  18.822  0.00  0.00    +0.000 A 
ENDBRANCH   3   4
BRANCH   2  11
ATOM     11  C   UNL     1      -2.562  13.401  21.335  0.00  0.00    +0.000 A 
ATOM     12  C   UNL     1      -2.801  12.907  22.611  0.00  0.00    +0.000 A 
ATOM     13  N   UNL     1      -4.080  12.458  22.870  0.00  0.00    +0.000 NA
ATOM     14  C   UNL     1      -4.833  12.691  21.821  0.00  0.00    +0.000 A 
ATOM     15  S   UNL     1      -4.051  13.433  20.494  0.00  0.00    +0.000 S 
ENDBRANCH   2  11
BRANCH   3  16
ATOM     16  C   UNL     1      -0.535  11.889  19.655  0.00  0.00    +0.000 C 
BRANCH  16  17
ATOM     17  C   UNL     1       0.131  10.797  20.476  0.00  0.00    +0.000 A 
ATOM     18  C   UNL     1       0.028  10.674  21.814  0.00  0.00    +0.000 A 
ATOM     19  C   UNL     1       0.643   9.556  22.572  0.00  0.00    +0.000 A 
ATOM     20  O   UNL     1       0.596   9.528  23.796  0.00  0.00    +0.000 OA
ATOM     21  N   UNL     1       1.218   8.570  21.832  0.00  0.00    +0.000 N 
ATOM     22  C   UNL     1       1.381   8.641  20.443  0.00  0.00    +0.000 A 
ATOM     23  C   UNL     1       2.025   7.598  19.775  0.00  0.00    +0.000 A 
ATOM     24  F   UNL     1       2.416   6.509  20.453  0.00  0.00    +0.000 F 
ATOM     25  C   UNL     1       2.271   7.672  18.411  0.00  0.00    +0.000 A 
ATOM     26  C   UNL     1       1.894   8.816  17.714  0.00  0.00    +0.000 A 
ATOM     27  C   UNL     1       1.226   9.854  18.373  0.00  0.00    +0.000 A 
ATOM     28  C   UNL     1       0.922   9.768  19.743  0.00  0.00    +0.000 A 
ATOM     29  H   UNL     1       1.606   7.782  22.339  0.00  0.00    +0.000 HD
ENDBRANCH  16  17
ENDBRANCH   3  16
TORSDOF 4
ENDMDL
MODEL 7
REMARK VINA RESULT:      -8.3      7.629     10.168
REMARK  Name = 
REMARK  4 active torsions:
REMARK  status: ('A' for Active; 'I' for Inactive)
REMARK    1  A    between atoms: C_2  and  C_3
REMARK    2  A    between atoms: N_8  and  C_9
REMARK    3  A    between atoms: N_8  and  C_22
REMARK    4  A    between atoms: C_9  and  C_10
REMARK                            x       y       z     vdW  Elec       q    Type
REMARK                         _______ _______ _______ _____ _____    ______ ____
ROOT
ATOM      1  O   UNL     1       2.352  11.963  18.505  0.00  0.00    +0.000 OA
ATOM      2  C   UNL     1       1.201  11.894  18.944  0.00  0.00    +0.000 C 
ATOM      3  N   UNL     1       0.532  10.641  19.029  0.00  0.00    +0.000 N 
ENDROOT
BRANCH   3   4
ATOM      4  C   UNL     1       1.283   9.408  18.848  0.00  0.00    +0.000 A 
ATOM      5  C   UNL     1       2.045   9.178  17.687  0.00  0.00    +0.000 A 
ATOM      6  C   UNL     1       2.774   7.998  17.504  0.00  0.00    +0.000 A 
ATOM      7  C   UNL     1       2.769   7.017  18.486  0.00  0.00    +0.000 A 
ATOM      8  C   UNL     1       2.045   7.231  19.652  0.00  0.00    +0.000 A 
ATOM      9 CL   UNL     1       2.040   6.030  20.885  0.00  0.00    +0.000 Cl
ATOM     10  C   UNL     1       1.320   8.418  19.841  0.00  0.00    +0.000 A 
ENDBRANCH   3   4
BRANCH   2  11
ATOM     11  C   UNL     1       0.595  13.146  19.400  0.00  0.00    +0.000 A 
ATOM     12  C   UNL     1      -0.137  14.004  18.589  0.00  0.00    +0.000 A 
ATOM     13  N   UNL     1      -0.700  15.105  19.203  0.00  0.00    +0.000 NA
ATOM     14  C   UNL     1      -0.468  15.036  20.493  0.00  0.00    +0.000 A 
ATOM     15  S   UNL     1       0.432  13.681  21.017  0.00  0.00    +0.000 S 
ENDBRANCH   2  11
BRANCH   3  16
ATOM     16  C   UNL     1      -0.868  10.486  19.460  0.00  0.00    +0.000 C 
BRANCH  16  17
ATOM     17  C   UNL     1      -1.894  10.667  18.355  0.00  0.00    +0.000 A 
ATOM     18  C   UNL     1      -1.811  10.104  17.133  0.00  0.00    +0.000 A 
ATOM     19  C   UNL     1      -2.867  10.254  16.100  0.00  0.00    +0.000 A 
ATOM     20  O   UNL     1      -2.713   9.796  14.975  0.00  0.00    +0.000 OA
ATOM     21  N   UNL     1      -4.006  10.888  16.491  0.00  0.00    +0.000 N 
ATOM     22  C   UNL     1      -4.154  11.515  17.734  0.00  0.00    +0.000 A 
ATOM     23  C   UNL     1      -5.345  12.181  18.027  0.00  0.00    +0.000 A 
ATOM     24  F   UNL     1      -6.361  12.153  17.151  0.00  0.00    +0.000 F 
ATOM     25  C   UNL     1      -5.496  12.877  19.218  0.00  0.00    +0.000 A 
ATOM     26  C   UNL     1      -4.431  12.933  20.112  0.00  0.00    +0.000 A 
ATOM     27  C   UNL     1      -3.243  12.246  19.836  0.00  0.00    +0.000 A 
ATOM     28  C   UNL     1      -3.097  11.493  18.658  0.00  0.00    +0.000 A 
ATOM     29  H   UNL     1      -4.749  10.961  15.805  0.00  0.00    +0.000 HD
ENDBRANCH  16  17
ENDBRANCH   3  16
TORSDOF 4
ENDMDL
MODEL 8
REMARK VINA RESULT:      -8.2      7.643     10.965
REMARK  Name = 
REMARK  4 active torsions:
REMARK  status: ('A' for Active; 'I' for Inactive)
REMARK    1  A    between atoms: C_2  and  C_3
REMARK    2  A    between atoms: N_8  and  C_9
REMARK    3  A    between atoms: N_8  and  C_22
REMARK    4  A    between atoms: C_9  and  C_10
REMARK                            x       y       z     vdW  Elec       q    Type
REMARK                         _______ _______ _______ _____ _____    ______ ____
ROOT
ATOM      1  O   UNL     1      -2.796  13.964  20.526  0.00  0.00    +0.000 OA
ATOM      2  C   UNL     1      -1.629  13.623  20.316  0.00  0.00    +0.000 C 
ATOM      3  N   UNL     1      -1.338  12.521  19.465  0.00  0.00    +0.000 N 
ENDROOT
BRANCH   3   4
ATOM      4  C   UNL     1      -2.388  11.954  18.632  0.00  0.00    +0.000 A 
ATOM      5  C   UNL     1      -3.722  11.894  19.077  0.00  0.00    +0.000 A 
ATOM      6  C   UNL     1      -4.742  11.355  18.284  0.00  0.00    +0.000 A 
ATOM      7  C   UNL     1      -4.454  10.871  17.015  0.00  0.00    +0.000 A 
ATOM      8  C   UNL     1      -3.148  10.942  16.544  0.00  0.00    +0.000 A 
ATOM      9 CL   UNL     1      -2.778  10.358  14.968  0.00  0.00    +0.000 Cl
ATOM     10  C   UNL     1      -2.127  11.490  17.335  0.00  0.00    +0.000 A 
ENDBRANCH   3   4
BRANCH   2  11
ATOM     11  C   UNL     1      -0.584  14.430  20.951  0.00  0.00    +0.000 A 
ATOM     12  C   UNL     1      -0.183  14.292  22.273  0.00  0.00    +0.000 A 
ATOM     13  N   UNL     1       0.870  15.086  22.685  0.00  0.00    +0.000 NA
ATOM     14  C   UNL     1       1.320  15.761  21.653  0.00  0.00    +0.000 A 
ATOM     15  S   UNL     1       0.509  15.491  20.173  0.00  0.00    +0.000 S 
ENDBRANCH   2  11
BRANCH   3  16
ATOM     16  C   UNL     1       0.020  12.000  19.233  0.00  0.00    +0.000 C 
BRANCH  16  17
ATOM     17  C   UNL     1       0.433  10.872  20.164  0.00  0.00    +0.000 A 
ATOM     18  C   UNL     1       0.151  10.823  21.481  0.00  0.00    +0.000 A 
ATOM     19  C   UNL     1       0.518   9.673  22.344  0.00  0.00    +0.000 A 
ATOM     20  O   UNL     1       0.317   9.707  23.552  0.00  0.00    +0.000 OA
ATOM     21  N   UNL     1       1.046   8.590  21.713  0.00  0.00    +0.000 N 
ATOM     22  C   UNL     1       1.387   8.577  20.354  0.00  0.00    +0.000 A 
ATOM     23  C   UNL     1       1.967   7.433  19.805  0.00  0.00    +0.000 A 
ATOM     24  F   UNL     1       2.127   6.335  20.559  0.00  0.00    +0.000 F 
ATOM     25  C   UNL     1       2.386   7.413  18.482  0.00  0.00    +0.000 A 
ATOM     26  C   UNL     1       2.249   8.562  17.709  0.00  0.00    +0.000 A 
ATOM     27  C   UNL     1       1.646   9.705  18.247  0.00  0.00    +0.000 A 
ATOM     28  C   UNL     1       1.168   9.720  19.568  0.00  0.00    +0.000 A 
ATOM     29  H   UNL     1       1.264   7.784  22.288  0.00  0.00    +0.000 HD
ENDBRANCH  16  17
ENDBRANCH   3  16
TORSDOF 4
ENDMDL
MODEL 9
REMARK VINA RESULT:      -8.1      2.492      4.715
REMARK  Name = 
REMARK  4 active torsions:
REMARK  status: ('A' for Active; 'I' for Inactive)
REMARK    1  A    between atoms: C_2  and  C_3
REMARK    2  A    between atoms: N_8  and  C_9
REMARK    3  A    between atoms: N_8  and  C_22
REMARK    4  A    between atoms: C_9  and  C_10
REMARK                            x       y       z     vdW  Elec       q    Type
REMARK                         _______ _______ _______ _____ _____    ______ ____
ROOT
ATOM      1  O   UNL     1       7.647   5.900  14.788  0.00  0.00    +0.000 OA
ATOM      2  C   UNL     1       6.996   5.264  15.620  0.00  0.00    +0.000 C 
ATOM      3  N   UNL     1       6.014   4.321  15.206  0.00  0.00    +0.000 N 
ENDROOT
BRANCH   3   4
ATOM      4  C   UNL     1       5.953   3.908  13.812  0.00  0.00    +0.000 A 
ATOM      5  C   UNL     1       7.123   3.658  13.071  0.00  0.00    +0.000 A 
ATOM      6  C   UNL     1       7.077   3.257  11.730  0.00  0.00    +0.000 A 
ATOM      7  C   UNL     1       5.854   3.084  11.098  0.00  0.00    +0.000 A 
ATOM      8  C   UNL     1       4.684   3.300  11.816  0.00  0.00    +0.000 A 
ATOM      9 CL   UNL     1       3.159   3.077  11.049  0.00  0.00    +0.000 Cl
ATOM     10  C   UNL     1       4.729   3.694  13.162  0.00  0.00    +0.000 A 
ENDBRANCH   3   4
BRANCH   2  11
ATOM     11  C   UNL     1       7.316   5.505  17.029  0.00  0.00    +0.000 A 
ATOM     12  C   UNL     1       7.780   4.532  17.904  0.00  0.00    +0.000 A 
ATOM     13  N   UNL     1       8.103   4.952  19.179  0.00  0.00    +0.000 NA
ATOM     14  C   UNL     1       7.965   6.255  19.244  0.00  0.00    +0.000 A 
ATOM     15  S   UNL     1       7.438   7.022  17.811  0.00  0.00    +0.000 S 
ENDBRANCH   2  11
BRANCH   3  16
ATOM     16  C   UNL     1       5.138   3.588  16.134  0.00  0.00    +0.000 C 
BRANCH  16  17
ATOM     17  C   UNL     1       4.267   4.470  17.014  0.00  0.00    +0.000 A 
ATOM     18  C   UNL     1       4.200   5.813  16.923  0.00  0.00    +0.000 A 
ATOM     19  C   UNL     1       3.290   6.634  17.760  0.00  0.00    +0.000 A 
ATOM     20  O   UNL     1       3.321   7.857  17.704  0.00  0.00    +0.000 OA
ATOM     21  N   UNL     1       2.414   5.952  18.546  0.00  0.00    +0.000 N 
ATOM     22  C   UNL     1       2.441   4.561  18.706  0.00  0.00    +0.000 A 
ATOM     23  C   UNL     1       1.529   3.954  19.572  0.00  0.00    +0.000 A 
ATOM     24  F   UNL     1       0.592   4.694  20.184  0.00  0.00    +0.000 F 
ATOM     25  C   UNL     1       1.577   2.588  19.812  0.00  0.00    +0.000 A 
ATOM     26  C   UNL     1       2.570   1.826  19.202  0.00  0.00    +0.000 A 
ATOM     27  C   UNL     1       3.471   2.425  18.314  0.00  0.00    +0.000 A 
ATOM     28  C   UNL     1       3.398   3.797  18.020  0.00  0.00    +0.000 A 
ATOM     29  H   UNL     1       1.761   6.503  19.091  0.00  0.00    +0.000 HD
ENDBRANCH  16  17
ENDBRANCH   3  16
TORSDOF 4
ENDMDL
