MODEL 1
REMARK VINA RESULT:      -9.0      0.000      0.000
REMARK  Name = 
REMARK  6 active torsions:
REMARK  status: ('A' for Active; 'I' for Inactive)
REMARK    1  A    between atoms: C_2  and  C_3
REMARK    2  A    between atoms: C_3  and  O_4
REMARK    3  A    between atoms: O_4  and  C_5
REMARK    4  A    between atoms: C_5  and  C_7
REMARK    5  A    between atoms: C_11  and  N_12
REMARK    6  A    between atoms: N_24  and  C_25
REMARK                            x       y       z     vdW  Elec       q    Type
REMARK                         _______ _______ _______ _____ _____    ______ ____
ROOT
ATOM      1  C   UNL     1       5.542   5.183  17.372  0.00  0.00    +0.000 A 
ATOM      2  C   UNL     1       4.927   4.040  16.866  0.00  0.00    +0.000 A 
ATOM      3  C   UNL     1       3.558   3.875  17.052  0.00  0.00    +0.000 A 
ATOM      4  C   UNL     1       2.818   4.856  17.726  0.00  0.00    +0.000 A 
ATOM      5  C   UNL     1       3.410   6.022  18.241  0.00  0.00    +0.000 A 
ATOM      6  C   UNL     1       4.794   6.146  18.077  0.00  0.00    +0.000 A 
ENDROOT
BRANCH   5   7
ATOM      7  N   UNL     1       2.634   7.051  18.863  0.00  0.00    +0.000 N 
ATOM      8  C   UNL     1       2.049   6.933  20.104  0.00  0.00    +0.000 C 
ATOM      9  O   UNL     1       2.055   6.039  20.937  0.00  0.00    +0.000 OA
ATOM     10  C   UNL     1       1.275   8.136  20.342  0.00  0.00    +0.000 A 
ATOM     11  C   UNL     1       0.503   8.472  21.436  0.00  0.00    +0.000 A 
ATOM     12  C   UNL     1      -0.215   9.664  21.367  0.00  0.00    +0.000 A 
ATOM     13  C   UNL     1      -0.146  10.475  20.216  0.00  0.00    +0.000 A 
ATOM     14  C   UNL     1       0.665  10.119  19.130  0.00  0.00    +0.000 A 
ATOM     15  C   UNL     1       1.377   8.936  19.228  0.00  0.00    +0.000 A 
ATOM     16  C   UNL     1       2.281   8.264  18.294  0.00  0.00    +0.000 C 
ATOM     17  O   UNL     1       2.585   8.788  17.236  0.00  0.00    +0.000 OA
ENDBRANCH   5   7
BRANCH   1  18
ATOM     18  C   UNL     1       7.002   5.360  17.173  0.00  0.00    +0.000 C 
ATOM     19  O   UNL     1       7.812   4.461  17.039  0.00  0.00    +0.000 OA
BRANCH  18  20
ATOM     20  O   UNL     1       7.277   6.685  17.203  0.00  0.00    +0.000 OA
BRANCH  20  21
ATOM     21  C   UNL     1       8.014   7.128  18.341  0.00  0.00    +0.000 C 
BRANCH  21  23
ATOM     22  O   UNL     1       7.490   9.323  17.536  0.00  0.00    +0.000 OA
ATOM     23  C   UNL     1       8.208   8.642  18.265  0.00  0.00    +0.000 C 
ATOM     24  N   UNL     1       9.220   9.116  19.082  0.00  0.00    +0.000 N 
ATOM     25  H   UNL     1       9.778   8.428  19.583  0.00  0.00    +0.000 HD
BRANCH  24  26
ATOM     26  C   UNL     1       9.528  10.470  19.325  0.00  0.00    +0.000 A 
ATOM     27  C   UNL     1      10.052  11.316  18.344  0.00  0.00    +0.000 A 
ATOM     28  C   UNL     1      10.321  12.657  18.628  0.00  0.00    +0.000 A 
ATOM     29  C   UNL     1      10.080  13.161  19.903  0.00  0.00    +0.000 A 
ATOM     30  C   UNL     1       9.555  12.327  20.889  0.00  0.00    +0.000 A 
ATOM     31  C   UNL     1       9.264  10.990  20.597  0.00  0.00    +0.000 A 
ENDBRANCH  24  26
ENDBRANCH  21  23
ENDBRANCH  20  21
ENDBRANCH  18  20
ENDBRANCH   1  18
TORSDOF 6
ENDMDL
MODEL 2
REMARK VINA RESULT:      -8.8      0.841      1.827
REMARK  Name = 
REMARK  6 active torsions:
REMARK  status: ('A' for Active; 'I' for Inactive)
REMARK    1  A    between atoms: C_2  and  C_3
REMARK    2  A    between atoms: C_3  and  O_4
REMARK    3  A    between atoms: O_4  and  C_5
REMARK    4  A    between atoms: C_5  and  C_7
REMARK    5  A    between atoms: C_11  and  N_12
REMARK    6  A    between atoms: N_24  and  C_25
REMARK                            x       y       z     vdW  Elec       q    Type
REMARK                         _______ _______ _______ _____ _____    ______ ____
ROOT
ATOM      1  C   UNL     1       5.698   5.026  17.465  0.00  0.00    +0.000 A 
ATOM      2  C   UNL     1       5.129   3.944  16.796  0.00  0.00    +0.000 A 
ATOM      3  C   UNL     1       3.747   3.785  16.828  0.00  0.00    +0.000 A 
ATOM      4  C   UNL     1       2.949   4.712  17.513  0.00  0.00    +0.000 A 
ATOM      5  C   UNL     1       3.494   5.816  18.191  0.00  0.00    +0.000 A 
ATOM      6  C   UNL     1       4.888   5.932  18.178  0.00  0.00    +0.000 A 
ENDROOT
BRANCH   5   7
ATOM      7  N   UNL     1       2.667   6.796  18.825  0.00  0.00    +0.000 N 
ATOM      8  C   UNL     1       2.373   8.026  18.280  0.00  0.00    +0.000 C 
ATOM      9  O   UNL     1       2.671   8.551  17.218  0.00  0.00    +0.000 OA
ATOM     10  C   UNL     1       1.593   8.764  19.256  0.00  0.00    +0.000 A 
ATOM     11  C   UNL     1       1.081  10.043  19.172  0.00  0.00    +0.000 A 
ATOM     12  C   UNL     1       0.438  10.547  20.302  0.00  0.00    +0.000 A 
ATOM     13  C   UNL     1       0.333   9.768  21.472  0.00  0.00    +0.000 A 
ATOM     14  C   UNL     1       0.842   8.462  21.518  0.00  0.00    +0.000 A 
ATOM     15  C   UNL     1       1.465   7.982  20.379  0.00  0.00    +0.000 A 
ATOM     16  C   UNL     1       2.115   6.702  20.093  0.00  0.00    +0.000 C 
ATOM     17  O   UNL     1       2.104   5.801  20.912  0.00  0.00    +0.000 OA
ENDBRANCH   5   7
BRANCH   1  18
ATOM     18  C   UNL     1       7.172   5.196  17.431  0.00  0.00    +0.000 C 
ATOM     19  O   UNL     1       7.980   4.483  17.997  0.00  0.00    +0.000 OA
BRANCH  18  20
ATOM     20  O   UNL     1       7.454   6.296  16.694  0.00  0.00    +0.000 OA
BRANCH  20  21
ATOM     21  C   UNL     1       6.962   7.526  17.224  0.00  0.00    +0.000 C 
BRANCH  21  23
ATOM     22  O   UNL     1       8.658   7.460  18.915  0.00  0.00    +0.000 OA
ATOM     23  C   UNL     1       8.026   8.156  18.123  0.00  0.00    +0.000 C 
ATOM     24  N   UNL     1       8.186   9.517  17.928  0.00  0.00    +0.000 N 
ATOM     25  H   UNL     1       7.546   9.975  17.283  0.00  0.00    +0.000 HD
BRANCH  24  26
ATOM     26  C   UNL     1       9.182  10.329  18.507  0.00  0.00    +0.000 A 
ATOM     27  C   UNL     1      10.174  10.964  17.755  0.00  0.00    +0.000 A 
ATOM     28  C   UNL     1      11.127  11.775  18.373  0.00  0.00    +0.000 A 
ATOM     29  C   UNL     1      11.106  11.948  19.754  0.00  0.00    +0.000 A 
ATOM     30  C   UNL     1      10.120  11.322  20.514  0.00  0.00    +0.000 A 
ATOM     31  C   UNL     1       9.151  10.528  19.892  0.00  0.00    +0.000 A 
ENDBRANCH  24  26
ENDBRANCH  21  23
ENDBRANCH  20  21
ENDBRANCH  18  20
ENDBRANCH   1  18
TORSDOF 6
ENDMDL
MODEL 3
REMARK VINA RESULT:      -8.8      0.957      1.303
REMARK  Name = 
REMARK  6 active torsions:
REMARK  status: ('A' for Active; 'I' for Inactive)
REMARK    1  A    between atoms: C_2  and  C_3
REMARK    2  A    between atoms: C_3  and  O_4
REMARK    3  A    between atoms: O_4  and  C_5
REMARK    4  A    between atoms: C_5  and  C_7
REMARK    5  A    between atoms: C_11  and  N_12
REMARK    6  A    between atoms: N_24  and  C_25
REMARK                            x       y       z     vdW  Elec       q    Type
REMARK                         _______ _______ _______ _____ _____    ______ ____
ROOT
ATOM      1  C   UNL     1       4.848   5.393  17.334  0.00  0.00    +0.000 A 
ATOM      2  C   UNL     1       4.132   4.259  16.957  0.00  0.00    +0.000 A 
ATOM      3  C   UNL     1       2.789   4.165  17.308  0.00  0.00    +0.000 A 
ATOM      4  C   UNL     1       2.173   5.207  18.015  0.00  0.00    +0.000 A 
ATOM      5  C   UNL     1       2.869   6.365  18.402  0.00  0.00    +0.000 A 
ATOM      6  C   UNL     1       4.227   6.419  18.073  0.00  0.00    +0.000 A 
ENDROOT
BRANCH   5   7
ATOM      7  N   UNL     1       2.214   7.455  19.059  0.00  0.00    +0.000 N 
ATOM      8  C   UNL     1       1.751   7.408  20.355  0.00  0.00    +0.000 C 
ATOM      9  O   UNL     1       1.793   6.542  21.216  0.00  0.00    +0.000 OA
ATOM     10  C   UNL     1       1.068   8.660  20.624  0.00  0.00    +0.000 A 
ATOM     11  C   UNL     1       0.428   9.072  21.776  0.00  0.00    +0.000 A 
ATOM     12  C   UNL     1      -0.230  10.300  21.734  0.00  0.00    +0.000 A 
ATOM     13  C   UNL     1      -0.234  11.069  20.553  0.00  0.00    +0.000 A 
ATOM     14  C   UNL     1       0.445  10.635  19.406  0.00  0.00    +0.000 A 
ATOM     15  C   UNL     1       1.100   9.418  19.477  0.00  0.00    +0.000 A 
ATOM     16  C   UNL     1       1.870   8.668  18.483  0.00  0.00    +0.000 C 
ATOM     17  O   UNL     1       2.093   9.140  17.383  0.00  0.00    +0.000 OA
ENDBRANCH   5   7
BRANCH   1  18
ATOM     18  C   UNL     1       6.281   5.493  16.959  0.00  0.00    +0.000 C 
ATOM     19  O   UNL     1       6.817   4.890  16.048  0.00  0.00    +0.000 OA
BRANCH  18  20
ATOM     20  O   UNL     1       6.888   6.338  17.825  0.00  0.00    +0.000 OA
BRANCH  20  21
ATOM     21  C   UNL     1       7.309   7.581  17.268  0.00  0.00    +0.000 C 
BRANCH  21  23
ATOM     22  O   UNL     1       8.821   7.644  19.125  0.00  0.00    +0.000 OA
ATOM     23  C   UNL     1       8.250   8.285  18.246  0.00  0.00    +0.000 C 
ATOM     24  N   UNL     1       8.380   9.644  18.015  0.00  0.00    +0.000 N 
ATOM     25  H   UNL     1       7.794  10.053  17.290  0.00  0.00    +0.000 HD
BRANCH  24  26
ATOM     26  C   UNL     1       9.281  10.515  18.660  0.00  0.00    +0.000 A 
ATOM     27  C   UNL     1       9.249  10.756  20.036  0.00  0.00    +0.000 A 
ATOM     28  C   UNL     1      10.177  11.612  20.631  0.00  0.00    +0.000 A 
ATOM     29  C   UNL     1      11.140  12.248  19.852  0.00  0.00    +0.000 A 
ATOM     30  C   UNL     1      11.183  12.014  18.479  0.00  0.00    +0.000 A 
ATOM     31  C   UNL     1      10.267  11.138  17.886  0.00  0.00    +0.000 A 
ENDBRANCH  24  26
ENDBRANCH  21  23
ENDBRANCH  20  21
ENDBRANCH  18  20
ENDBRANCH   1  18
TORSDOF 6
ENDMDL
MODEL 4
REMARK VINA RESULT:      -8.7      3.847      5.311
REMARK  Name = 
REMARK  6 active torsions:
REMARK  status: ('A' for Active; 'I' for Inactive)
REMARK    1  A    between atoms: C_2  and  C_3
REMARK    2  A    between atoms: C_3  and  O_4
REMARK    3  A    between atoms: O_4  and  C_5
REMARK    4  A    between atoms: C_5  and  C_7
REMARK    5  A    between atoms: C_11  and  N_12
REMARK    6  A    between atoms: N_24  and  C_25
REMARK                            x       y       z     vdW  Elec       q    Type
REMARK                         _______ _______ _______ _____ _____    ______ ____
ROOT
ATOM      1  C   UNL     1       3.620   4.510  19.266  0.00  0.00    +0.000 A 
ATOM      2  C   UNL     1       2.878   3.622  20.042  0.00  0.00    +0.000 A 
ATOM      3  C   UNL     1       1.813   4.113  20.791  0.00  0.00    +0.000 A 
ATOM      4  C   UNL     1       1.492   5.476  20.747  0.00  0.00    +0.000 A 
ATOM      5  C   UNL     1       2.218   6.393  19.968  0.00  0.00    +0.000 A 
ATOM      6  C   UNL     1       3.309   5.883  19.255  0.00  0.00    +0.000 A 
ENDROOT
BRANCH   5   7
ATOM      7  N   UNL     1       1.838   7.769  19.872  0.00  0.00    +0.000 N 
ATOM      8  C   UNL     1       1.351   8.510  20.925  0.00  0.00    +0.000 C 
ATOM      9  O   UNL     1       1.162   8.245  22.103  0.00  0.00    +0.000 OA
ATOM     10  C   UNL     1       0.992   9.819  20.414  0.00  0.00    +0.000 A 
ATOM     11  C   UNL     1       0.449  10.897  21.085  0.00  0.00    +0.000 A 
ATOM     12  C   UNL     1       0.114  12.017  20.326  0.00  0.00    +0.000 A 
ATOM     13  C   UNL     1       0.324  12.025  18.932  0.00  0.00    +0.000 A 
ATOM     14  C   UNL     1       0.899  10.924  18.282  0.00  0.00    +0.000 A 
ATOM     15  C   UNL     1       1.233   9.829  19.060  0.00  0.00    +0.000 A 
ATOM     16  C   UNL     1       1.815   8.531  18.714  0.00  0.00    +0.000 C 
ATOM     17  O   UNL     1       2.170   8.293  17.574  0.00  0.00    +0.000 OA
ENDBRANCH   5   7
BRANCH   1  18
ATOM     18  C   UNL     1       4.755   3.987  18.466  0.00  0.00    +0.000 C 
ATOM     19  O   UNL     1       4.658   3.308  17.460  0.00  0.00    +0.000 OA
BRANCH  18  20
ATOM     20  O   UNL     1       5.907   4.363  19.068  0.00  0.00    +0.000 OA
BRANCH  20  21
ATOM     21  C   UNL     1       6.620   5.413  18.417  0.00  0.00    +0.000 C 
BRANCH  21  23
ATOM     22  O   UNL     1       8.152   4.168  17.059  0.00  0.00    +0.000 OA
ATOM     23  C   UNL     1       7.169   4.906  17.084  0.00  0.00    +0.000 C 
ATOM     24  N   UNL     1       6.452   5.342  15.983  0.00  0.00    +0.000 N 
ATOM     25  H   UNL     1       5.697   6.004  16.149  0.00  0.00    +0.000 HD
BRANCH  24  26
ATOM     26  C   UNL     1       6.637   4.922  14.650  0.00  0.00    +0.000 A 
ATOM     27  C   UNL     1       7.627   5.453  13.818  0.00  0.00    +0.000 A 
ATOM     28  C   UNL     1       7.783   4.989  12.511  0.00  0.00    +0.000 A 
ATOM     29  C   UNL     1       6.941   3.997  12.017  0.00  0.00    +0.000 A 
ATOM     30  C   UNL     1       5.952   3.458  12.838  0.00  0.00    +0.000 A 
ATOM     31  C   UNL     1       5.811   3.907  14.156  0.00  0.00    +0.000 A 
ENDBRANCH  24  26
ENDBRANCH  21  23
ENDBRANCH  20  21
ENDBRANCH  18  20
ENDBRANCH   1  18
TORSDOF 6
ENDMDL
MODEL 5
REMARK VINA RESULT:      -8.7      3.441      5.107
REMARK  Name = 
REMARK  6 active torsions:
REMARK  status: ('A' for Active; 'I' for Inactive)
REMARK    1  A    between atoms: C_2  and  C_3
REMARK    2  A    between atoms: C_3  and  O_4
REMARK    3  A    between atoms: O_4  and  C_5
REMARK    4  A    between atoms: C_5  and  C_7
REMARK    5  A    between atoms: C_11  and  N_12
REMARK    6  A    between atoms: N_24  and  C_25
REMARK                            x       y       z     vdW  Elec       q    Type
REMARK                         _______ _______ _______ _____ _____    ______ ____
ROOT
ATOM      1  C   UNL     1       4.172   5.103  18.732  0.00  0.00    +0.000 A 
ATOM      2  C   UNL     1       3.352   4.194  18.067  0.00  0.00    +0.000 A 
ATOM      3  C   UNL     1       2.025   4.536  17.829  0.00  0.00    +0.000 A 
ATOM      4  C   UNL     1       1.535   5.782  18.242  0.00  0.00    +0.000 A 
ATOM      5  C   UNL     1       2.341   6.722  18.908  0.00  0.00    +0.000 A 
ATOM      6  C   UNL     1       3.661   6.339  19.171  0.00  0.00    +0.000 A 
ENDROOT
BRANCH   5   7
ATOM      7  N   UNL     1       1.852   8.020  19.260  0.00  0.00    +0.000 N 
ATOM      8  C   UNL     1       1.311   8.333  20.486  0.00  0.00    +0.000 C 
ATOM      9  O   UNL     1       1.146   7.682  21.507  0.00  0.00    +0.000 OA
ATOM     10  C   UNL     1       0.848   9.707  20.425  0.00  0.00    +0.000 A 
ATOM     11  C   UNL     1       0.223  10.459  21.399  0.00  0.00    +0.000 A 
ATOM     12  C   UNL     1      -0.202  11.738  21.043  0.00  0.00    +0.000 A 
ATOM     13  C   UNL     1       0.003  12.220  19.734  0.00  0.00    +0.000 A 
ATOM     14  C   UNL     1       0.662  11.441  18.772  0.00  0.00    +0.000 A 
ATOM     15  C   UNL     1       1.084  10.180  19.155  0.00  0.00    +0.000 A 
ATOM     16  C   UNL     1       1.766   9.116  18.417  0.00  0.00    +0.000 C 
ATOM     17  O   UNL     1       2.137   9.294  17.270  0.00  0.00    +0.000 OA
ENDBRANCH   5   7
BRANCH   1  18
ATOM     18  C   UNL     1       5.589   4.739  18.985  0.00  0.00    +0.000 C 
ATOM     19  O   UNL     1       6.009   3.610  19.159  0.00  0.00    +0.000 OA
BRANCH  18  20
ATOM     20  O   UNL     1       6.319   5.878  19.024  0.00  0.00    +0.000 OA
BRANCH  20  21
ATOM     21  C   UNL     1       7.414   5.932  18.112  0.00  0.00    +0.000 C 
BRANCH  21  23
ATOM     22  O   UNL     1       6.186   6.824  16.258  0.00  0.00    +0.000 OA
ATOM     23  C   UNL     1       6.884   5.904  16.678  0.00  0.00    +0.000 C 
ATOM     24  N   UNL     1       7.282   4.790  15.959  0.00  0.00    +0.000 N 
ATOM     25  H   UNL     1       7.807   4.074  16.456  0.00  0.00    +0.000 HD
BRANCH  24  26
ATOM     26  C   UNL     1       7.068   4.569  14.583  0.00  0.00    +0.000 A 
ATOM     27  C   UNL     1       6.076   3.712  14.098  0.00  0.00    +0.000 A 
ATOM     28  C   UNL     1       5.890   3.542  12.725  0.00  0.00    +0.000 A 
ATOM     29  C   UNL     1       6.704   4.218  11.822  0.00  0.00    +0.000 A 
ATOM     30  C   UNL     1       7.695   5.078  12.293  0.00  0.00    +0.000 A 
ATOM     31  C   UNL     1       7.866   5.266  13.669  0.00  0.00    +0.000 A 
ENDBRANCH  24  26
ENDBRANCH  21  23
ENDBRANCH  20  21
ENDBRANCH  18  20
ENDBRANCH   1  18
TORSDOF 6
ENDMDL
MODEL 6
REMARK VINA RESULT:      -8.6      3.609      5.629
REMARK  Name = 
REMARK  6 active torsions:
REMARK  status: ('A' for Active; 'I' for Inactive)
REMARK    1  A    between atoms: C_2  and  C_3
REMARK    2  A    between atoms: C_3  and  O_4
REMARK    3  A    between atoms: O_4  and  C_5
REMARK    4  A    between atoms: C_5  and  C_7
REMARK    5  A    between atoms: C_11  and  N_12
REMARK    6  A    between atoms: N_24  and  C_25
REMARK                            x       y       z     vdW  Elec       q    Type
REMARK                         _______ _______ _______ _____ _____    ______ ____
ROOT
ATOM      1  C   UNL     1       3.805   5.237  19.628  0.00  0.00    +0.000 A 
ATOM      2  C   UNL     1       3.014   4.192  20.103  0.00  0.00    +0.000 A 
ATOM      3  C   UNL     1       1.748   4.482  20.603  0.00  0.00    +0.000 A 
ATOM      4  C   UNL     1       1.280   5.802  20.609  0.00  0.00    +0.000 A 
ATOM      5  C   UNL     1       2.053   6.875  20.129  0.00  0.00    +0.000 A 
ATOM      6  C   UNL     1       3.337   6.564  19.669  0.00  0.00    +0.000 A 
ENDROOT
BRANCH   5   7
ATOM      7  N   UNL     1       1.538   8.209  20.072  0.00  0.00    +0.000 N 
ATOM      8  C   UNL     1       1.419   8.940  18.912  0.00  0.00    +0.000 C 
ATOM      9  O   UNL     1       1.657   8.678  17.743  0.00  0.00    +0.000 OA
ATOM     10  C   UNL     1       0.952  10.266  19.274  0.00  0.00    +0.000 A 
ATOM     11  C   UNL     1       0.699  11.351  18.459  0.00  0.00    +0.000 A 
ATOM     12  C   UNL     1       0.341  12.545  19.083  0.00  0.00    +0.000 A 
ATOM     13  C   UNL     1       0.254  12.620  20.488  0.00  0.00    +0.000 A 
ATOM     14  C   UNL     1       0.495  11.494  21.287  0.00  0.00    +0.000 A 
ATOM     15  C   UNL     1       0.836  10.318  20.643  0.00  0.00    +0.000 A 
ATOM     16  C   UNL     1       1.170   8.989  21.157  0.00  0.00    +0.000 C 
ATOM     17  O   UNL     1       1.099   8.747  22.349  0.00  0.00    +0.000 OA
ENDBRANCH   5   7
BRANCH   1  18
ATOM     18  C   UNL     1       5.155   4.928  19.094  0.00  0.00    +0.000 C 
ATOM     19  O   UNL     1       5.831   3.963  19.397  0.00  0.00    +0.000 OA
BRANCH  18  20
ATOM     20  O   UNL     1       5.512   5.921  18.246  0.00  0.00    +0.000 OA
BRANCH  20  21
ATOM     21  C   UNL     1       6.912   6.031  17.994  0.00  0.00    +0.000 C 
BRANCH  21  23
ATOM     22  O   UNL     1       8.051   4.267  16.840  0.00  0.00    +0.000 OA
ATOM     23  C   UNL     1       7.272   5.213  16.753  0.00  0.00    +0.000 C 
ATOM     24  N   UNL     1       6.634   5.639  15.601  0.00  0.00    +0.000 N 
ATOM     25  H   UNL     1       6.065   6.480  15.664  0.00  0.00    +0.000 HD
BRANCH  24  26
ATOM     26  C   UNL     1       6.662   4.993  14.348  0.00  0.00    +0.000 A 
ATOM     27  C   UNL     1       7.628   5.264  13.376  0.00  0.00    +0.000 A 
ATOM     28  C   UNL     1       7.624   4.582  12.158  0.00  0.00    +0.000 A 
ATOM     29  C   UNL     1       6.644   3.629  11.895  0.00  0.00    +0.000 A 
ATOM     30  C   UNL     1       5.677   3.348  12.857  0.00  0.00    +0.000 A 
ATOM     31  C   UNL     1       5.694   4.016  14.087  0.00  0.00    +0.000 A 
ENDBRANCH  24  26
ENDBRANCH  21  23
ENDBRANCH  20  21
ENDBRANCH  18  20
ENDBRANCH   1  18
TORSDOF 6
ENDMDL
MODEL 7
REMARK VINA RESULT:      -8.5      3.225      5.357
REMARK  Name = 
REMARK  6 active torsions:
REMARK  status: ('A' for Active; 'I' for Inactive)
REMARK    1  A    between atoms: C_2  and  C_3
REMARK    2  A    between atoms: C_3  and  O_4
REMARK    3  A    between atoms: O_4  and  C_5
REMARK    4  A    between atoms: C_5  and  C_7
REMARK    5  A    between atoms: C_11  and  N_12
REMARK    6  A    between atoms: N_24  and  C_25
REMARK                            x       y       z     vdW  Elec       q    Type
REMARK                         _______ _______ _______ _____ _____    ______ ____
ROOT
ATOM      1  C   UNL     1       4.623   5.181  18.943  0.00  0.00    +0.000 A 
ATOM      2  C   UNL     1       3.890   3.996  18.940  0.00  0.00    +0.000 A 
ATOM      3  C   UNL     1       2.515   4.056  19.144  0.00  0.00    +0.000 A 
ATOM      4  C   UNL     1       1.887   5.294  19.333  0.00  0.00    +0.000 A 
ATOM      5  C   UNL     1       2.599   6.506  19.334  0.00  0.00    +0.000 A 
ATOM      6  C   UNL     1       3.985   6.417  19.167  0.00  0.00    +0.000 A 
ENDROOT
BRANCH   5   7
ATOM      7  N   UNL     1       1.939   7.770  19.455  0.00  0.00    +0.000 N 
ATOM      8  C   UNL     1       1.884   8.710  18.451  0.00  0.00    +0.000 C 
ATOM      9  O   UNL     1       2.302   8.718  17.303  0.00  0.00    +0.000 OA
ATOM     10  C   UNL     1       1.217   9.883  18.983  0.00  0.00    +0.000 A 
ATOM     11  C   UNL     1       0.943  11.085  18.362  0.00  0.00    +0.000 A 
ATOM     12  C   UNL     1       0.365  12.087  19.140  0.00  0.00    +0.000 A 
ATOM     13  C   UNL     1       0.088  11.863  20.504  0.00  0.00    +0.000 A 
ATOM     14  C   UNL     1       0.357  10.624  21.101  0.00  0.00    +0.000 A 
ATOM     15  C   UNL     1       0.919   9.642  20.304  0.00  0.00    +0.000 A 
ATOM     16  C   UNL     1       1.342   8.272  20.600  0.00  0.00    +0.000 C 
ATOM     17  O   UNL     1       1.146   7.785  21.699  0.00  0.00    +0.000 OA
ENDBRANCH   5   7
BRANCH   1  18
ATOM     18  C   UNL     1       6.090   5.117  18.724  0.00  0.00    +0.000 C 
ATOM     19  O   UNL     1       6.744   4.097  18.611  0.00  0.00    +0.000 OA
BRANCH  18  20
ATOM     20  O   UNL     1       6.572   6.382  18.712  0.00  0.00    +0.000 OA
BRANCH  20  21
ATOM     21  C   UNL     1       7.411   6.702  17.603  0.00  0.00    +0.000 C 
BRANCH  21  23
ATOM     22  O   UNL     1       5.678   6.817  15.953  0.00  0.00    +0.000 OA
ATOM     23  C   UNL     1       6.724   6.278  16.305  0.00  0.00    +0.000 C 
ATOM     24  N   UNL     1       7.400   5.286  15.616  0.00  0.00    +0.000 N 
ATOM     25  H   UNL     1       8.223   4.885  16.060  0.00  0.00    +0.000 HD
BRANCH  24  26
ATOM     26  C   UNL     1       7.084   4.803  14.330  0.00  0.00    +0.000 A 
ATOM     27  C   UNL     1       7.802   5.163  13.186  0.00  0.00    +0.000 A 
ATOM     28  C   UNL     1       7.461   4.641  11.937  0.00  0.00    +0.000 A 
ATOM     29  C   UNL     1       6.388   3.762  11.817  0.00  0.00    +0.000 A 
ATOM     30  C   UNL     1       5.666   3.394  12.951  0.00  0.00    +0.000 A 
ATOM     31  C   UNL     1       6.022   3.899  14.206  0.00  0.00    +0.000 A 
ENDBRANCH  24  26
ENDBRANCH  21  23
ENDBRANCH  20  21
ENDBRANCH  18  20
ENDBRANCH   1  18
TORSDOF 6
ENDMDL
MODEL 8
REMARK VINA RESULT:      -8.3      3.643      5.628
REMARK  Name = 
REMARK  6 active torsions:
REMARK  status: ('A' for Active; 'I' for Inactive)
REMARK    1  A    between atoms: C_2  and  C_3
REMARK    2  A    between atoms: C_3  and  O_4
REMARK    3  A    between atoms: O_4  and  C_5
REMARK    4  A    between atoms: C_5  and  C_7
REMARK    5  A    between atoms: C_11  and  N_12
REMARK    6  A    between atoms: N_24  and  C_25
REMARK                            x       y       z     vdW  Elec       q    Type
REMARK                         _______ _______ _______ _____ _____    ______ ____
ROOT
ATOM      1  C   UNL     1       4.951   5.187  18.823  0.00  0.00    +0.000 A 
ATOM      2  C   UNL     1       4.296   4.111  18.227  0.00  0.00    +0.000 A 
ATOM      3  C   UNL     1       2.927   4.201  17.996  0.00  0.00    +0.000 A 
ATOM      4  C   UNL     1       2.231   5.365  18.347  0.00  0.00    +0.000 A 
ATOM      5  C   UNL     1       2.866   6.469  18.943  0.00  0.00    +0.000 A 
ATOM      6  C   UNL     1       4.234   6.339  19.202  0.00  0.00    +0.000 A 
ENDROOT
BRANCH   5   7
ATOM      7  N   UNL     1       2.160   7.680  19.231  0.00  0.00    +0.000 N 
ATOM      8  C   UNL     1       1.518   7.934  20.422  0.00  0.00    +0.000 C 
ATOM      9  O   UNL     1       1.411   7.292  21.456  0.00  0.00    +0.000 OA
ATOM     10  C   UNL     1       0.846   9.214  20.295  0.00  0.00    +0.000 A 
ATOM     11  C   UNL     1       0.064   9.881  21.217  0.00  0.00    +0.000 A 
ATOM     12  C   UNL     1      -0.541  11.065  20.800  0.00  0.00    +0.000 A 
ATOM     13  C   UNL     1      -0.354  11.539  19.486  0.00  0.00    +0.000 A 
ATOM     14  C   UNL     1       0.465  10.852  18.580  0.00  0.00    +0.000 A 
ATOM     15  C   UNL     1       1.064   9.685  19.022  0.00  0.00    +0.000 A 
ATOM     16  C   UNL     1       1.941   8.726  18.349  0.00  0.00    +0.000 C 
ATOM     17  O   UNL     1       2.332   8.931  17.213  0.00  0.00    +0.000 OA
ENDBRANCH   5   7
BRANCH   1  18
ATOM     18  C   UNL     1       6.411   5.091  19.068  0.00  0.00    +0.000 C 
ATOM     19  O   UNL     1       6.961   5.259  20.141  0.00  0.00    +0.000 OA
BRANCH  18  20
ATOM     20  O   UNL     1       7.023   4.823  17.891  0.00  0.00    +0.000 OA
BRANCH  20  21
ATOM     21  C   UNL     1       7.181   5.941  17.019  0.00  0.00    +0.000 C 
BRANCH  21  23
ATOM     22  O   UNL     1       5.610   6.501  15.299  0.00  0.00    +0.000 OA
ATOM     23  C   UNL     1       6.425   5.682  15.716  0.00  0.00    +0.000 C 
ATOM     24  N   UNL     1       6.770   4.491  15.099  0.00  0.00    +0.000 N 
ATOM     25  H   UNL     1       7.414   3.878  15.592  0.00  0.00    +0.000 HD
BRANCH  24  26
ATOM     26  C   UNL     1       6.346   4.062  13.824  0.00  0.00    +0.000 A 
ATOM     27  C   UNL     1       5.023   3.713  13.543  0.00  0.00    +0.000 A 
ATOM     28  C   UNL     1       4.649   3.314  12.258  0.00  0.00    +0.000 A 
ATOM     29  C   UNL     1       5.601   3.245  11.245  0.00  0.00    +0.000 A 
ATOM     30  C   UNL     1       6.923   3.593  11.513  0.00  0.00    +0.000 A 
ATOM     31  C   UNL     1       7.293   4.016  12.794  0.00  0.00    +0.000 A 
ENDBRANCH  24  26
ENDBRANCH  21  23
ENDBRANCH  20  21
ENDBRANCH  18  20
ENDBRANCH   1  18
TORSDOF 6
ENDMDL
MODEL 9
REMARK VINA RESULT:      -8.3      1.280      2.312
REMARK  Name = 
REMARK  6 active torsions:
REMARK  status: ('A' for Active; 'I' for Inactive)
REMARK    1  A    between atoms: C_2  and  C_3
REMARK    2  A    between atoms: C_3  and  O_4
REMARK    3  A    between atoms: O_4  and  C_5
REMARK    4  A    between atoms: C_5  and  C_7
REMARK    5  A    between atoms: C_11  and  N_12
REMARK    6  A    between atoms: N_24  and  C_25
REMARK                            x       y       z     vdW  Elec       q    Type
REMARK                         _______ _______ _______ _____ _____    ______ ____
ROOT
ATOM      1  C   UNL     1       4.655   6.089  17.362  0.00  0.00    +0.000 A 
ATOM      2  C   UNL     1       4.208   4.773  17.469  0.00  0.00    +0.000 A 
ATOM      3  C   UNL     1       3.021   4.520  18.148  0.00  0.00    +0.000 A 
ATOM      4  C   UNL     1       2.287   5.579  18.698  0.00  0.00    +0.000 A 
ATOM      5  C   UNL     1       2.709   6.916  18.600  0.00  0.00    +0.000 A 
ATOM      6  C   UNL     1       3.926   7.142  17.948  0.00  0.00    +0.000 A 
ENDROOT
BRANCH   5   7
ATOM      7  N   UNL     1       1.916   7.997  19.102  0.00  0.00    +0.000 N 
ATOM      8  C   UNL     1       1.632   9.140  18.390  0.00  0.00    +0.000 C 
ATOM      9  O   UNL     1       1.913   9.497  17.256  0.00  0.00    +0.000 OA
ATOM     10  C   UNL     1       0.891  10.030  19.263  0.00  0.00    +0.000 A 
ATOM     11  C   UNL     1       0.402  11.295  19.005  0.00  0.00    +0.000 A 
ATOM     12  C   UNL     1      -0.203  11.973  20.062  0.00  0.00    +0.000 A 
ATOM     13  C   UNL     1      -0.294  11.375  21.335  0.00  0.00    +0.000 A 
ATOM     14  C   UNL     1       0.192  10.079  21.561  0.00  0.00    +0.000 A 
ATOM     15  C   UNL     1       0.776   9.424  20.492  0.00  0.00    +0.000 A 
ATOM     16  C   UNL     1       1.395   8.102  20.382  0.00  0.00    +0.000 C 
ATOM     17  O   UNL     1       1.387   7.331  21.325  0.00  0.00    +0.000 OA
ENDBRANCH   5   7
BRANCH   1  18
ATOM     18  C   UNL     1       5.921   6.359  16.637  0.00  0.00    +0.000 C 
ATOM     19  O   UNL     1       6.141   6.085  15.472  0.00  0.00    +0.000 OA
BRANCH  18  20
ATOM     20  O   UNL     1       6.794   6.925  17.504  0.00  0.00    +0.000 OA
BRANCH  20  21
ATOM     21  C   UNL     1       7.248   8.229  17.146  0.00  0.00    +0.000 C 
BRANCH  21  23
ATOM     22  O   UNL     1       8.729   7.933  19.005  0.00  0.00    +0.000 OA
ATOM     23  C   UNL     1       8.269   8.713  18.176  0.00  0.00    +0.000 C 
ATOM     24  N   UNL     1       8.598  10.052  18.047  0.00  0.00    +0.000 N 
ATOM     25  H   UNL     1       8.088  10.594  17.354  0.00  0.00    +0.000 HD
BRANCH  24  26
ATOM     26  C   UNL     1       9.608  10.732  18.757  0.00  0.00    +0.000 A 
ATOM     27  C   UNL     1       9.470  11.111  20.095  0.00  0.00    +0.000 A 
ATOM     28  C   UNL     1      10.509  11.765  20.761  0.00  0.00    +0.000 A 
ATOM     29  C   UNL     1      11.692  12.058  20.090  0.00  0.00    +0.000 A 
ATOM     30  C   UNL     1      11.842  11.683  18.756  0.00  0.00    +0.000 A 
ATOM     31  C   UNL     1      10.810  11.007  18.096  0.00  0.00    +0.000 A 
ENDBRANCH  24  26
ENDBRANCH  21  23
ENDBRANCH  20  21
ENDBRANCH  18  20
ENDBRANCH   1  18
TORSDOF 6
ENDMDL
