MODEL 1
REMARK VINA RESULT:      -7.5      0.000      0.000
REMARK  Name = 
REMARK  12 active torsions:
REMARK  status: ('A' for Active; 'I' for Inactive)
REMARK    1  A    between atoms: C_1  and  O_2
REMARK    2  A    between atoms: O_2  and  C_3
REMARK    3  A    between atoms: C_6  and  N_7
REMARK    4  A    between atoms: N_10  and  C_11
REMARK    5  A    between atoms: C_11  and  C_12
REMARK    6  A    between atoms: C_12  and  C_13
REMARK    7  A    between atoms: C_13  and  N_14
REMARK    8  A    between atoms: C_15  and  C_17
REMARK    9  A    between atoms: C_17  and  N_18
REMARK   10  A    between atoms: N_21  and  C_22
REMARK   11  A    between atoms: C_22  and  C_23
REMARK   12  A    between atoms: C_28  and  C_29
REMARK                            x       y       z     vdW  Elec       q    Type
REMARK                         _______ _______ _______ _____ _____    ______ ____
ROOT
ATOM      1  N   UNL     1       2.692   4.900  21.253  0.00  0.00    +0.000 N 
ATOM      2  C   UNL     1       1.932   5.660  20.394  0.00  0.00    +0.000 C 
ATOM      3  O   UNL     1       0.754   5.418  20.139  0.00  0.00    +0.000 OA
ATOM      4  H   UNL     1       3.673   5.129  21.385  0.00  0.00    +0.000 HD
ENDROOT
BRANCH   1   5
ATOM      5  C   UNL     1       2.142   3.751  21.936  0.00  0.00    +0.000 C 
BRANCH   5   6
ATOM      6  C   UNL     1       2.579   2.454  21.264  0.00  0.00    +0.000 C 
BRANCH   6   7
ATOM      7  C   UNL     1       1.834   2.212  19.950  0.00  0.00    +0.000 C 
BRANCH   7  11
ATOM      8  N   UNL     1       4.201   3.870  17.823  0.00  0.00    +0.000 N 
ATOM      9  C   UNL     1       2.808   3.661  17.417  0.00  0.00    +0.000 C 
ATOM     10  C   UNL     1       2.413   2.177  17.551  0.00  0.00    +0.000 C 
ATOM     11  N   UNL     1       2.663   1.601  18.896  0.00  0.00    +0.000 NA
ATOM     12  C   UNL     1       4.105   1.791  19.195  0.00  0.00    +0.000 C 
ATOM     13  C   UNL     1       4.615   3.252  19.095  0.00  0.00    +0.000 C 
BRANCH   8  17
ATOM     14  C   UNL     1       7.140   5.288  15.150  0.00  0.00    +0.000 A 
ATOM     15  C   UNL     1       6.434   4.121  14.872  0.00  0.00    +0.000 A 
ATOM     16  C   UNL     1       5.450   3.665  15.758  0.00  0.00    +0.000 A 
ATOM     17  C   UNL     1       5.157   4.350  16.947  0.00  0.00    +0.000 A 
ATOM     18  C   UNL     1       5.896   5.509  17.208  0.00  0.00    +0.000 A 
ATOM     19  C   UNL     1       6.877   5.975  16.329  0.00  0.00    +0.000 A 
BRANCH  14  21
ATOM     20  C   UNL     1       7.800   5.257  12.889  0.00  0.00    +0.000 C 
ATOM     21  O   UNL     1       8.091   5.636  14.231  0.00  0.00    +0.000 OA
ENDBRANCH  14  21
ENDBRANCH   8  17
ENDBRANCH   7  11
ENDBRANCH   6   7
ENDBRANCH   5   6
ENDBRANCH   1   5
BRANCH   2  22
ATOM     22  C   UNL     1       2.704   6.764  19.682  0.00  0.00    +0.000 C 
BRANCH  22  23
ATOM     23  N   UNL     1       1.865   7.927  19.471  0.00  0.00    +0.000 N 
ATOM     24  C   UNL     1       1.863   8.673  18.228  0.00  0.00    +0.000 C 
ATOM     25  C   UNL     1       0.806   9.740  18.479  0.00  0.00    +0.000 C 
ATOM     26  N   UNL     1       0.791   9.841  19.921  0.00  0.00    +0.000 N 
ATOM     27  C   UNL     1       1.391   8.730  20.508  0.00  0.00    +0.000 C 
ATOM     28  O   UNL     1       1.503   8.498  21.701  0.00  0.00    +0.000 OA
BRANCH  26  29
ATOM     29  C   UNL     1       0.135  10.915  20.637  0.00  0.00    +0.000 C 
BRANCH  29  30
ATOM     30  C   UNL     1       0.417  12.269  20.018  0.00  0.00    +0.000 A 
ATOM     31  C   UNL     1       1.658  12.875  20.291  0.00  0.00    +0.000 A 
ATOM     32  C   UNL     1       1.996  14.112  19.742  0.00  0.00    +0.000 A 
ATOM     33  C   UNL     1       1.098  14.766  18.910  0.00  0.00    +0.000 A 
ATOM     34  C   UNL     1      -0.145  14.191  18.640  0.00  0.00    +0.000 A 
ATOM     35  C   UNL     1      -0.506  12.950  19.194  0.00  0.00    +0.000 A 
ATOM     36  C   UNL     1      -1.865  12.391  18.878  0.00  0.00    +0.000 C 
ENDBRANCH  29  30
ENDBRANCH  26  29
ENDBRANCH  22  23
ENDBRANCH   2  22
TORSDOF 10
ENDMDL
MODEL 2
REMARK VINA RESULT:      -7.3      4.631      8.263
REMARK  Name = 
REMARK  12 active torsions:
REMARK  status: ('A' for Active; 'I' for Inactive)
REMARK    1  A    between atoms: C_1  and  O_2
REMARK    2  A    between atoms: O_2  and  C_3
REMARK    3  A    between atoms: C_6  and  N_7
REMARK    4  A    between atoms: N_10  and  C_11
REMARK    5  A    between atoms: C_11  and  C_12
REMARK    6  A    between atoms: C_12  and  C_13
REMARK    7  A    between atoms: C_13  and  N_14
REMARK    8  A    between atoms: C_15  and  C_17
REMARK    9  A    between atoms: C_17  and  N_18
REMARK   10  A    between atoms: N_21  and  C_22
REMARK   11  A    between atoms: C_22  and  C_23
REMARK   12  A    between atoms: C_28  and  C_29
REMARK                            x       y       z     vdW  Elec       q    Type
REMARK                         _______ _______ _______ _____ _____    ______ ____
ROOT
ATOM      1  N   UNL     1       1.624  14.563  18.731  0.00  0.00    +0.000 N 
ATOM      2  C   UNL     1       2.925  14.282  18.383  0.00  0.00    +0.000 C 
ATOM      3  O   UNL     1       3.313  13.158  18.067  0.00  0.00    +0.000 OA
ATOM      4  H   UNL     1       1.380  15.504  19.025  0.00  0.00    +0.000 HD
ENDROOT
BRANCH   1   5
ATOM      5  C   UNL     1       0.603  13.540  18.737  0.00  0.00    +0.000 C 
BRANCH   5   6
ATOM      6  C   UNL     1       0.464  12.914  20.120  0.00  0.00    +0.000 C 
BRANCH   6   7
ATOM      7  C   UNL     1       1.085  11.517  20.182  0.00  0.00    +0.000 C 
BRANCH   7  11
ATOM      8  N   UNL     1       1.903   8.050  19.753  0.00  0.00    +0.000 N 
ATOM      9  C   UNL     1       1.988   9.009  18.646  0.00  0.00    +0.000 C 
ATOM     10  C   UNL     1       0.662   9.778  18.482  0.00  0.00    +0.000 C 
ATOM     11  N   UNL     1       0.188  10.442  19.722  0.00  0.00    +0.000 NA
ATOM     12  C   UNL     1       0.062   9.391  20.764  0.00  0.00    +0.000 C 
ATOM     13  C   UNL     1       1.342   8.554  21.018  0.00  0.00    +0.000 C 
BRANCH   8  17
ATOM     14  C   UNL     1       2.379   3.896  19.192  0.00  0.00    +0.000 A 
ATOM     15  C   UNL     1       2.035   4.407  20.440  0.00  0.00    +0.000 A 
ATOM     16  C   UNL     1       1.866   5.786  20.614  0.00  0.00    +0.000 A 
ATOM     17  C   UNL     1       2.048   6.689  19.557  0.00  0.00    +0.000 A 
ATOM     18  C   UNL     1       2.412   6.147  18.318  0.00  0.00    +0.000 A 
ATOM     19  C   UNL     1       2.580   4.773  18.132  0.00  0.00    +0.000 A 
BRANCH  14  21
ATOM     20  C   UNL     1       2.844   2.023  17.841  0.00  0.00    +0.000 C 
ATOM     21  O   UNL     1       2.539   2.539  19.133  0.00  0.00    +0.000 OA
ENDBRANCH  14  21
ENDBRANCH   8  17
ENDBRANCH   7  11
ENDBRANCH   6   7
ENDBRANCH   5   6
ENDBRANCH   1   5
BRANCH   2  22
ATOM     22  C   UNL     1       3.885  15.455  18.537  0.00  0.00    +0.000 C 
BRANCH  22  23
ATOM     23  N   UNL     1       5.007  15.097  19.381  0.00  0.00    +0.000 N 
ATOM     24  C   UNL     1       4.999  15.299  20.817  0.00  0.00    +0.000 C 
ATOM     25  C   UNL     1       6.346  14.731  21.243  0.00  0.00    +0.000 C 
ATOM     26  N   UNL     1       7.133  14.840  20.036  0.00  0.00    +0.000 N 
ATOM     27  C   UNL     1       6.321  15.018  18.920  0.00  0.00    +0.000 C 
ATOM     28  O   UNL     1       6.676  15.106  17.756  0.00  0.00    +0.000 OA
BRANCH  26  29
ATOM     29  C   UNL     1       8.572  14.673  20.006  0.00  0.00    +0.000 C 
BRANCH  29  30
ATOM     30  C   UNL     1       8.974  13.218  19.863  0.00  0.00    +0.000 A 
ATOM     31  C   UNL     1       8.875  12.390  20.998  0.00  0.00    +0.000 A 
ATOM     32  C   UNL     1       9.209  11.038  20.939  0.00  0.00    +0.000 A 
ATOM     33  C   UNL     1       9.650  10.488  19.743  0.00  0.00    +0.000 A 
ATOM     34  C   UNL     1       9.771  11.294  18.611  0.00  0.00    +0.000 A 
ATOM     35  C   UNL     1       9.448  12.662  18.656  0.00  0.00    +0.000 A 
ATOM     36  C   UNL     1       9.616  13.481  17.406  0.00  0.00    +0.000 C 
ENDBRANCH  29  30
ENDBRANCH  26  29
ENDBRANCH  22  23
ENDBRANCH   2  22
TORSDOF 10
ENDMDL
MODEL 3
REMARK VINA RESULT:      -7.2      5.545     10.826
REMARK  Name = 
REMARK  12 active torsions:
REMARK  status: ('A' for Active; 'I' for Inactive)
REMARK    1  A    between atoms: C_1  and  O_2
REMARK    2  A    between atoms: O_2  and  C_3
REMARK    3  A    between atoms: C_6  and  N_7
REMARK    4  A    between atoms: N_10  and  C_11
REMARK    5  A    between atoms: C_11  and  C_12
REMARK    6  A    between atoms: C_12  and  C_13
REMARK    7  A    between atoms: C_13  and  N_14
REMARK    8  A    between atoms: C_15  and  C_17
REMARK    9  A    between atoms: C_17  and  N_18
REMARK   10  A    between atoms: N_21  and  C_22
REMARK   11  A    between atoms: C_22  and  C_23
REMARK   12  A    between atoms: C_28  and  C_29
REMARK                            x       y       z     vdW  Elec       q    Type
REMARK                         _______ _______ _______ _____ _____    ______ ____
ROOT
ATOM      1  N   UNL     1       8.404   8.157  18.637  0.00  0.00    +0.000 N 
ATOM      2  C   UNL     1       7.697   7.235  17.899  0.00  0.00    +0.000 C 
ATOM      3  O   UNL     1       7.070   7.521  16.881  0.00  0.00    +0.000 OA
ATOM      4  H   UNL     1       8.864   7.862  19.493  0.00  0.00    +0.000 HD
ENDROOT
BRANCH   1   5
ATOM      5  C   UNL     1       8.468   9.548  18.249  0.00  0.00    +0.000 C 
BRANCH   5   6
ATOM      6  C   UNL     1       9.571  10.277  19.007  0.00  0.00    +0.000 C 
BRANCH   6   7
ATOM      7  C   UNL     1       9.607  11.769  18.671  0.00  0.00    +0.000 C 
BRANCH   7  11
ATOM      8  N   UNL     1       8.263  13.395  21.574  0.00  0.00    +0.000 N 
ATOM      9  C   UNL     1       8.394  14.089  20.288  0.00  0.00    +0.000 C 
ATOM     10  C   UNL     1       9.834  13.978  19.748  0.00  0.00    +0.000 C 
ATOM     11  N   UNL     1      10.342  12.587  19.653  0.00  0.00    +0.000 NA
ATOM     12  C   UNL     1      10.240  11.986  21.008  0.00  0.00    +0.000 C 
ATOM     13  C   UNL     1       8.829  12.038  21.650  0.00  0.00    +0.000 C 
BRANCH   8  17
ATOM     14  C   UNL     1       7.153  15.452  25.086  0.00  0.00    +0.000 A 
ATOM     15  C   UNL     1       6.208  14.737  24.355  0.00  0.00    +0.000 A 
ATOM     16  C   UNL     1       6.588  14.047  23.198  0.00  0.00    +0.000 A 
ATOM     17  C   UNL     1       7.911  14.061  22.734  0.00  0.00    +0.000 A 
ATOM     18  C   UNL     1       8.835  14.802  23.479  0.00  0.00    +0.000 A 
ATOM     19  C   UNL     1       8.468  15.493  24.637  0.00  0.00    +0.000 A 
BRANCH  14  21
ATOM     20  C   UNL     1       6.721  15.360  27.400  0.00  0.00    +0.000 C 
ATOM     21  O   UNL     1       6.676  16.106  26.188  0.00  0.00    +0.000 OA
ENDBRANCH  14  21
ENDBRANCH   8  17
ENDBRANCH   7  11
ENDBRANCH   6   7
ENDBRANCH   5   6
ENDBRANCH   1   5
BRANCH   2  22
ATOM     22  C   UNL     1       7.651   5.841  18.513  0.00  0.00    +0.000 C 
BRANCH  22  23
ATOM     23  N   UNL     1       6.616   5.038  17.894  0.00  0.00    +0.000 N 
ATOM     24  C   UNL     1       6.779   4.424  16.591  0.00  0.00    +0.000 C 
ATOM     25  C   UNL     1       5.472   3.664  16.412  0.00  0.00    +0.000 C 
ATOM     26  N   UNL     1       4.565   4.384  17.277  0.00  0.00    +0.000 N 
ATOM     27  C   UNL     1       5.260   5.173  18.189  0.00  0.00    +0.000 C 
ATOM     28  O   UNL     1       4.786   5.868  19.073  0.00  0.00    +0.000 OA
BRANCH  26  29
ATOM     29  C   UNL     1       3.128   4.205  17.249  0.00  0.00    +0.000 C 
BRANCH  29  30
ATOM     30  C   UNL     1       2.574   3.825  18.608  0.00  0.00    +0.000 A 
ATOM     31  C   UNL     1       1.848   4.798  19.321  0.00  0.00    +0.000 A 
ATOM     32  C   UNL     1       1.293   4.517  20.569  0.00  0.00    +0.000 A 
ATOM     33  C   UNL     1       1.456   3.257  21.128  0.00  0.00    +0.000 A 
ATOM     34  C   UNL     1       2.186   2.283  20.446  0.00  0.00    +0.000 A 
ATOM     35  C   UNL     1       2.762   2.553  19.191  0.00  0.00    +0.000 A 
ATOM     36  C   UNL     1       3.551   1.468  18.515  0.00  0.00    +0.000 C 
ENDBRANCH  29  30
ENDBRANCH  26  29
ENDBRANCH  22  23
ENDBRANCH   2  22
TORSDOF 10
ENDMDL
MODEL 4
REMARK VINA RESULT:      -7.2      1.673      2.565
REMARK  Name = 
REMARK  12 active torsions:
REMARK  status: ('A' for Active; 'I' for Inactive)
REMARK    1  A    between atoms: C_1  and  O_2
REMARK    2  A    between atoms: O_2  and  C_3
REMARK    3  A    between atoms: C_6  and  N_7
REMARK    4  A    between atoms: N_10  and  C_11
REMARK    5  A    between atoms: C_11  and  C_12
REMARK    6  A    between atoms: C_12  and  C_13
REMARK    7  A    between atoms: C_13  and  N_14
REMARK    8  A    between atoms: C_15  and  C_17
REMARK    9  A    between atoms: C_17  and  N_18
REMARK   10  A    between atoms: N_21  and  C_22
REMARK   11  A    between atoms: C_22  and  C_23
REMARK   12  A    between atoms: C_28  and  C_29
REMARK                            x       y       z     vdW  Elec       q    Type
REMARK                         _______ _______ _______ _____ _____    ______ ____
ROOT
ATOM      1  N   UNL     1       1.541   4.983  20.159  0.00  0.00    +0.000 N 
ATOM      2  C   UNL     1       1.799   5.802  19.083  0.00  0.00    +0.000 C 
ATOM      3  O   UNL     1       1.385   5.576  17.947  0.00  0.00    +0.000 OA
ATOM      4  H   UNL     1       1.951   5.205  21.061  0.00  0.00    +0.000 HD
ENDROOT
BRANCH   1   5
ATOM      5  C   UNL     1       0.742   3.787  20.026  0.00  0.00    +0.000 C 
BRANCH   5   6
ATOM      6  C   UNL     1       1.566   2.542  20.334  0.00  0.00    +0.000 C 
BRANCH   6   7
ATOM      7  C   UNL     1       3.031   2.881  20.617  0.00  0.00    +0.000 C 
BRANCH   7  11
ATOM      8  N   UNL     1       4.604   4.002  17.593  0.00  0.00    +0.000 N 
ATOM      9  C   UNL     1       3.360   3.224  17.578  0.00  0.00    +0.000 C 
ATOM     10  C   UNL     1       3.515   1.925  18.393  0.00  0.00    +0.000 C 
ATOM     11  N   UNL     1       3.990   2.134  19.784  0.00  0.00    +0.000 NA
ATOM     12  C   UNL     1       5.283   2.862  19.703  0.00  0.00    +0.000 C 
ATOM     13  C   UNL     1       5.245   4.191  18.905  0.00  0.00    +0.000 C 
BRANCH   8  17
ATOM     14  C   UNL     1       6.774   4.833  14.072  0.00  0.00    +0.000 A 
ATOM     15  C   UNL     1       6.243   3.565  14.294  0.00  0.00    +0.000 A 
ATOM     16  C   UNL     1       5.513   3.302  15.460  0.00  0.00    +0.000 A 
ATOM     17  C   UNL     1       5.305   4.287  16.436  0.00  0.00    +0.000 A 
ATOM     18  C   UNL     1       5.865   5.547  16.193  0.00  0.00    +0.000 A 
ATOM     19  C   UNL     1       6.593   5.822  15.033  0.00  0.00    +0.000 A 
BRANCH  14  21
ATOM     20  C   UNL     1       8.597   5.867  12.998  0.00  0.00    +0.000 C 
ATOM     21  O   UNL     1       7.486   4.981  12.914  0.00  0.00    +0.000 OA
ENDBRANCH  14  21
ENDBRANCH   8  17
ENDBRANCH   7  11
ENDBRANCH   6   7
ENDBRANCH   5   6
ENDBRANCH   1   5
BRANCH   2  22
ATOM     22  C   UNL     1       2.745   6.958  19.384  0.00  0.00    +0.000 C 
BRANCH  22  23
ATOM     23  N   UNL     1       2.005   8.172  19.662  0.00  0.00    +0.000 N 
ATOM     24  C   UNL     1       1.107   8.296  20.793  0.00  0.00    +0.000 C 
ATOM     25  C   UNL     1       0.627   9.737  20.685  0.00  0.00    +0.000 C 
ATOM     26  N   UNL     1       0.812  10.028  19.281  0.00  0.00    +0.000 N 
ATOM     27  C   UNL     1       1.671   9.109  18.685  0.00  0.00    +0.000 C 
ATOM     28  O   UNL     1       2.056   9.103  17.527  0.00  0.00    +0.000 OA
BRANCH  26  29
ATOM     29  C   UNL     1       0.250  11.194  18.629  0.00  0.00    +0.000 C 
BRANCH  29  30
ATOM     30  C   UNL     1      -1.219  11.012  18.304  0.00  0.00    +0.000 A 
ATOM     31  C   UNL     1      -1.572  10.016  17.373  0.00  0.00    +0.000 A 
ATOM     32  C   UNL     1      -2.904   9.777  17.037  0.00  0.00    +0.000 A 
ATOM     33  C   UNL     1      -3.909  10.533  17.624  0.00  0.00    +0.000 A 
ATOM     34  C   UNL     1      -3.581  11.536  18.537  0.00  0.00    +0.000 A 
ATOM     35  C   UNL     1      -2.242  11.797  18.879  0.00  0.00    +0.000 A 
ATOM     36  C   UNL     1      -1.952  12.903  19.855  0.00  0.00    +0.000 C 
ENDBRANCH  29  30
ENDBRANCH  26  29
ENDBRANCH  22  23
ENDBRANCH   2  22
TORSDOF 10
ENDMDL
MODEL 5
REMARK VINA RESULT:      -7.1      4.006      9.897
REMARK  Name = 
REMARK  12 active torsions:
REMARK  status: ('A' for Active; 'I' for Inactive)
REMARK    1  A    between atoms: C_1  and  O_2
REMARK    2  A    between atoms: O_2  and  C_3
REMARK    3  A    between atoms: C_6  and  N_7
REMARK    4  A    between atoms: N_10  and  C_11
REMARK    5  A    between atoms: C_11  and  C_12
REMARK    6  A    between atoms: C_12  and  C_13
REMARK    7  A    between atoms: C_13  and  N_14
REMARK    8  A    between atoms: C_15  and  C_17
REMARK    9  A    between atoms: C_17  and  N_18
REMARK   10  A    between atoms: N_21  and  C_22
REMARK   11  A    between atoms: C_22  and  C_23
REMARK   12  A    between atoms: C_28  and  C_29
REMARK                            x       y       z     vdW  Elec       q    Type
REMARK                         _______ _______ _______ _____ _____    ______ ____
ROOT
ATOM      1  N   UNL     1       0.182  12.200  19.047  0.00  0.00    +0.000 N 
ATOM      2  C   UNL     1      -0.669  11.125  19.174  0.00  0.00    +0.000 C 
ATOM      3  O   UNL     1      -1.770  11.066  18.629  0.00  0.00    +0.000 OA
ATOM      4  H   UNL     1       1.058  12.203  19.561  0.00  0.00    +0.000 HD
ENDROOT
BRANCH   1   5
ATOM      5  C   UNL     1      -0.163  13.347  18.239  0.00  0.00    +0.000 C 
BRANCH   5   6
ATOM      6  C   UNL     1      -0.183  14.620  19.077  0.00  0.00    +0.000 C 
BRANCH   6   7
ATOM      7  C   UNL     1       0.965  14.658  20.088  0.00  0.00    +0.000 C 
BRANCH   7  11
ATOM      8  N   UNL     1       4.386  15.115  19.106  0.00  0.00    +0.000 N 
ATOM      9  C   UNL     1       4.006  14.877  20.503  0.00  0.00    +0.000 C 
ATOM     10  C   UNL     1       2.926  15.880  20.957  0.00  0.00    +0.000 C 
ATOM     11  N   UNL     1       1.728  15.919  20.081  0.00  0.00    +0.000 NA
ATOM     12  C   UNL     1       2.195  16.235  18.707  0.00  0.00    +0.000 C 
ATOM     13  C   UNL     1       3.285  15.285  18.144  0.00  0.00    +0.000 C 
BRANCH   8  17
ATOM     14  C   UNL     1       8.301  16.217  17.986  0.00  0.00    +0.000 A 
ATOM     15  C   UNL     1       7.479  17.114  18.663  0.00  0.00    +0.000 A 
ATOM     16  C   UNL     1       6.186  16.735  19.043  0.00  0.00    +0.000 A 
ATOM     17  C   UNL     1       5.675  15.463  18.747  0.00  0.00    +0.000 A 
ATOM     18  C   UNL     1       6.518  14.590  18.049  0.00  0.00    +0.000 A 
ATOM     19  C   UNL     1       7.811  14.956  17.668  0.00  0.00    +0.000 A 
BRANCH  14  21
ATOM     20  C   UNL     1      10.612  15.782  17.853  0.00  0.00    +0.000 C 
ATOM     21  O   UNL     1       9.537  16.692  17.643  0.00  0.00    +0.000 OA
ENDBRANCH  14  21
ENDBRANCH   8  17
ENDBRANCH   7  11
ENDBRANCH   6   7
ENDBRANCH   5   6
ENDBRANCH   1   5
BRANCH   2  22
ATOM     22  C   UNL     1      -0.190  10.056  20.149  0.00  0.00    +0.000 C 
BRANCH  22  23
ATOM     23  N   UNL     1       0.874   9.265  19.566  0.00  0.00    +0.000 N 
ATOM     24  C   UNL     1       1.058   9.138  18.134  0.00  0.00    +0.000 C 
ATOM     25  C   UNL     1       2.306   8.272  18.031  0.00  0.00    +0.000 C 
ATOM     26  N   UNL     1       2.309   7.567  19.292  0.00  0.00    +0.000 N 
ATOM     27  C   UNL     1       1.480   8.192  20.220  0.00  0.00    +0.000 C 
ATOM     28  O   UNL     1       1.296   7.866  21.381  0.00  0.00    +0.000 OA
BRANCH  26  29
ATOM     29  C   UNL     1       3.157   6.424  19.564  0.00  0.00    +0.000 C 
BRANCH  29  30
ATOM     30  C   UNL     1       2.447   5.111  19.298  0.00  0.00    +0.000 A 
ATOM     31  C   UNL     1       1.476   4.685  20.225  0.00  0.00    +0.000 A 
ATOM     32  C   UNL     1       0.768   3.499  20.039  0.00  0.00    +0.000 A 
ATOM     33  C   UNL     1       1.020   2.714  18.921  0.00  0.00    +0.000 A 
ATOM     34  C   UNL     1       1.989   3.109  17.999  0.00  0.00    +0.000 A 
ATOM     35  C   UNL     1       2.720   4.298  18.177  0.00  0.00    +0.000 A 
ATOM     36  C   UNL     1       3.763   4.660  17.157  0.00  0.00    +0.000 C 
ENDBRANCH  29  30
ENDBRANCH  26  29
ENDBRANCH  22  23
ENDBRANCH   2  22
TORSDOF 10
ENDMDL
MODEL 6
REMARK VINA RESULT:      -7.0      3.328     10.641
REMARK  Name = 
REMARK  12 active torsions:
REMARK  status: ('A' for Active; 'I' for Inactive)
REMARK    1  A    between atoms: C_1  and  O_2
REMARK    2  A    between atoms: O_2  and  C_3
REMARK    3  A    between atoms: C_6  and  N_7
REMARK    4  A    between atoms: N_10  and  C_11
REMARK    5  A    between atoms: C_11  and  C_12
REMARK    6  A    between atoms: C_12  and  C_13
REMARK    7  A    between atoms: C_13  and  N_14
REMARK    8  A    between atoms: C_15  and  C_17
REMARK    9  A    between atoms: C_17  and  N_18
REMARK   10  A    between atoms: N_21  and  C_22
REMARK   11  A    between atoms: C_22  and  C_23
REMARK   12  A    between atoms: C_28  and  C_29
REMARK                            x       y       z     vdW  Elec       q    Type
REMARK                         _______ _______ _______ _____ _____    ______ ____
ROOT
ATOM      1  N   UNL     1       1.350   6.345  20.084  0.00  0.00    +0.000 N 
ATOM      2  C   UNL     1       1.650   5.083  20.544  0.00  0.00    +0.000 C 
ATOM      3  O   UNL     1       2.348   4.873  21.534  0.00  0.00    +0.000 OA
ATOM      4  H   UNL     1       0.804   6.448  19.233  0.00  0.00    +0.000 HD
ENDROOT
BRANCH   1   5
ATOM      5  C   UNL     1       1.834   7.530  20.754  0.00  0.00    +0.000 C 
BRANCH   5   6
ATOM      6  C   UNL     1       0.684   8.314  21.377  0.00  0.00    +0.000 C 
BRANCH   6   7
ATOM      7  C   UNL     1       0.179   9.422  20.450  0.00  0.00    +0.000 C 
BRANCH   7  11
ATOM      8  N   UNL     1      -1.977  11.989  21.731  0.00  0.00    +0.000 N 
ATOM      9  C   UNL     1      -1.644  11.896  20.305  0.00  0.00    +0.000 C 
ATOM     10  C   UNL     1      -0.117  11.847  20.099  0.00  0.00    +0.000 C 
ATOM     11  N   UNL     1       0.566  10.780  20.872  0.00  0.00    +0.000 NA
ATOM     12  C   UNL     1       0.234  10.992  22.305  0.00  0.00    +0.000 C 
ATOM     13  C   UNL     1      -1.280  11.054  22.631  0.00  0.00    +0.000 C 
BRANCH   8  17
ATOM     14  C   UNL     1      -4.082  15.299  23.284  0.00  0.00    +0.000 A 
ATOM     15  C   UNL     1      -4.739  14.336  22.522  0.00  0.00    +0.000 A 
ATOM     16  C   UNL     1      -4.035  13.233  22.022  0.00  0.00    +0.000 A 
ATOM     17  C   UNL     1      -2.661  13.070  22.255  0.00  0.00    +0.000 A 
ATOM     18  C   UNL     1      -2.025  14.064  23.008  0.00  0.00    +0.000 A 
ATOM     19  C   UNL     1      -2.718  15.166  23.515  0.00  0.00    +0.000 A 
BRANCH  14  21
ATOM     20  C   UNL     1      -4.498  16.884  24.976  0.00  0.00    +0.000 C 
ATOM     21  O   UNL     1      -4.855  16.344  23.707  0.00  0.00    +0.000 OA
ENDBRANCH  14  21
ENDBRANCH   8  17
ENDBRANCH   7  11
ENDBRANCH   6   7
ENDBRANCH   5   6
ENDBRANCH   1   5
BRANCH   2  22
ATOM     22  C   UNL     1       1.147   3.953  19.654  0.00  0.00    +0.000 C 
BRANCH  22  23
ATOM     23  N   UNL     1       2.214   3.438  18.820  0.00  0.00    +0.000 N 
ATOM     24  C   UNL     1       2.950   2.234  19.150  0.00  0.00    +0.000 C 
ATOM     25  C   UNL     1       3.901   2.088  17.970  0.00  0.00    +0.000 C 
ATOM     26  N   UNL     1       4.006   3.442  17.477  0.00  0.00    +0.000 N 
ATOM     27  C   UNL     1       2.968   4.235  17.958  0.00  0.00    +0.000 C 
ATOM     28  O   UNL     1       2.754   5.407  17.698  0.00  0.00    +0.000 OA
BRANCH  26  29
ATOM     29  C   UNL     1       5.009   3.866  16.520  0.00  0.00    +0.000 C 
BRANCH  29  30
ATOM     30  C   UNL     1       5.933   4.921  17.094  0.00  0.00    +0.000 A 
ATOM     31  C   UNL     1       6.761   4.558  18.174  0.00  0.00    +0.000 A 
ATOM     32  C   UNL     1       7.651   5.469  18.742  0.00  0.00    +0.000 A 
ATOM     33  C   UNL     1       7.727   6.762  18.242  0.00  0.00    +0.000 A 
ATOM     34  C   UNL     1       6.904   7.148  17.183  0.00  0.00    +0.000 A 
ATOM     35  C   UNL     1       5.993   6.244  16.606  0.00  0.00    +0.000 A 
ATOM     36  C   UNL     1       5.122   6.725  15.479  0.00  0.00    +0.000 C 
ENDBRANCH  29  30
ENDBRANCH  26  29
ENDBRANCH  22  23
ENDBRANCH   2  22
TORSDOF 10
ENDMDL
MODEL 7
REMARK VINA RESULT:      -6.9      4.136      9.282
REMARK  Name = 
REMARK  12 active torsions:
REMARK  status: ('A' for Active; 'I' for Inactive)
REMARK    1  A    between atoms: C_1  and  O_2
REMARK    2  A    between atoms: O_2  and  C_3
REMARK    3  A    between atoms: C_6  and  N_7
REMARK    4  A    between atoms: N_10  and  C_11
REMARK    5  A    between atoms: C_11  and  C_12
REMARK    6  A    between atoms: C_12  and  C_13
REMARK    7  A    between atoms: C_13  and  N_14
REMARK    8  A    between atoms: C_15  and  C_17
REMARK    9  A    between atoms: C_17  and  N_18
REMARK   10  A    between atoms: N_21  and  C_22
REMARK   11  A    between atoms: C_22  and  C_23
REMARK   12  A    between atoms: C_28  and  C_29
REMARK                            x       y       z     vdW  Elec       q    Type
REMARK                         _______ _______ _______ _____ _____    ______ ____
ROOT
ATOM      1  N   UNL     1       0.026  12.737  20.218  0.00  0.00    +0.000 N 
ATOM      2  C   UNL     1       0.547  11.497  20.507  0.00  0.00    +0.000 C 
ATOM      3  O   UNL     1       1.458  11.317  21.313  0.00  0.00    +0.000 OA
ATOM      4  H   UNL     1      -0.696  12.820  19.508  0.00  0.00    +0.000 HD
ENDROOT
BRANCH   1   5
ATOM      5  C   UNL     1       0.516  13.933  20.864  0.00  0.00    +0.000 C 
BRANCH   5   6
ATOM      6  C   UNL     1       0.610  15.089  19.875  0.00  0.00    +0.000 C 
BRANCH   6   7
ATOM      7  C   UNL     1       2.043  15.309  19.386  0.00  0.00    +0.000 C 
BRANCH   7  11
ATOM      8  N   UNL     1       5.597  15.153  18.919  0.00  0.00    +0.000 N 
ATOM      9  C   UNL     1       4.659  14.881  17.825  0.00  0.00    +0.000 C 
ATOM     10  C   UNL     1       3.631  13.809  18.236  0.00  0.00    +0.000 C 
ATOM     11  N   UNL     1       2.903  14.117  19.493  0.00  0.00    +0.000 NA
ATOM     12  C   UNL     1       3.921  14.306  20.557  0.00  0.00    +0.000 C 
ATOM     13  C   UNL     1       5.009  15.368  20.252  0.00  0.00    +0.000 C 
BRANCH   8  17
ATOM     14  C   UNL     1       9.734  14.414  18.545  0.00  0.00    +0.000 A 
ATOM     15  C   UNL     1       8.816  13.713  17.767  0.00  0.00    +0.000 A 
ATOM     16  C   UNL     1       7.446  13.975  17.888  0.00  0.00    +0.000 A 
ATOM     17  C   UNL     1       6.956  14.927  18.793  0.00  0.00    +0.000 A 
ATOM     18  C   UNL     1       7.901  15.602  19.575  0.00  0.00    +0.000 A 
ATOM     19  C   UNL     1       9.270  15.352  19.460  0.00  0.00    +0.000 A 
BRANCH  14  21
ATOM     20  C   UNL     1      11.572  14.357  17.073  0.00  0.00    +0.000 C 
ATOM     21  O   UNL     1      11.045  14.070  18.364  0.00  0.00    +0.000 OA
ENDBRANCH  14  21
ENDBRANCH   8  17
ENDBRANCH   7  11
ENDBRANCH   6   7
ENDBRANCH   5   6
ENDBRANCH   1   5
BRANCH   2  22
ATOM     22  C   UNL     1      -0.014  10.364  19.655  0.00  0.00    +0.000 C 
BRANCH  22  23
ATOM     23  N   UNL     1       1.030   9.431  19.283  0.00  0.00    +0.000 N 
ATOM     24  C   UNL     1       1.460   9.246  17.911  0.00  0.00    +0.000 C 
ATOM     25  C   UNL     1       2.584   8.227  18.045  0.00  0.00    +0.000 C 
ATOM     26  N   UNL     1       2.260   7.559  19.286  0.00  0.00    +0.000 N 
ATOM     27  C   UNL     1       1.361   8.307  20.040  0.00  0.00    +0.000 C 
ATOM     28  O   UNL     1       0.923   8.036  21.146  0.00  0.00    +0.000 OA
BRANCH  26  29
ATOM     29  C   UNL     1       2.889   6.326  19.713  0.00  0.00    +0.000 C 
BRANCH  29  30
ATOM     30  C   UNL     1       3.533   5.585  18.557  0.00  0.00    +0.000 A 
ATOM     31  C   UNL     1       4.849   5.936  18.198  0.00  0.00    +0.000 A 
ATOM     32  C   UNL     1       5.513   5.286  17.158  0.00  0.00    +0.000 A 
ATOM     33  C   UNL     1       4.872   4.274  16.456  0.00  0.00    +0.000 A 
ATOM     34  C   UNL     1       3.562   3.922  16.785  0.00  0.00    +0.000 A 
ATOM     35  C   UNL     1       2.874   4.575  17.824  0.00  0.00    +0.000 A 
ATOM     36  C   UNL     1       1.459   4.162  18.118  0.00  0.00    +0.000 C 
ENDBRANCH  29  30
ENDBRANCH  26  29
ENDBRANCH  22  23
ENDBRANCH   2  22
TORSDOF 10
ENDMDL
MODEL 8
REMARK VINA RESULT:      -6.9      4.893      8.417
REMARK  Name = 
REMARK  12 active torsions:
REMARK  status: ('A' for Active; 'I' for Inactive)
REMARK    1  A    between atoms: C_1  and  O_2
REMARK    2  A    between atoms: O_2  and  C_3
REMARK    3  A    between atoms: C_6  and  N_7
REMARK    4  A    between atoms: N_10  and  C_11
REMARK    5  A    between atoms: C_11  and  C_12
REMARK    6  A    between atoms: C_12  and  C_13
REMARK    7  A    between atoms: C_13  and  N_14
REMARK    8  A    between atoms: C_15  and  C_17
REMARK    9  A    between atoms: C_17  and  N_18
REMARK   10  A    between atoms: N_21  and  C_22
REMARK   11  A    between atoms: C_22  and  C_23
REMARK   12  A    between atoms: C_28  and  C_29
REMARK                            x       y       z     vdW  Elec       q    Type
REMARK                         _______ _______ _______ _____ _____    ______ ____
ROOT
ATOM      1  N   UNL     1       3.033  14.016  18.601  0.00  0.00    +0.000 N 
ATOM      2  C   UNL     1       3.531  14.341  19.842  0.00  0.00    +0.000 C 
ATOM      3  O   UNL     1       3.459  13.594  20.816  0.00  0.00    +0.000 OA
ATOM      4  H   UNL     1       3.086  14.697  17.849  0.00  0.00    +0.000 HD
ENDROOT
BRANCH   1   5
ATOM      5  C   UNL     1       2.391  12.745  18.351  0.00  0.00    +0.000 C 
BRANCH   5   6
ATOM      6  C   UNL     1       1.022  12.684  19.018  0.00  0.00    +0.000 C 
BRANCH   6   7
ATOM      7  C   UNL     1       0.936  11.558  20.050  0.00  0.00    +0.000 C 
BRANCH   7  11
ATOM      8  N   UNL     1       1.853   8.108  19.688  0.00  0.00    +0.000 N 
ATOM      9  C   UNL     1       1.872   9.038  18.554  0.00  0.00    +0.000 C 
ATOM     10  C   UNL     1       0.517   9.760  18.412  0.00  0.00    +0.000 C 
ATOM     11  N   UNL     1       0.061  10.443  19.649  0.00  0.00    +0.000 NA
ATOM     12  C   UNL     1       0.002   9.418  20.722  0.00  0.00    +0.000 C 
ATOM     13  C   UNL     1       1.316   8.628  20.957  0.00  0.00    +0.000 C 
BRANCH   8  17
ATOM     14  C   UNL     1       2.439   3.955  19.228  0.00  0.00    +0.000 A 
ATOM     15  C   UNL     1       1.949   4.473  20.424  0.00  0.00    +0.000 A 
ATOM     16  C   UNL     1       1.744   5.851  20.563  0.00  0.00    +0.000 A 
ATOM     17  C   UNL     1       2.036   6.747  19.524  0.00  0.00    +0.000 A 
ATOM     18  C   UNL     1       2.545   6.199  18.340  0.00  0.00    +0.000 A 
ATOM     19  C   UNL     1       2.749   4.826  18.189  0.00  0.00    +0.000 A 
BRANCH  14  21
ATOM     20  C   UNL     1       3.142   2.085  17.981  0.00  0.00    +0.000 C 
ATOM     21  O   UNL     1       2.621   2.601  19.202  0.00  0.00    +0.000 OA
ENDBRANCH  14  21
ENDBRANCH   8  17
ENDBRANCH   7  11
ENDBRANCH   6   7
ENDBRANCH   5   6
ENDBRANCH   1   5
BRANCH   2  22
ATOM     22  C   UNL     1       4.076  15.760  19.949  0.00  0.00    +0.000 C 
BRANCH  22  23
ATOM     23  N   UNL     1       5.492  15.794  19.642  0.00  0.00    +0.000 N 
ATOM     24  C   UNL     1       5.998  15.711  18.286  0.00  0.00    +0.000 C 
ATOM     25  C   UNL     1       7.503  15.840  18.481  0.00  0.00    +0.000 C 
ATOM     26  N   UNL     1       7.686  15.392  19.843  0.00  0.00    +0.000 N 
ATOM     27  C   UNL     1       6.483  15.407  20.544  0.00  0.00    +0.000 C 
ATOM     28  O   UNL     1       6.310  15.123  21.717  0.00  0.00    +0.000 OA
BRANCH  26  29
ATOM     29  C   UNL     1       8.982  15.080  20.411  0.00  0.00    +0.000 C 
BRANCH  29  30
ATOM     30  C   UNL     1       9.374  13.635  20.174  0.00  0.00    +0.000 A 
ATOM     31  C   UNL     1       8.921  12.668  21.092  0.00  0.00    +0.000 A 
ATOM     32  C   UNL     1       9.226  11.317  20.930  0.00  0.00    +0.000 A 
ATOM     33  C   UNL     1       9.992  10.908  19.847  0.00  0.00    +0.000 A 
ATOM     34  C   UNL     1      10.465  11.852  18.935  0.00  0.00    +0.000 A 
ATOM     35  C   UNL     1      10.176  13.220  19.089  0.00  0.00    +0.000 A 
ATOM     36  C   UNL     1      10.729  14.189  18.082  0.00  0.00    +0.000 C 
ENDBRANCH  29  30
ENDBRANCH  26  29
ENDBRANCH  22  23
ENDBRANCH   2  22
TORSDOF 10
ENDMDL
MODEL 9
REMARK VINA RESULT:      -6.9      2.983     10.188
REMARK  Name = 
REMARK  12 active torsions:
REMARK  status: ('A' for Active; 'I' for Inactive)
REMARK    1  A    between atoms: C_1  and  O_2
REMARK    2  A    between atoms: O_2  and  C_3
REMARK    3  A    between atoms: C_6  and  N_7
REMARK    4  A    between atoms: N_10  and  C_11
REMARK    5  A    between atoms: C_11  and  C_12
REMARK    6  A    between atoms: C_12  and  C_13
REMARK    7  A    between atoms: C_13  and  N_14
REMARK    8  A    between atoms: C_15  and  C_17
REMARK    9  A    between atoms: C_17  and  N_18
REMARK   10  A    between atoms: N_21  and  C_22
REMARK   11  A    between atoms: C_22  and  C_23
REMARK   12  A    between atoms: C_28  and  C_29
REMARK                            x       y       z     vdW  Elec       q    Type
REMARK                         _______ _______ _______ _____ _____    ______ ____
ROOT
ATOM      1  N   UNL     1       1.610   5.282  20.062  0.00  0.00    +0.000 N 
ATOM      2  C   UNL     1       1.422   3.959  20.391  0.00  0.00    +0.000 C 
ATOM      3  O   UNL     1       1.602   3.512  21.523  0.00  0.00    +0.000 OA
ATOM      4  H   UNL     1       1.486   5.577  19.098  0.00  0.00    +0.000 HD
ENDROOT
BRANCH   1   5
ATOM      5  C   UNL     1       2.028   6.255  21.045  0.00  0.00    +0.000 C 
BRANCH   5   6
ATOM      6  C   UNL     1       1.940   7.670  20.485  0.00  0.00    +0.000 C 
BRANCH   6   7
ATOM      7  C   UNL     1       1.270   8.634  21.467  0.00  0.00    +0.000 C 
BRANCH   7  11
ATOM      8  N   UNL     1      -0.802  11.491  22.114  0.00  0.00    +0.000 N 
ATOM      9  C   UNL     1      -0.563  10.461  23.130  0.00  0.00    +0.000 C 
ATOM     10  C   UNL     1      -0.892   9.059  22.579  0.00  0.00    +0.000 C 
ATOM     11  N   UNL     1      -0.193   8.725  21.313  0.00  0.00    +0.000 NA
ATOM     12  C   UNL     1      -0.545   9.776  20.324  0.00  0.00    +0.000 C 
ATOM     13  C   UNL     1      -0.253  11.231  20.772  0.00  0.00    +0.000 C 
BRANCH   8  17
ATOM     14  C   UNL     1      -3.647  14.548  22.715  0.00  0.00    +0.000 A 
ATOM     15  C   UNL     1      -2.575  14.395  23.591  0.00  0.00    +0.000 A 
ATOM     16  C   UNL     1      -1.628  13.386  23.376  0.00  0.00    +0.000 A 
ATOM     17  C   UNL     1      -1.731  12.498  22.296  0.00  0.00    +0.000 A 
ATOM     18  C   UNL     1      -2.829  12.665  21.442  0.00  0.00    +0.000 A 
ATOM     19  C   UNL     1      -3.778  13.670  21.645  0.00  0.00    +0.000 A 
BRANCH  14  21
ATOM     20  C   UNL     1      -5.880  15.139  23.173  0.00  0.00    +0.000 C 
ATOM     21  O   UNL     1      -4.524  15.549  23.024  0.00  0.00    +0.000 OA
ENDBRANCH  14  21
ENDBRANCH   8  17
ENDBRANCH   7  11
ENDBRANCH   6   7
ENDBRANCH   5   6
ENDBRANCH   1   5
BRANCH   2  22
ATOM     22  C   UNL     1       1.086   3.058  19.209  0.00  0.00    +0.000 C 
BRANCH  22  23
ATOM     23  N   UNL     1       2.265   2.795  18.409  0.00  0.00    +0.000 N 
ATOM     24  C   UNL     1       3.230   1.769  18.755  0.00  0.00    +0.000 C 
ATOM     25  C   UNL     1       4.229   1.847  17.609  0.00  0.00    +0.000 C 
ATOM     26  N   UNL     1       4.059   3.201  17.131  0.00  0.00    +0.000 N 
ATOM     27  C   UNL     1       2.860   3.747  17.582  0.00  0.00    +0.000 C 
ATOM     28  O   UNL     1       2.410   4.851  17.324  0.00  0.00    +0.000 OA
BRANCH  26  29
ATOM     29  C   UNL     1       4.979   3.842  16.214  0.00  0.00    +0.000 C 
BRANCH  29  30
ATOM     30  C   UNL     1       5.858   4.863  16.911  0.00  0.00    +0.000 A 
ATOM     31  C   UNL     1       6.780   4.398  17.867  0.00  0.00    +0.000 A 
ATOM     32  C   UNL     1       7.635   5.274  18.535  0.00  0.00    +0.000 A 
ATOM     33  C   UNL     1       7.580   6.634  18.260  0.00  0.00    +0.000 A 
ATOM     34  C   UNL     1       6.662   7.118  17.328  0.00  0.00    +0.000 A 
ATOM     35  C   UNL     1       5.785   6.249  16.653  0.00  0.00    +0.000 A 
ATOM     36  C   UNL     1       4.807   6.834  15.673  0.00  0.00    +0.000 C 
ENDBRANCH  29  30
ENDBRANCH  26  29
ENDBRANCH  22  23
ENDBRANCH   2  22
TORSDOF 10
ENDMDL
