MODEL 1
REMARK VINA RESULT:      -8.4      0.000      0.000
REMARK  Name = 
REMARK  11 active torsions:
REMARK  status: ('A' for Active; 'I' for Inactive)
REMARK    1  A    between atoms: C_1  and  O_2
REMARK    2  A    between atoms: O_2  and  C_3
REMARK    3  A    between atoms: N_5  and  C_6
REMARK    4  A    between atoms: C_6  and  C_7
REMARK    5  A    between atoms: C_6  and  C_19
REMARK    6  A    between atoms: N_9  and  C_10
REMARK    7  A    between atoms: C_10  and  C_11
REMARK    8  A    between atoms: C_11  and  C_12
REMARK    9  A    between atoms: C_12  and  C_13
REMARK   10  A    between atoms: C_19  and  C_20
REMARK   11  A    between atoms: C_19  and  C_26
REMARK                            x       y       z     vdW  Elec       q    Type
REMARK                         _______ _______ _______ _____ _____    ______ ____
ROOT
ATOM      1  C   UNL     1       4.968   6.168  17.504  0.00  0.00    +0.000 C 
ENDROOT
BRANCH   1   4
ATOM      2  C   UNL     1       5.566   5.088  15.316  0.00  0.00    +0.000 C 
ATOM      3  O   UNL     1       5.995   6.080  14.793  0.00  0.00    +0.000 OA
ATOM      4  N   UNL     1       5.028   5.026  16.577  0.00  0.00    +0.000 N 
ATOM      5  H   UNL     1       4.942   4.096  16.954  0.00  0.00    +0.000 HD
BRANCH   2   7
ATOM      6  C   UNL     1       6.139   3.781  13.443  0.00  0.00    +0.000 C 
ATOM      7  O   UNL     1       5.533   3.845  14.744  0.00  0.00    +0.000 OA
ENDBRANCH   2   7
ENDBRANCH   1   4
BRANCH   1   8
ATOM      8  C   UNL     1       6.410   6.586  17.896  0.00  0.00    +0.000 C 
ATOM      9  O   UNL     1       7.011   5.997  18.798  0.00  0.00    +0.000 OA
ATOM     10  N   UNL     1       6.954   7.716  17.324  0.00  0.00    +0.000 N 
ATOM     11  H   UNL     1       6.326   8.385  16.910  0.00  0.00    +0.000 HD
BRANCH  10  12
ATOM     12  C   UNL     1       8.253   8.199  17.739  0.00  0.00    +0.000 C 
BRANCH  12  13
ATOM     13  C   UNL     1       8.276   9.693  18.045  0.00  0.00    +0.000 C 
BRANCH  13  14
ATOM     14  C   UNL     1       9.178   9.996  19.245  0.00  0.00    +0.000 C 
BRANCH  14  15
ATOM     15  C   UNL     1      10.195  11.092  18.928  0.00  0.00    +0.000 C 
ATOM     16  C   UNL     1      10.540  11.918  20.185  0.00  0.00    +0.000 C 
ATOM     17  N   UNL     1      11.488  13.011  19.885  0.00  0.00    +0.000 NA
ATOM     18  C   UNL     1      10.924  13.827  18.792  0.00  0.00    +0.000 C 
ATOM     19  C   UNL     1      10.570  12.980  17.563  0.00  0.00    +0.000 C 
ATOM     20  O   UNL     1       9.647  11.943  17.907  0.00  0.00    +0.000 OA
ATOM     21  H   UNL     1      12.362  12.598  19.558  0.00  0.00    +0.000 HD
ENDBRANCH  14  15
ENDBRANCH  13  14
ENDBRANCH  12  13
ENDBRANCH  10  12
ENDBRANCH   1   8
BRANCH   1  22
ATOM     22  C   UNL     1       3.916   6.016  18.655  0.00  0.00    +0.000 C 
BRANCH  22  23
ATOM     23  C   UNL     1       2.914   7.187  18.771  0.00  0.00    +0.000 A 
ATOM     24  C   UNL     1       2.743   8.095  17.711  0.00  0.00    +0.000 A 
ATOM     25  C   UNL     1       1.862   9.172  17.810  0.00  0.00    +0.000 A 
ATOM     26  C   UNL     1       1.153   9.392  18.984  0.00  0.00    +0.000 A 
ATOM     27  C   UNL     1       1.300   8.516  20.047  0.00  0.00    +0.000 A 
ATOM     28  C   UNL     1       2.152   7.411  19.933  0.00  0.00    +0.000 A 
ENDBRANCH  22  23
BRANCH  22  29
ATOM     29  C   UNL     1       3.258   4.624  18.561  0.00  0.00    +0.000 A 
ATOM     30  C   UNL     1       3.900   3.474  19.031  0.00  0.00    +0.000 A 
ATOM     31  C   UNL     1       3.292   2.218  18.891  0.00  0.00    +0.000 A 
ATOM     32  C   UNL     1       2.011   2.100  18.355  0.00  0.00    +0.000 A 
ATOM     33  C   UNL     1       1.352   3.228  17.913  0.00  0.00    +0.000 A 
ATOM     34  C   UNL     1       1.995   4.456  17.973  0.00  0.00    +0.000 A 
ENDBRANCH  22  29
ENDBRANCH   1  22
TORSDOF 10
ENDMDL
MODEL 2
REMARK VINA RESULT:      -8.4      0.534      1.021
REMARK  Name = 
REMARK  11 active torsions:
REMARK  status: ('A' for Active; 'I' for Inactive)
REMARK    1  A    between atoms: C_1  and  O_2
REMARK    2  A    between atoms: O_2  and  C_3
REMARK    3  A    between atoms: N_5  and  C_6
REMARK    4  A    between atoms: C_6  and  C_7
REMARK    5  A    between atoms: C_6  and  C_19
REMARK    6  A    between atoms: N_9  and  C_10
REMARK    7  A    between atoms: C_10  and  C_11
REMARK    8  A    between atoms: C_11  and  C_12
REMARK    9  A    between atoms: C_12  and  C_13
REMARK   10  A    between atoms: C_19  and  C_20
REMARK   11  A    between atoms: C_19  and  C_26
REMARK                            x       y       z     vdW  Elec       q    Type
REMARK                         _______ _______ _______ _____ _____    ______ ____
ROOT
ATOM      1  C   UNL     1       4.918   6.210  17.497  0.00  0.00    +0.000 C 
ENDROOT
BRANCH   1   4
ATOM      2  C   UNL     1       5.543   5.109  15.328  0.00  0.00    +0.000 C 
ATOM      3  O   UNL     1       6.123   6.051  14.864  0.00  0.00    +0.000 OA
ATOM      4  N   UNL     1       4.910   5.088  16.545  0.00  0.00    +0.000 N 
ATOM      5  H   UNL     1       4.686   4.168  16.889  0.00  0.00    +0.000 HD
BRANCH   2   7
ATOM      6  C   UNL     1       6.090   3.779  13.463  0.00  0.00    +0.000 C 
ATOM      7  O   UNL     1       5.404   3.890  14.720  0.00  0.00    +0.000 OA
ENDBRANCH   2   7
ENDBRANCH   1   4
BRANCH   1   8
ATOM      8  C   UNL     1       6.383   6.549  17.878  0.00  0.00    +0.000 C 
ATOM      9  O   UNL     1       7.028   5.805  18.621  0.00  0.00    +0.000 OA
ATOM     10  N   UNL     1       6.908   7.765  17.492  0.00  0.00    +0.000 N 
ATOM     11  H   UNL     1       6.264   8.499  17.243  0.00  0.00    +0.000 HD
BRANCH  10  12
ATOM     12  C   UNL     1       8.233   8.163  17.914  0.00  0.00    +0.000 C 
BRANCH  12  13
ATOM     13  C   UNL     1       8.414   9.676  17.996  0.00  0.00    +0.000 C 
BRANCH  13  14
ATOM     14  C   UNL     1       9.215  10.067  19.242  0.00  0.00    +0.000 C 
BRANCH  14  15
ATOM     15  C   UNL     1      10.030  11.340  19.014  0.00  0.00    +0.000 C 
ATOM     16  C   UNL     1       9.243  12.595  19.446  0.00  0.00    +0.000 C 
ATOM     17  N   UNL     1      10.000  13.838  19.190  0.00  0.00    +0.000 NA
ATOM     18  C   UNL     1      10.388  13.858  17.766  0.00  0.00    +0.000 C 
ATOM     19  C   UNL     1      11.151  12.591  17.357  0.00  0.00    +0.000 C 
ATOM     20  O   UNL     1      10.372  11.421  17.621  0.00  0.00    +0.000 OA
ATOM     21  H   UNL     1      10.851  13.818  19.754  0.00  0.00    +0.000 HD
ENDBRANCH  14  15
ENDBRANCH  13  14
ENDBRANCH  12  13
ENDBRANCH  10  12
ENDBRANCH   1   8
BRANCH   1  22
ATOM     22  C   UNL     1       3.875   6.085  18.660  0.00  0.00    +0.000 C 
BRANCH  22  23
ATOM     23  C   UNL     1       2.898   7.275  18.781  0.00  0.00    +0.000 A 
ATOM     24  C   UNL     1       2.157   7.480  19.959  0.00  0.00    +0.000 A 
ATOM     25  C   UNL     1       1.251   8.534  20.075  0.00  0.00    +0.000 A 
ATOM     26  C   UNL     1       1.035   9.394  19.005  0.00  0.00    +0.000 A 
ATOM     27  C   UNL     1       1.750   9.219  17.832  0.00  0.00    +0.000 A 
ATOM     28  C   UNL     1       2.690   8.187  17.729  0.00  0.00    +0.000 A 
ENDBRANCH  22  23
BRANCH  22  29
ATOM     29  C   UNL     1       3.189   4.706  18.578  0.00  0.00    +0.000 A 
ATOM     30  C   UNL     1       3.786   3.554  19.103  0.00  0.00    +0.000 A 
ATOM     31  C   UNL     1       3.154   2.309  18.974  0.00  0.00    +0.000 A 
ATOM     32  C   UNL     1       1.891   2.205  18.395  0.00  0.00    +0.000 A 
ATOM     33  C   UNL     1       1.276   3.335  17.898  0.00  0.00    +0.000 A 
ATOM     34  C   UNL     1       1.944   4.549  17.949  0.00  0.00    +0.000 A 
ENDBRANCH  22  29
ENDBRANCH   1  22
TORSDOF 10
ENDMDL
MODEL 3
REMARK VINA RESULT:      -8.3      0.736      1.146
REMARK  Name = 
REMARK  11 active torsions:
REMARK  status: ('A' for Active; 'I' for Inactive)
REMARK    1  A    between atoms: C_1  and  O_2
REMARK    2  A    between atoms: O_2  and  C_3
REMARK    3  A    between atoms: N_5  and  C_6
REMARK    4  A    between atoms: C_6  and  C_7
REMARK    5  A    between atoms: C_6  and  C_19
REMARK    6  A    between atoms: N_9  and  C_10
REMARK    7  A    between atoms: C_10  and  C_11
REMARK    8  A    between atoms: C_11  and  C_12
REMARK    9  A    between atoms: C_12  and  C_13
REMARK   10  A    between atoms: C_19  and  C_20
REMARK   11  A    between atoms: C_19  and  C_26
REMARK                            x       y       z     vdW  Elec       q    Type
REMARK                         _______ _______ _______ _____ _____    ______ ____
ROOT
ATOM      1  C   UNL     1       5.113   6.140  17.463  0.00  0.00    +0.000 C 
ENDROOT
BRANCH   1   4
ATOM      2  C   UNL     1       6.083   4.943  15.479  0.00  0.00    +0.000 C 
ATOM      3  O   UNL     1       6.759   5.856  15.093  0.00  0.00    +0.000 OA
ATOM      4  N   UNL     1       5.245   4.981  16.566  0.00  0.00    +0.000 N 
ATOM      5  H   UNL     1       4.941   4.080  16.897  0.00  0.00    +0.000 HD
BRANCH   2   7
ATOM      6  C   UNL     1       6.030   3.725  13.465  0.00  0.00    +0.000 C 
ATOM      7  O   UNL     1       6.023   3.704  14.901  0.00  0.00    +0.000 OA
ENDBRANCH   2   7
ENDBRANCH   1   4
BRANCH   1   8
ATOM      8  C   UNL     1       6.525   6.637  17.870  0.00  0.00    +0.000 C 
ATOM      9  O   UNL     1       7.190   6.021  18.707  0.00  0.00    +0.000 OA
ATOM     10  N   UNL     1       6.967   7.853  17.394  0.00  0.00    +0.000 N 
ATOM     11  H   UNL     1       6.278   8.503  17.050  0.00  0.00    +0.000 HD
BRANCH  10  12
ATOM     12  C   UNL     1       8.232   8.400  17.831  0.00  0.00    +0.000 C 
BRANCH  12  13
ATOM     13  C   UNL     1       8.261   9.925  17.849  0.00  0.00    +0.000 C 
BRANCH  13  14
ATOM     14  C   UNL     1       9.339  10.445  18.805  0.00  0.00    +0.000 C 
BRANCH  14  15
ATOM     15  C   UNL     1      10.076  11.652  18.224  0.00  0.00    +0.000 C 
ATOM     16  C   UNL     1      11.606  11.475  18.325  0.00  0.00    +0.000 C 
ATOM     17  N   UNL     1      12.333  12.654  17.809  0.00  0.00    +0.000 NA
ATOM     18  C   UNL     1      11.840  13.849  18.519  0.00  0.00    +0.000 C 
ATOM     19  C   UNL     1      10.315  13.991  18.423  0.00  0.00    +0.000 C 
ATOM     20  O   UNL     1       9.662  12.828  18.939  0.00  0.00    +0.000 OA
ATOM     21  H   UNL     1      12.116  12.757  16.817  0.00  0.00    +0.000 HD
ENDBRANCH  14  15
ENDBRANCH  13  14
ENDBRANCH  12  13
ENDBRANCH  10  12
ENDBRANCH   1   8
BRANCH   1  22
ATOM     22  C   UNL     1       4.048   5.965  18.599  0.00  0.00    +0.000 C 
BRANCH  22  23
ATOM     23  C   UNL     1       3.035   7.126  18.718  0.00  0.00    +0.000 A 
ATOM     24  C   UNL     1       2.859   8.039  17.662  0.00  0.00    +0.000 A 
ATOM     25  C   UNL     1       1.969   9.107  17.764  0.00  0.00    +0.000 A 
ATOM     26  C   UNL     1       1.253   9.315  18.937  0.00  0.00    +0.000 A 
ATOM     27  C   UNL     1       1.405   8.434  19.995  0.00  0.00    +0.000 A 
ATOM     28  C   UNL     1       2.267   7.337  19.879  0.00  0.00    +0.000 A 
ENDBRANCH  22  23
BRANCH  22  29
ATOM     29  C   UNL     1       3.402   4.569  18.478  0.00  0.00    +0.000 A 
ATOM     30  C   UNL     1       2.163   4.384  17.857  0.00  0.00    +0.000 A 
ATOM     31  C   UNL     1       1.584   3.108  17.802  0.00  0.00    +0.000 A 
ATOM     32  C   UNL     1       2.261   1.994  18.292  0.00  0.00    +0.000 A 
ATOM     33  C   UNL     1       3.497   2.156  18.883  0.00  0.00    +0.000 A 
ATOM     34  C   UNL     1       4.025   3.431  19.013  0.00  0.00    +0.000 A 
ENDBRANCH  22  29
ENDBRANCH   1  22
TORSDOF 10
ENDMDL
MODEL 4
REMARK VINA RESULT:      -8.2      1.693      2.323
REMARK  Name = 
REMARK  11 active torsions:
REMARK  status: ('A' for Active; 'I' for Inactive)
REMARK    1  A    between atoms: C_1  and  O_2
REMARK    2  A    between atoms: O_2  and  C_3
REMARK    3  A    between atoms: N_5  and  C_6
REMARK    4  A    between atoms: C_6  and  C_7
REMARK    5  A    between atoms: C_6  and  C_19
REMARK    6  A    between atoms: N_9  and  C_10
REMARK    7  A    between atoms: C_10  and  C_11
REMARK    8  A    between atoms: C_11  and  C_12
REMARK    9  A    between atoms: C_12  and  C_13
REMARK   10  A    between atoms: C_19  and  C_20
REMARK   11  A    between atoms: C_19  and  C_26
REMARK                            x       y       z     vdW  Elec       q    Type
REMARK                         _______ _______ _______ _____ _____    ______ ____
ROOT
ATOM      1  C   UNL     1       4.190   5.536  18.476  0.00  0.00    +0.000 C 
ENDROOT
BRANCH   1   4
ATOM      2  C   UNL     1       4.384   3.572  16.922  0.00  0.00    +0.000 C 
ATOM      3  O   UNL     1       4.785   4.191  15.976  0.00  0.00    +0.000 OA
ATOM      4  N   UNL     1       4.041   4.111  18.136  0.00  0.00    +0.000 N 
ATOM      5  H   UNL     1       3.958   3.445  18.887  0.00  0.00    +0.000 HD
BRANCH   2   7
ATOM      6  C   UNL     1       3.640   1.732  18.189  0.00  0.00    +0.000 C 
ATOM      7  O   UNL     1       4.191   2.217  16.954  0.00  0.00    +0.000 OA
ENDBRANCH   2   7
ENDBRANCH   1   4
BRANCH   1   8
ATOM      8  C   UNL     1       5.698   5.897  18.521  0.00  0.00    +0.000 C 
ATOM      9  O   UNL     1       6.382   5.614  19.508  0.00  0.00    +0.000 OA
ATOM     10  N   UNL     1       6.229   6.667  17.508  0.00  0.00    +0.000 N 
ATOM     11  H   UNL     1       5.594   7.206  16.942  0.00  0.00    +0.000 HD
BRANCH  10  12
ATOM     12  C   UNL     1       7.604   7.112  17.566  0.00  0.00    +0.000 C 
BRANCH  12  13
ATOM     13  C   UNL     1       7.747   8.626  17.691  0.00  0.00    +0.000 C 
BRANCH  13  14
ATOM     14  C   UNL     1       8.863   8.995  18.672  0.00  0.00    +0.000 C 
BRANCH  14  15
ATOM     15  C   UNL     1       8.894  10.497  18.957  0.00  0.00    +0.000 C 
ATOM     16  C   UNL     1       9.788  11.242  17.942  0.00  0.00    +0.000 C 
ATOM     17  N   UNL     1       9.864  12.689  18.232  0.00  0.00    +0.000 NA
ATOM     18  C   UNL     1      10.307  12.859  19.629  0.00  0.00    +0.000 C 
ATOM     19  C   UNL     1       9.416  12.092  20.615  0.00  0.00    +0.000 C 
ATOM     20  O   UNL     1       9.382  10.699  20.293  0.00  0.00    +0.000 OA
ATOM     21  H   UNL     1       8.928  13.084  18.142  0.00  0.00    +0.000 HD
ENDBRANCH  14  15
ENDBRANCH  13  14
ENDBRANCH  12  13
ENDBRANCH  10  12
ENDBRANCH   1   8
BRANCH   1  22
ATOM     22  C   UNL     1       3.290   6.019  19.664  0.00  0.00    +0.000 C 
BRANCH  22  23
ATOM     23  C   UNL     1       2.447   7.278  19.364  0.00  0.00    +0.000 A 
ATOM     24  C   UNL     1       2.375   7.802  18.060  0.00  0.00    +0.000 A 
ATOM     25  C   UNL     1       1.640   8.953  17.778  0.00  0.00    +0.000 A 
ATOM     26  C   UNL     1       0.984   9.634  18.796  0.00  0.00    +0.000 A 
ATOM     27  C   UNL     1       1.036   9.143  20.091  0.00  0.00    +0.000 A 
ATOM     28  C   UNL     1       1.738   7.965  20.368  0.00  0.00    +0.000 A 
ENDBRANCH  22  23
BRANCH  22  29
ATOM     29  C   UNL     1       2.476   4.824  20.202  0.00  0.00    +0.000 A 
ATOM     30  C   UNL     1       1.334   4.356  19.544  0.00  0.00    +0.000 A 
ATOM     31  C   UNL     1       0.592   3.295  20.083  0.00  0.00    +0.000 A 
ATOM     32  C   UNL     1       1.019   2.638  21.236  0.00  0.00    +0.000 A 
ATOM     33  C   UNL     1       2.159   3.068  21.881  0.00  0.00    +0.000 A 
ATOM     34  C   UNL     1       2.838   4.174  21.392  0.00  0.00    +0.000 A 
ENDBRANCH  22  29
ENDBRANCH   1  22
TORSDOF 10
ENDMDL
MODEL 5
REMARK VINA RESULT:      -8.1      0.828      1.633
REMARK  Name = 
REMARK  11 active torsions:
REMARK  status: ('A' for Active; 'I' for Inactive)
REMARK    1  A    between atoms: C_1  and  O_2
REMARK    2  A    between atoms: O_2  and  C_3
REMARK    3  A    between atoms: N_5  and  C_6
REMARK    4  A    between atoms: C_6  and  C_7
REMARK    5  A    between atoms: C_6  and  C_19
REMARK    6  A    between atoms: N_9  and  C_10
REMARK    7  A    between atoms: C_10  and  C_11
REMARK    8  A    between atoms: C_11  and  C_12
REMARK    9  A    between atoms: C_12  and  C_13
REMARK   10  A    between atoms: C_19  and  C_20
REMARK   11  A    between atoms: C_19  and  C_26
REMARK                            x       y       z     vdW  Elec       q    Type
REMARK                         _______ _______ _______ _____ _____    ______ ____
ROOT
ATOM      1  C   UNL     1       5.207   6.122  17.461  0.00  0.00    +0.000 C 
ENDROOT
BRANCH   1   4
ATOM      2  C   UNL     1       5.754   5.026  15.268  0.00  0.00    +0.000 C 
ATOM      3  O   UNL     1       6.095   6.027  14.701  0.00  0.00    +0.000 OA
ATOM      4  N   UNL     1       5.287   4.963  16.558  0.00  0.00    +0.000 N 
ATOM      5  H   UNL     1       5.276   4.040  16.959  0.00  0.00    +0.000 HD
BRANCH   2   7
ATOM      6  C   UNL     1       6.147   3.729  13.343  0.00  0.00    +0.000 C 
ATOM      7  O   UNL     1       5.765   3.768  14.726  0.00  0.00    +0.000 OA
ENDBRANCH   2   7
ENDBRANCH   1   4
BRANCH   1   8
ATOM      8  C   UNL     1       6.641   6.593  17.819  0.00  0.00    +0.000 C 
ATOM      9  O   UNL     1       7.296   6.010  18.687  0.00  0.00    +0.000 OA
ATOM     10  N   UNL     1       7.119   7.759  17.259  0.00  0.00    +0.000 N 
ATOM     11  H   UNL     1       6.450   8.411  16.882  0.00  0.00    +0.000 HD
BRANCH  10  12
ATOM     12  C   UNL     1       8.409   8.288  17.646  0.00  0.00    +0.000 C 
BRANCH  12  13
ATOM     13  C   UNL     1       8.317   9.504  18.563  0.00  0.00    +0.000 C 
BRANCH  13  14
ATOM     14  C   UNL     1       8.596  10.797  17.791  0.00  0.00    +0.000 C 
BRANCH  14  15
ATOM     15  C   UNL     1       9.708  11.617  18.444  0.00  0.00    +0.000 C 
ATOM     16  C   UNL     1      11.026  11.509  17.647  0.00  0.00    +0.000 C 
ATOM     17  N   UNL     1      12.124  12.260  18.291  0.00  0.00    +0.000 NA
ATOM     18  C   UNL     1      12.250  11.792  19.685  0.00  0.00    +0.000 C 
ATOM     19  C   UNL     1      10.923  11.890  20.449  0.00  0.00    +0.000 C 
ATOM     20  O   UNL     1       9.898  11.143  19.787  0.00  0.00    +0.000 OA
ATOM     21  H   UNL     1      11.872  13.249  18.306  0.00  0.00    +0.000 HD
ENDBRANCH  14  15
ENDBRANCH  13  14
ENDBRANCH  12  13
ENDBRANCH  10  12
ENDBRANCH   1   8
BRANCH   1  22
ATOM     22  C   UNL     1       4.180   5.964  18.633  0.00  0.00    +0.000 C 
BRANCH  22  23
ATOM     23  C   UNL     1       3.152   7.111  18.749  0.00  0.00    +0.000 A 
ATOM     24  C   UNL     1       2.365   7.258  19.906  0.00  0.00    +0.000 A 
ATOM     25  C   UNL     1       1.414   8.272  20.016  0.00  0.00    +0.000 A 
ATOM     26  C   UNL     1       1.198   9.149  18.960  0.00  0.00    +0.000 A 
ATOM     27  C   UNL     1       1.957   9.031  17.807  0.00  0.00    +0.000 A 
ATOM     28  C   UNL     1       2.940   8.040  17.712  0.00  0.00    +0.000 A 
ENDBRANCH  22  23
BRANCH  22  29
ATOM     29  C   UNL     1       3.554   4.555  18.572  0.00  0.00    +0.000 A 
ATOM     30  C   UNL     1       2.367   4.307  17.874  0.00  0.00    +0.000 A 
ATOM     31  C   UNL     1       1.802   3.024  17.874  0.00  0.00    +0.000 A 
ATOM     32  C   UNL     1       2.448   1.959  18.500  0.00  0.00    +0.000 A 
ATOM     33  C   UNL     1       3.634   2.181  19.168  0.00  0.00    +0.000 A 
ATOM     34  C   UNL     1       4.142   3.469  19.239  0.00  0.00    +0.000 A 
ENDBRANCH  22  29
ENDBRANCH   1  22
TORSDOF 10
ENDMDL
MODEL 6
REMARK VINA RESULT:      -7.9      1.879      2.818
REMARK  Name = 
REMARK  11 active torsions:
REMARK  status: ('A' for Active; 'I' for Inactive)
REMARK    1  A    between atoms: C_1  and  O_2
REMARK    2  A    between atoms: O_2  and  C_3
REMARK    3  A    between atoms: N_5  and  C_6
REMARK    4  A    between atoms: C_6  and  C_7
REMARK    5  A    between atoms: C_6  and  C_19
REMARK    6  A    between atoms: N_9  and  C_10
REMARK    7  A    between atoms: C_10  and  C_11
REMARK    8  A    between atoms: C_11  and  C_12
REMARK    9  A    between atoms: C_12  and  C_13
REMARK   10  A    between atoms: C_19  and  C_20
REMARK   11  A    between atoms: C_19  and  C_26
REMARK                            x       y       z     vdW  Elec       q    Type
REMARK                         _______ _______ _______ _____ _____    ______ ____
ROOT
ATOM      1  C   UNL     1       3.924   5.558  17.980  0.00  0.00    +0.000 C 
ENDROOT
BRANCH   1   4
ATOM      2  C   UNL     1       3.351   3.208  17.301  0.00  0.00    +0.000 C 
ATOM      3  O   UNL     1       2.313   3.476  16.762  0.00  0.00    +0.000 OA
ATOM      4  N   UNL     1       4.171   4.108  17.935  0.00  0.00    +0.000 N 
ATOM      5  H   UNL     1       5.103   3.774  18.119  0.00  0.00    +0.000 HD
BRANCH   2   7
ATOM      6  C   UNL     1       3.568   1.249  18.590  0.00  0.00    +0.000 C 
ATOM      7  O   UNL     1       3.898   1.956  17.384  0.00  0.00    +0.000 OA
ENDBRANCH   2   7
ENDBRANCH   1   4
BRANCH   1   8
ATOM      8  C   UNL     1       5.166   6.307  17.431  0.00  0.00    +0.000 C 
ATOM      9  O   UNL     1       5.118   6.895  16.348  0.00  0.00    +0.000 OA
ATOM     10  N   UNL     1       6.366   6.186  18.099  0.00  0.00    +0.000 N 
ATOM     11  H   UNL     1       6.479   5.409  18.731  0.00  0.00    +0.000 HD
BRANCH  10  12
ATOM     12  C   UNL     1       7.570   6.784  17.565  0.00  0.00    +0.000 C 
BRANCH  12  13
ATOM     13  C   UNL     1       8.111   7.928  18.418  0.00  0.00    +0.000 C 
BRANCH  13  14
ATOM     14  C   UNL     1       8.038   9.259  17.664  0.00  0.00    +0.000 C 
BRANCH  14  15
ATOM     15  C   UNL     1       8.621  10.408  18.486  0.00  0.00    +0.000 C 
ATOM     16  C   UNL     1       9.840  11.039  17.782  0.00  0.00    +0.000 C 
ATOM     17  N   UNL     1      10.443  12.123  18.586  0.00  0.00    +0.000 NA
ATOM     18  C   UNL     1      10.761  11.585  19.923  0.00  0.00    +0.000 C 
ATOM     19  C   UNL     1       9.538  10.944  20.593  0.00  0.00    +0.000 C 
ATOM     20  O   UNL     1       8.998   9.901  19.777  0.00  0.00    +0.000 OA
ATOM     21  H   UNL     1       9.752  12.865  18.695  0.00  0.00    +0.000 HD
ENDBRANCH  14  15
ENDBRANCH  13  14
ENDBRANCH  12  13
ENDBRANCH  10  12
ENDBRANCH   1   8
BRANCH   1  22
ATOM     22  C   UNL     1       3.300   6.070  19.323  0.00  0.00    +0.000 C 
BRANCH  22  23
ATOM     23  C   UNL     1       2.469   7.366  19.195  0.00  0.00    +0.000 A 
ATOM     24  C   UNL     1       1.844   7.934  20.320  0.00  0.00    +0.000 A 
ATOM     25  C   UNL     1       1.069   9.089  20.216  0.00  0.00    +0.000 A 
ATOM     26  C   UNL     1       0.869   9.691  18.980  0.00  0.00    +0.000 A 
ATOM     27  C   UNL     1       1.472   9.156  17.853  0.00  0.00    +0.000 A 
ATOM     28  C   UNL     1       2.283   8.022  17.963  0.00  0.00    +0.000 A 
ENDBRANCH  22  23
BRANCH  22  29
ATOM     29  C   UNL     1       2.558   4.907  20.013  0.00  0.00    +0.000 A 
ATOM     30  C   UNL     1       1.244   4.568  19.674  0.00  0.00    +0.000 A 
ATOM     31  C   UNL     1       0.583   3.533  20.351  0.00  0.00    +0.000 A 
ATOM     32  C   UNL     1       1.244   2.774  21.315  0.00  0.00    +0.000 A 
ATOM     33  C   UNL     1       2.550   3.076  21.641  0.00  0.00    +0.000 A 
ATOM     34  C   UNL     1       3.168   4.158  21.031  0.00  0.00    +0.000 A 
ENDBRANCH  22  29
ENDBRANCH   1  22
TORSDOF 10
ENDMDL
MODEL 7
REMARK VINA RESULT:      -7.7      1.230      1.933
REMARK  Name = 
REMARK  11 active torsions:
REMARK  status: ('A' for Active; 'I' for Inactive)
REMARK    1  A    between atoms: C_1  and  O_2
REMARK    2  A    between atoms: O_2  and  C_3
REMARK    3  A    between atoms: N_5  and  C_6
REMARK    4  A    between atoms: C_6  and  C_7
REMARK    5  A    between atoms: C_6  and  C_19
REMARK    6  A    between atoms: N_9  and  C_10
REMARK    7  A    between atoms: C_10  and  C_11
REMARK    8  A    between atoms: C_11  and  C_12
REMARK    9  A    between atoms: C_12  and  C_13
REMARK   10  A    between atoms: C_19  and  C_20
REMARK   11  A    between atoms: C_19  and  C_26
REMARK                            x       y       z     vdW  Elec       q    Type
REMARK                         _______ _______ _______ _____ _____    ______ ____
ROOT
ATOM      1  C   UNL     1       5.456   6.058  17.523  0.00  0.00    +0.000 C 
ENDROOT
BRANCH   1   4
ATOM      2  C   UNL     1       6.564   4.927  15.573  0.00  0.00    +0.000 C 
ATOM      3  O   UNL     1       7.309   5.828  15.304  0.00  0.00    +0.000 OA
ATOM      4  N   UNL     1       5.628   4.944  16.577  0.00  0.00    +0.000 N 
ATOM      5  H   UNL     1       5.259   4.041  16.826  0.00  0.00    +0.000 HD
BRANCH   2   7
ATOM      6  C   UNL     1       6.108   3.819  13.546  0.00  0.00    +0.000 C 
ATOM      7  O   UNL     1       6.511   3.724  14.921  0.00  0.00    +0.000 OA
ENDBRANCH   2   7
ENDBRANCH   1   4
BRANCH   1   8
ATOM      8  C   UNL     1       6.850   6.550  17.995  0.00  0.00    +0.000 C 
ATOM      9  O   UNL     1       7.554   5.842  18.719  0.00  0.00    +0.000 OA
ATOM     10  N   UNL     1       7.229   7.846  17.714  0.00  0.00    +0.000 N 
ATOM     11  H   UNL     1       6.507   8.509  17.482  0.00  0.00    +0.000 HD
BRANCH  10  12
ATOM     12  C   UNL     1       8.475   8.375  18.224  0.00  0.00    +0.000 C 
BRANCH  12  13
ATOM     13  C   UNL     1       8.600   9.888  18.069  0.00  0.00    +0.000 C 
BRANCH  13  14
ATOM     14  C   UNL     1       9.670  10.452  19.008  0.00  0.00    +0.000 C 
BRANCH  14  15
ATOM     15  C   UNL     1       9.117  11.570  19.892  0.00  0.00    +0.000 C 
ATOM     16  C   UNL     1       9.920  12.876  19.712  0.00  0.00    +0.000 C 
ATOM     17  N   UNL     1       9.426  13.954  20.593  0.00  0.00    +0.000 NA
ATOM     18  C   UNL     1       9.433  13.456  21.982  0.00  0.00    +0.000 C 
ATOM     19  C   UNL     1       8.647  12.147  22.131  0.00  0.00    +0.000 C 
ATOM     20  O   UNL     1       9.168  11.138  21.261  0.00  0.00    +0.000 OA
ATOM     21  H   UNL     1       8.462  14.166  20.333  0.00  0.00    +0.000 HD
ENDBRANCH  14  15
ENDBRANCH  13  14
ENDBRANCH  12  13
ENDBRANCH  10  12
ENDBRANCH   1   8
BRANCH   1  22
ATOM     22  C   UNL     1       4.361   5.819  18.618  0.00  0.00    +0.000 C 
BRANCH  22  23
ATOM     23  C   UNL     1       3.302   6.938  18.726  0.00  0.00    +0.000 A 
ATOM     24  C   UNL     1       2.523   7.082  19.889  0.00  0.00    +0.000 A 
ATOM     25  C   UNL     1       1.544   8.071  19.992  0.00  0.00    +0.000 A 
ATOM     26  C   UNL     1       1.292   8.922  18.924  0.00  0.00    +0.000 A 
ATOM     27  C   UNL     1       2.042   8.806  17.765  0.00  0.00    +0.000 A 
ATOM     28  C   UNL     1       3.052   7.842  17.676  0.00  0.00    +0.000 A 
ENDBRANCH  22  23
BRANCH  22  29
ATOM     29  C   UNL     1       3.773   4.403  18.446  0.00  0.00    +0.000 A 
ATOM     30  C   UNL     1       2.679   4.158  17.609  0.00  0.00    +0.000 A 
ATOM     31  C   UNL     1       2.142   2.867  17.508  0.00  0.00    +0.000 A 
ATOM     32  C   UNL     1       2.731   1.793  18.174  0.00  0.00    +0.000 A 
ATOM     33  C   UNL     1       3.827   2.013  18.981  0.00  0.00    +0.000 A 
ATOM     34  C   UNL     1       4.299   3.307  19.146  0.00  0.00    +0.000 A 
ENDBRANCH  22  29
ENDBRANCH   1  22
TORSDOF 10
ENDMDL
MODEL 8
REMARK VINA RESULT:      -7.7      0.956      1.293
REMARK  Name = 
REMARK  11 active torsions:
REMARK  status: ('A' for Active; 'I' for Inactive)
REMARK    1  A    between atoms: C_1  and  O_2
REMARK    2  A    between atoms: O_2  and  C_3
REMARK    3  A    between atoms: N_5  and  C_6
REMARK    4  A    between atoms: C_6  and  C_7
REMARK    5  A    between atoms: C_6  and  C_19
REMARK    6  A    between atoms: N_9  and  C_10
REMARK    7  A    between atoms: C_10  and  C_11
REMARK    8  A    between atoms: C_11  and  C_12
REMARK    9  A    between atoms: C_12  and  C_13
REMARK   10  A    between atoms: C_19  and  C_20
REMARK   11  A    between atoms: C_19  and  C_26
REMARK                            x       y       z     vdW  Elec       q    Type
REMARK                         _______ _______ _______ _____ _____    ______ ____
ROOT
ATOM      1  C   UNL     1       5.256   6.132  17.406  0.00  0.00    +0.000 C 
ENDROOT
BRANCH   1   4
ATOM      2  C   UNL     1       5.677   5.039  15.184  0.00  0.00    +0.000 C 
ATOM      3  O   UNL     1       5.822   6.055  14.563  0.00  0.00    +0.000 OA
ATOM      4  N   UNL     1       5.374   4.963  16.521  0.00  0.00    +0.000 N 
ATOM      5  H   UNL     1       5.525   4.058  16.937  0.00  0.00    +0.000 HD
BRANCH   2   7
ATOM      6  C   UNL     1       6.123   3.738  13.273  0.00  0.00    +0.000 C 
ATOM      7  O   UNL     1       5.782   3.775  14.668  0.00  0.00    +0.000 OA
ENDBRANCH   2   7
ENDBRANCH   1   4
BRANCH   1   8
ATOM      8  C   UNL     1       6.673   6.659  17.753  0.00  0.00    +0.000 C 
ATOM      9  O   UNL     1       7.466   5.957  18.387  0.00  0.00    +0.000 OA
ATOM     10  N   UNL     1       6.983   7.972  17.471  0.00  0.00    +0.000 N 
ATOM     11  H   UNL     1       6.223   8.617  17.328  0.00  0.00    +0.000 HD
BRANCH  10  12
ATOM     12  C   UNL     1       8.256   8.530  17.872  0.00  0.00    +0.000 C 
BRANCH  12  13
ATOM     13  C   UNL     1       8.225  10.046  18.049  0.00  0.00    +0.000 C 
BRANCH  13  14
ATOM     14  C   UNL     1       9.634  10.603  18.277  0.00  0.00    +0.000 C 
BRANCH  14  15
ATOM     15  C   UNL     1       9.604  12.085  18.649  0.00  0.00    +0.000 C 
ATOM     16  C   UNL     1       9.434  12.277  20.171  0.00  0.00    +0.000 C 
ATOM     17  N   UNL     1       9.357  13.706  20.542  0.00  0.00    +0.000 NA
ATOM     18  C   UNL     1       8.277  14.331  19.755  0.00  0.00    +0.000 C 
ATOM     19  C   UNL     1       8.456  14.108  18.248  0.00  0.00    +0.000 C 
ATOM     20  O   UNL     1       8.519  12.711  17.944  0.00  0.00    +0.000 OA
ATOM     21  H   UNL     1      10.239  14.152  20.287  0.00  0.00    +0.000 HD
ENDBRANCH  14  15
ENDBRANCH  13  14
ENDBRANCH  12  13
ENDBRANCH  10  12
ENDBRANCH   1   8
BRANCH   1  22
ATOM     22  C   UNL     1       4.237   5.956  18.584  0.00  0.00    +0.000 C 
BRANCH  22  23
ATOM     23  C   UNL     1       3.211   7.103  18.726  0.00  0.00    +0.000 A 
ATOM     24  C   UNL     1       2.420   7.221  19.883  0.00  0.00    +0.000 A 
ATOM     25  C   UNL     1       1.471   8.235  20.015  0.00  0.00    +0.000 A 
ATOM     26  C   UNL     1       1.261   9.138  18.981  0.00  0.00    +0.000 A 
ATOM     27  C   UNL     1       2.023   9.048  17.828  0.00  0.00    +0.000 A 
ATOM     28  C   UNL     1       3.005   8.057  17.711  0.00  0.00    +0.000 A 
ENDBRANCH  22  23
BRANCH  22  29
ATOM     29  C   UNL     1       3.609   4.549  18.505  0.00  0.00    +0.000 A 
ATOM     30  C   UNL     1       4.221   3.437  19.095  0.00  0.00    +0.000 A 
ATOM     31  C   UNL     1       3.646   2.165  18.969  0.00  0.00    +0.000 A 
ATOM     32  C   UNL     1       2.422   1.994  18.324  0.00  0.00    +0.000 A 
ATOM     33  C   UNL     1       1.792   3.085  17.761  0.00  0.00    +0.000 A 
ATOM     34  C   UNL     1       2.409   4.326  17.813  0.00  0.00    +0.000 A 
ENDBRANCH  22  29
ENDBRANCH   1  22
TORSDOF 10
ENDMDL
MODEL 9
REMARK VINA RESULT:      -7.6      1.851      2.533
REMARK  Name = 
REMARK  11 active torsions:
REMARK  status: ('A' for Active; 'I' for Inactive)
REMARK    1  A    between atoms: C_1  and  O_2
REMARK    2  A    between atoms: O_2  and  C_3
REMARK    3  A    between atoms: N_5  and  C_6
REMARK    4  A    between atoms: C_6  and  C_7
REMARK    5  A    between atoms: C_6  and  C_19
REMARK    6  A    between atoms: N_9  and  C_10
REMARK    7  A    between atoms: C_10  and  C_11
REMARK    8  A    between atoms: C_11  and  C_12
REMARK    9  A    between atoms: C_12  and  C_13
REMARK   10  A    between atoms: C_19  and  C_20
REMARK   11  A    between atoms: C_19  and  C_26
REMARK                            x       y       z     vdW  Elec       q    Type
REMARK                         _______ _______ _______ _____ _____    ______ ____
ROOT
ATOM      1  C   UNL     1       3.779   5.540  17.982  0.00  0.00    +0.000 C 
ENDROOT
BRANCH   1   4
ATOM      2  C   UNL     1       3.305   3.190  17.234  0.00  0.00    +0.000 C 
ATOM      3  O   UNL     1       2.297   3.443  16.634  0.00  0.00    +0.000 OA
ATOM      4  N   UNL     1       4.062   4.097  17.933  0.00  0.00    +0.000 N 
ATOM      5  H   UNL     1       4.988   3.780  18.170  0.00  0.00    +0.000 HD
BRANCH   2   7
ATOM      6  C   UNL     1       3.700   1.325  18.616  0.00  0.00    +0.000 C 
ATOM      7  O   UNL     1       3.873   1.948  17.334  0.00  0.00    +0.000 OA
ENDBRANCH   2   7
ENDBRANCH   1   4
BRANCH   1   8
ATOM      8  C   UNL     1       4.978   6.319  17.379  0.00  0.00    +0.000 C 
ATOM      9  O   UNL     1       4.934   6.742  16.222  0.00  0.00    +0.000 OA
ATOM     10  N   UNL     1       6.148   6.405  18.103  0.00  0.00    +0.000 N 
ATOM     11  H   UNL     1       6.296   5.737  18.843  0.00  0.00    +0.000 HD
BRANCH  10  12
ATOM     12  C   UNL     1       7.322   7.031  17.535  0.00  0.00    +0.000 C 
BRANCH  12  13
ATOM     13  C   UNL     1       7.339   8.548  17.699  0.00  0.00    +0.000 C 
BRANCH  13  14
ATOM     14  C   UNL     1       8.774   9.077  17.778  0.00  0.00    +0.000 C 
BRANCH  14  15
ATOM     15  C   UNL     1       8.859  10.365  18.597  0.00  0.00    +0.000 C 
ATOM     16  C   UNL     1       9.845  11.369  17.962  0.00  0.00    +0.000 C 
ATOM     17  N   UNL     1       9.972  12.602  18.767  0.00  0.00    +0.000 NA
ATOM     18  C   UNL     1      10.341  12.220  20.144  0.00  0.00    +0.000 C 
ATOM     19  C   UNL     1       9.358  11.206  20.745  0.00  0.00    +0.000 C 
ATOM     20  O   UNL     1       9.277  10.032  19.931  0.00  0.00    +0.000 OA
ATOM     21  H   UNL     1       9.062  13.064  18.795  0.00  0.00    +0.000 HD
ENDBRANCH  14  15
ENDBRANCH  13  14
ENDBRANCH  12  13
ENDBRANCH  10  12
ENDBRANCH   1   8
BRANCH   1  22
ATOM     22  C   UNL     1       3.198   6.043  19.347  0.00  0.00    +0.000 C 
BRANCH  22  23
ATOM     23  C   UNL     1       2.351   7.332  19.253  0.00  0.00    +0.000 A 
ATOM     24  C   UNL     1       2.201   8.005  18.027  0.00  0.00    +0.000 A 
ATOM     25  C   UNL     1       1.462   9.184  17.930  0.00  0.00    +0.000 A 
ATOM     26  C   UNL     1       0.880   9.742  19.062  0.00  0.00    +0.000 A 
ATOM     27  C   UNL     1       1.011   9.103  20.284  0.00  0.00    +0.000 A 
ATOM     28  C   UNL     1       1.716   7.898  20.374  0.00  0.00    +0.000 A 
ENDBRANCH  22  23
BRANCH  22  29
ATOM     29  C   UNL     1       2.493   4.871  20.060  0.00  0.00    +0.000 A 
ATOM     30  C   UNL     1       3.083   4.204  21.140  0.00  0.00    +0.000 A 
ATOM     31  C   UNL     1       2.433   3.115  21.738  0.00  0.00    +0.000 A 
ATOM     32  C   UNL     1       1.161   2.726  21.324  0.00  0.00    +0.000 A 
ATOM     33  C   UNL     1       0.553   3.391  20.280  0.00  0.00    +0.000 A 
ATOM     34  C   UNL     1       1.237   4.410  19.635  0.00  0.00    +0.000 A 
ENDBRANCH  22  29
ENDBRANCH   1  22
TORSDOF 10
ENDMDL
