MODEL 1
REMARK VINA RESULT:      -8.6      0.000      0.000
REMARK  Name = 
REMARK  5 active torsions:
REMARK  status: ('A' for Active; 'I' for Inactive)
REMARK    1  A    between atoms: N_5  and  C_6
REMARK    2  A    between atoms: C_6  and  C_7
REMARK    3  A    between atoms: C_7  and  N_8
REMARK    4  A    between atoms: N_17  and  C_18
REMARK    5  A    between atoms: C_18  and  C_19
REMARK                            x       y       z     vdW  Elec       q    Type
REMARK                         _______ _______ _______ _____ _____    ______ ____
ROOT
ATOM      1 CL   UNL     1      -0.297   9.669  23.069  0.00  0.00    +0.000 Cl
ATOM      2  C   UNL     1       0.200   9.541  21.436  0.00  0.00    +0.000 A 
ATOM      3  N   UNL     1      -0.294  10.472  20.608  0.00  0.00    +0.000 NA
ATOM      4  C   UNL     1       0.097  10.446  19.315  0.00  0.00    +0.000 A 
ATOM      5  N   UNL     1      -0.443  11.360  18.405  0.00  0.00    +0.000 N 
ATOM      6  C   UNL     1       1.032   9.469  18.922  0.00  0.00    +0.000 A 
ATOM      7  C   UNL     1       1.710   9.125  17.718  0.00  0.00    +0.000 A 
ATOM      8  C   UNL     1       2.492   8.021  17.979  0.00  0.00    +0.000 A 
ATOM      9  N   UNL     1       2.302   7.661  19.294  0.00  0.00    +0.000 N 
ATOM     10  C   UNL     1       1.438   8.554  19.886  0.00  0.00    +0.000 A 
ATOM     11  N   UNL     1       1.037   8.530  21.166  0.00  0.00    +0.000 NA
ATOM     12  H   UNL     1       0.149  11.479  17.590  0.00  0.00    +0.000 HD
ENDROOT
BRANCH   5  13
ATOM     13  C   UNL     1      -0.940  12.596  19.010  0.00  0.00    +0.000 C 
BRANCH  13  14
ATOM     14  C   UNL     1      -0.100  13.793  18.520  0.00  0.00    +0.000 C 
BRANCH  14  15
ATOM     15  N   UNL     1       0.965  14.288  19.395  0.00  0.00    +0.000 NA
ATOM     16  C   UNL     1       1.165  15.745  19.392  0.00  0.00    +0.000 C 
ATOM     17  C   UNL     1       2.301  16.275  18.495  0.00  0.00    +0.000 C 
ATOM     18  O   UNL     1       3.511  15.532  18.666  0.00  0.00    +0.000 OA
ATOM     19  C   UNL     1       3.282  14.154  18.359  0.00  0.00    +0.000 C 
ATOM     20  C   UNL     1       2.235  13.552  19.306  0.00  0.00    +0.000 C 
ENDBRANCH  14  15
ENDBRANCH  13  14
ENDBRANCH   5  13
BRANCH   9  21
ATOM     21  C   UNL     1       2.807   6.433  19.903  0.00  0.00    +0.000 C 
BRANCH  21  22
ATOM     22  C   UNL     1       2.889   5.290  18.913  0.00  0.00    +0.000 A 
ATOM     23  C   UNL     1       1.725   4.533  18.683  0.00  0.00    +0.000 A 
ATOM     24  C   UNL     1       1.711   3.505  17.745  0.00  0.00    +0.000 A 
ATOM     25  C   UNL     1       2.851   3.242  16.993  0.00  0.00    +0.000 A 
ATOM     26  C   UNL     1       4.024   3.984  17.183  0.00  0.00    +0.000 A 
ATOM     27  C   UNL     1       5.144   3.740  16.371  0.00  0.00    +0.000 A 
ATOM     28  C   UNL     1       6.328   4.452  16.545  0.00  0.00    +0.000 A 
ATOM     29  C   UNL     1       6.425   5.377  17.572  0.00  0.00    +0.000 A 
ATOM     30  C   UNL     1       5.320   5.629  18.387  0.00  0.00    +0.000 A 
ATOM     31  C   UNL     1       4.075   4.988  18.184  0.00  0.00    +0.000 A 
ENDBRANCH  21  22
ENDBRANCH   9  21
TORSDOF 5
ENDMDL
MODEL 2
REMARK VINA RESULT:      -8.6      3.635      8.929
REMARK  Name = 
REMARK  5 active torsions:
REMARK  status: ('A' for Active; 'I' for Inactive)
REMARK    1  A    between atoms: N_5  and  C_6
REMARK    2  A    between atoms: C_6  and  C_7
REMARK    3  A    between atoms: C_7  and  N_8
REMARK    4  A    between atoms: N_17  and  C_18
REMARK    5  A    between atoms: C_18  and  C_19
REMARK                            x       y       z     vdW  Elec       q    Type
REMARK                         _______ _______ _______ _____ _____    ______ ____
ROOT
ATOM      1 CL   UNL     1       3.910   7.287  16.853  0.00  0.00    +0.000 Cl
ATOM      2  C   UNL     1       2.917   7.444  18.238  0.00  0.00    +0.000 A 
ATOM      3  N   UNL     1       2.845   6.360  19.022  0.00  0.00    +0.000 NA
ATOM      4  C   UNL     1       2.109   6.438  20.152  0.00  0.00    +0.000 A 
ATOM      5  N   UNL     1       1.957   5.311  20.964  0.00  0.00    +0.000 N 
ATOM      6  C   UNL     1       1.496   7.667  20.463  0.00  0.00    +0.000 A 
ATOM      7  C   UNL     1       0.698   8.174  21.526  0.00  0.00    +0.000 A 
ATOM      8  C   UNL     1       0.375   9.480  21.224  0.00  0.00    +0.000 A 
ATOM      9  N   UNL     1       0.930   9.785  20.001  0.00  0.00    +0.000 N 
ATOM     10  C   UNL     1       1.639   8.699  19.543  0.00  0.00    +0.000 A 
ATOM     11  N   UNL     1       2.330   8.638  18.393  0.00  0.00    +0.000 NA
ATOM     12  H   UNL     1       1.699   5.559  21.914  0.00  0.00    +0.000 HD
ENDROOT
BRANCH   5  13
ATOM     13  C   UNL     1       3.029   4.323  20.839  0.00  0.00    +0.000 C 
BRANCH  13  14
ATOM     14  C   UNL     1       2.442   2.900  20.932  0.00  0.00    +0.000 C 
BRANCH  14  15
ATOM     15  N   UNL     1       2.204   2.173  19.684  0.00  0.00    +0.000 NA
ATOM     16  C   UNL     1       3.378   1.994  18.817  0.00  0.00    +0.000 C 
ATOM     17  C   UNL     1       3.527   2.996  17.655  0.00  0.00    +0.000 C 
ATOM     18  O   UNL     1       2.304   3.166  16.933  0.00  0.00    +0.000 OA
ATOM     19  C   UNL     1       1.278   3.627  17.816  0.00  0.00    +0.000 C 
ATOM     20  C   UNL     1       1.017   2.604  18.930  0.00  0.00    +0.000 C 
ENDBRANCH  14  15
ENDBRANCH  13  14
ENDBRANCH   5  13
BRANCH   9  21
ATOM     21  C   UNL     1       0.661  11.008  19.247  0.00  0.00    +0.000 C 
BRANCH  21  22
ATOM     22  C   UNL     1      -0.789  11.435  19.340  0.00  0.00    +0.000 A 
ATOM     23  C   UNL     1      -1.152  12.308  20.382  0.00  0.00    +0.000 A 
ATOM     24  C   UNL     1      -2.454  12.789  20.495  0.00  0.00    +0.000 A 
ATOM     25  C   UNL     1      -3.405  12.435  19.545  0.00  0.00    +0.000 A 
ATOM     26  C   UNL     1      -3.077  11.580  18.484  0.00  0.00    +0.000 A 
ATOM     27  C   UNL     1      -4.037  11.284  17.503  0.00  0.00    +0.000 A 
ATOM     28  C   UNL     1      -3.745  10.428  16.445  0.00  0.00    +0.000 A 
ATOM     29  C   UNL     1      -2.506   9.811  16.386  0.00  0.00    +0.000 A 
ATOM     30  C   UNL     1      -1.542  10.096  17.355  0.00  0.00    +0.000 A 
ATOM     31  C   UNL     1      -1.774  11.027  18.394  0.00  0.00    +0.000 A 
ENDBRANCH  21  22
ENDBRANCH   9  21
TORSDOF 5
ENDMDL
MODEL 3
REMARK VINA RESULT:      -8.5      3.634      9.057
REMARK  Name = 
REMARK  5 active torsions:
REMARK  status: ('A' for Active; 'I' for Inactive)
REMARK    1  A    between atoms: N_5  and  C_6
REMARK    2  A    between atoms: C_6  and  C_7
REMARK    3  A    between atoms: C_7  and  N_8
REMARK    4  A    between atoms: N_17  and  C_18
REMARK    5  A    between atoms: C_18  and  C_19
REMARK                            x       y       z     vdW  Elec       q    Type
REMARK                         _______ _______ _______ _____ _____    ______ ____
ROOT
ATOM      1 CL   UNL     1       3.833   7.416  16.796  0.00  0.00    +0.000 Cl
ATOM      2  C   UNL     1       2.837   7.544  18.182  0.00  0.00    +0.000 A 
ATOM      3  N   UNL     1       2.814   6.465  18.977  0.00  0.00    +0.000 NA
ATOM      4  C   UNL     1       2.078   6.523  20.109  0.00  0.00    +0.000 A 
ATOM      5  N   UNL     1       1.976   5.399  20.932  0.00  0.00    +0.000 N 
ATOM      6  C   UNL     1       1.412   7.727  20.408  0.00  0.00    +0.000 A 
ATOM      7  C   UNL     1       0.593   8.209  21.468  0.00  0.00    +0.000 A 
ATOM      8  C   UNL     1       0.214   9.496  21.153  0.00  0.00    +0.000 A 
ATOM      9  N   UNL     1       0.752   9.813  19.926  0.00  0.00    +0.000 N 
ATOM     10  C   UNL     1       1.508   8.755  19.477  0.00  0.00    +0.000 A 
ATOM     11  N   UNL     1       2.198   8.712  18.327  0.00  0.00    +0.000 NA
ATOM     12  H   UNL     1       1.710   5.644  21.880  0.00  0.00    +0.000 HD
ENDROOT
BRANCH   5  13
ATOM     13  C   UNL     1       3.091   4.457  20.815  0.00  0.00    +0.000 C 
BRANCH  13  14
ATOM     14  C   UNL     1       2.569   3.012  20.936  0.00  0.00    +0.000 C 
BRANCH  14  15
ATOM     15  N   UNL     1       2.374   2.247  19.702  0.00  0.00    +0.000 NA
ATOM     16  C   UNL     1       3.531   2.195  18.796  0.00  0.00    +0.000 C 
ATOM     17  C   UNL     1       3.521   3.193  17.622  0.00  0.00    +0.000 C 
ATOM     18  O   UNL     1       2.263   3.211  16.942  0.00  0.00    +0.000 OA
ATOM     19  C   UNL     1       1.221   3.562  17.857  0.00  0.00    +0.000 C 
ATOM     20  C   UNL     1       1.120   2.529  18.988  0.00  0.00    +0.000 C 
ENDBRANCH  14  15
ENDBRANCH  13  14
ENDBRANCH   5  13
BRANCH   9  21
ATOM     21  C   UNL     1       0.428  11.015  19.160  0.00  0.00    +0.000 C 
BRANCH  21  22
ATOM     22  C   UNL     1      -0.967  10.965  18.572  0.00  0.00    +0.000 A 
ATOM     23  C   UNL     1      -1.188  10.116  17.471  0.00  0.00    +0.000 A 
ATOM     24  C   UNL     1      -2.457   9.976  16.917  0.00  0.00    +0.000 A 
ATOM     25  C   UNL     1      -3.533  10.654  17.478  0.00  0.00    +0.000 A 
ATOM     26  C   UNL     1      -3.355  11.495  18.583  0.00  0.00    +0.000 A 
ATOM     27  C   UNL     1      -4.467  12.122  19.170  0.00  0.00    +0.000 A 
ATOM     28  C   UNL     1      -4.320  12.975  20.261  0.00  0.00    +0.000 A 
ATOM     29  C   UNL     1      -3.052  13.256  20.742  0.00  0.00    +0.000 A 
ATOM     30  C   UNL     1      -1.938  12.640  20.168  0.00  0.00    +0.000 A 
ATOM     31  C   UNL     1      -2.057  11.703  19.116  0.00  0.00    +0.000 A 
ENDBRANCH  21  22
ENDBRANCH   9  21
TORSDOF 5
ENDMDL
MODEL 4
REMARK VINA RESULT:      -8.5      2.493      3.390
REMARK  Name = 
REMARK  5 active torsions:
REMARK  status: ('A' for Active; 'I' for Inactive)
REMARK    1  A    between atoms: N_5  and  C_6
REMARK    2  A    between atoms: C_6  and  C_7
REMARK    3  A    between atoms: C_7  and  N_8
REMARK    4  A    between atoms: N_17  and  C_18
REMARK    5  A    between atoms: C_18  and  C_19
REMARK                            x       y       z     vdW  Elec       q    Type
REMARK                         _______ _______ _______ _____ _____    ______ ____
ROOT
ATOM      1 CL   UNL     1       0.029   9.494  23.422  0.00  0.00    +0.000 Cl
ATOM      2  C   UNL     1       0.410   9.411  21.756  0.00  0.00    +0.000 A 
ATOM      3  N   UNL     1      -0.121  10.376  20.994  0.00  0.00    +0.000 NA
ATOM      4  C   UNL     1       0.179  10.386  19.676  0.00  0.00    +0.000 A 
ATOM      5  N   UNL     1      -0.404  11.338  18.836  0.00  0.00    +0.000 N 
ATOM      6  C   UNL     1       1.066   9.407  19.189  0.00  0.00    +0.000 A 
ATOM      7  C   UNL     1       1.653   9.091  17.931  0.00  0.00    +0.000 A 
ATOM      8  C   UNL     1       2.430   7.966  18.102  0.00  0.00    +0.000 A 
ATOM      9  N   UNL     1       2.324   7.567  19.415  0.00  0.00    +0.000 N 
ATOM     10  C   UNL     1       1.520   8.454  20.093  0.00  0.00    +0.000 A 
ATOM     11  N   UNL     1       1.207   8.395  21.397  0.00  0.00    +0.000 NA
ATOM     12  H   UNL     1       0.132  11.474  17.986  0.00  0.00    +0.000 HD
ENDROOT
BRANCH   5  13
ATOM     13  C   UNL     1      -0.836  12.562  19.512  0.00  0.00    +0.000 C 
BRANCH  13  14
ATOM     14  C   UNL     1      -2.373  12.582  19.627  0.00  0.00    +0.000 C 
BRANCH  14  15
ATOM     15  N   UNL     1      -2.973  13.435  20.655  0.00  0.00    +0.000 NA
ATOM     16  C   UNL     1      -2.467  13.236  22.022  0.00  0.00    +0.000 C 
ATOM     17  C   UNL     1      -3.317  12.337  22.940  0.00  0.00    +0.000 C 
ATOM     18  O   UNL     1      -4.705  12.677  22.888  0.00  0.00    +0.000 OA
ATOM     19  C   UNL     1      -5.186  12.556  21.547  0.00  0.00    +0.000 C 
ATOM     20  C   UNL     1      -4.441  13.520  20.614  0.00  0.00    +0.000 C 
ENDBRANCH  14  15
ENDBRANCH  13  14
ENDBRANCH   5  13
BRANCH   9  21
ATOM     21  C   UNL     1       2.847   6.311  19.949  0.00  0.00    +0.000 C 
BRANCH  21  22
ATOM     22  C   UNL     1       2.941   5.230  18.892  0.00  0.00    +0.000 A 
ATOM     23  C   UNL     1       1.775   4.499  18.593  0.00  0.00    +0.000 A 
ATOM     24  C   UNL     1       1.773   3.531  17.593  0.00  0.00    +0.000 A 
ATOM     25  C   UNL     1       2.926   3.304  16.849  0.00  0.00    +0.000 A 
ATOM     26  C   UNL     1       4.100   4.023  17.108  0.00  0.00    +0.000 A 
ATOM     27  C   UNL     1       5.235   3.820  16.305  0.00  0.00    +0.000 A 
ATOM     28  C   UNL     1       6.420   4.509  16.546  0.00  0.00    +0.000 A 
ATOM     29  C   UNL     1       6.503   5.369  17.629  0.00  0.00    +0.000 A 
ATOM     30  C   UNL     1       5.383   5.580  18.436  0.00  0.00    +0.000 A 
ATOM     31  C   UNL     1       4.139   4.964  18.169  0.00  0.00    +0.000 A 
ENDBRANCH  21  22
ENDBRANCH   9  21
TORSDOF 5
ENDMDL
MODEL 5
REMARK VINA RESULT:      -8.4      1.394      1.744
REMARK  Name = 
REMARK  5 active torsions:
REMARK  status: ('A' for Active; 'I' for Inactive)
REMARK    1  A    between atoms: N_5  and  C_6
REMARK    2  A    between atoms: C_6  and  C_7
REMARK    3  A    between atoms: C_7  and  N_8
REMARK    4  A    between atoms: N_17  and  C_18
REMARK    5  A    between atoms: C_18  and  C_19
REMARK                            x       y       z     vdW  Elec       q    Type
REMARK                         _______ _______ _______ _____ _____    ______ ____
ROOT
ATOM      1 CL   UNL     1      -0.610   9.464  22.882  0.00  0.00    +0.000 Cl
ATOM      2  C   UNL     1      -0.007   9.416  21.281  0.00  0.00    +0.000 A 
ATOM      3  N   UNL     1      -0.501  10.345  20.451  0.00  0.00    +0.000 NA
ATOM      4  C   UNL     1      -0.031  10.383  19.185  0.00  0.00    +0.000 A 
ATOM      5  N   UNL     1      -0.565  11.295  18.270  0.00  0.00    +0.000 N 
ATOM      6  C   UNL     1       0.980   9.473  18.823  0.00  0.00    +0.000 A 
ATOM      7  C   UNL     1       1.749   9.206  17.656  0.00  0.00    +0.000 A 
ATOM      8  C   UNL     1       2.576   8.138  17.932  0.00  0.00    +0.000 A 
ATOM      9  N   UNL     1       2.326   7.726  19.222  0.00  0.00    +0.000 N 
ATOM     10  C   UNL     1       1.378   8.550  19.784  0.00  0.00    +0.000 A 
ATOM     11  N   UNL     1       0.901   8.463  21.035  0.00  0.00    +0.000 NA
ATOM     12  H   UNL     1       0.067  11.473  17.498  0.00  0.00    +0.000 HD
ENDROOT
BRANCH   5  13
ATOM     13  C   UNL     1      -1.169  12.481  18.878  0.00  0.00    +0.000 C 
BRANCH  13  14
ATOM     14  C   UNL     1      -0.113  13.598  19.005  0.00  0.00    +0.000 C 
BRANCH  14  15
ATOM     15  N   UNL     1      -0.359  14.667  19.975  0.00  0.00    +0.000 NA
ATOM     16  C   UNL     1       0.831  15.408  20.420  0.00  0.00    +0.000 C 
ATOM     17  C   UNL     1       1.442  14.970  21.766  0.00  0.00    +0.000 C 
ATOM     18  O   UNL     1       0.449  14.820  22.783  0.00  0.00    +0.000 OA
ATOM     19  C   UNL     1      -0.521  13.850  22.376  0.00  0.00    +0.000 C 
ATOM     20  C   UNL     1      -1.237  14.301  21.096  0.00  0.00    +0.000 C 
ENDBRANCH  14  15
ENDBRANCH  13  14
ENDBRANCH   5  13
BRANCH   9  21
ATOM     21  C   UNL     1       2.862   6.509  19.826  0.00  0.00    +0.000 C 
BRANCH  21  22
ATOM     22  C   UNL     1       2.972   5.371  18.832  0.00  0.00    +0.000 A 
ATOM     23  C   UNL     1       1.806   4.640  18.537  0.00  0.00    +0.000 A 
ATOM     24  C   UNL     1       1.819   3.620  17.590  0.00  0.00    +0.000 A 
ATOM     25  C   UNL     1       2.990   3.339  16.895  0.00  0.00    +0.000 A 
ATOM     26  C   UNL     1       4.166   4.056  17.150  0.00  0.00    +0.000 A 
ATOM     27  C   UNL     1       5.320   3.796  16.393  0.00  0.00    +0.000 A 
ATOM     28  C   UNL     1       6.508   4.483  16.632  0.00  0.00    +0.000 A 
ATOM     29  C   UNL     1       6.571   5.398  17.670  0.00  0.00    +0.000 A 
ATOM     30  C   UNL     1       5.432   5.666  18.431  0.00  0.00    +0.000 A 
ATOM     31  C   UNL     1       4.187   5.052  18.160  0.00  0.00    +0.000 A 
ENDBRANCH  21  22
ENDBRANCH   9  21
TORSDOF 5
ENDMDL
MODEL 6
REMARK VINA RESULT:      -8.3      0.744      2.158
REMARK  Name = 
REMARK  5 active torsions:
REMARK  status: ('A' for Active; 'I' for Inactive)
REMARK    1  A    between atoms: N_5  and  C_6
REMARK    2  A    between atoms: C_6  and  C_7
REMARK    3  A    between atoms: C_7  and  N_8
REMARK    4  A    between atoms: N_17  and  C_18
REMARK    5  A    between atoms: C_18  and  C_19
REMARK                            x       y       z     vdW  Elec       q    Type
REMARK                         _______ _______ _______ _____ _____    ______ ____
ROOT
ATOM      1 CL   UNL     1      -0.192   9.936  23.073  0.00  0.00    +0.000 Cl
ATOM      2  C   UNL     1       0.195   9.731  21.419  0.00  0.00    +0.000 A 
ATOM      3  N   UNL     1      -0.401  10.586  20.577  0.00  0.00    +0.000 NA
ATOM      4  C   UNL     1      -0.101  10.499  19.262  0.00  0.00    +0.000 A 
ATOM      5  N   UNL     1      -0.747  11.331  18.343  0.00  0.00    +0.000 N 
ATOM      6  C   UNL     1       0.851   9.543  18.859  0.00  0.00    +0.000 A 
ATOM      7  C   UNL     1       1.459   9.156  17.631  0.00  0.00    +0.000 A 
ATOM      8  C   UNL     1       2.310   8.106  17.897  0.00  0.00    +0.000 A 
ATOM      9  N   UNL     1       2.230   7.819  19.241  0.00  0.00    +0.000 N 
ATOM     10  C   UNL     1       1.368   8.707  19.842  0.00  0.00    +0.000 A 
ATOM     11  N   UNL     1       1.059   8.744  21.148  0.00  0.00    +0.000 NA
ATOM     12  H   UNL     1      -0.221  11.427  17.482  0.00  0.00    +0.000 HD
ENDROOT
BRANCH   5  13
ATOM     13  C   UNL     1      -1.261  12.578  18.910  0.00  0.00    +0.000 C 
BRANCH  13  14
ATOM     14  C   UNL     1      -0.350  13.753  18.501  0.00  0.00    +0.000 C 
BRANCH  14  15
ATOM     15  N   UNL     1       0.762  14.100  19.389  0.00  0.00    +0.000 NA
ATOM     16  C   UNL     1       0.923  15.534  19.675  0.00  0.00    +0.000 C 
ATOM     17  C   UNL     1       1.978  16.282  18.836  0.00  0.00    +0.000 C 
ATOM     18  O   UNL     1       3.216  15.569  18.770  0.00  0.00    +0.000 OA
ATOM     19  C   UNL     1       3.002  14.275  18.200  0.00  0.00    +0.000 C 
ATOM     20  C   UNL     1       2.041  13.451  19.068  0.00  0.00    +0.000 C 
ENDBRANCH  14  15
ENDBRANCH  13  14
ENDBRANCH   5  13
BRANCH   9  21
ATOM     21  C   UNL     1       2.837   6.655  19.882  0.00  0.00    +0.000 C 
BRANCH  21  22
ATOM     22  C   UNL     1       3.233   5.588  18.882  0.00  0.00    +0.000 A 
ATOM     23  C   UNL     1       4.373   5.819  18.090  0.00  0.00    +0.000 A 
ATOM     24  C   UNL     1       4.829   4.858  17.193  0.00  0.00    +0.000 A 
ATOM     25  C   UNL     1       4.175   3.634  17.100  0.00  0.00    +0.000 A 
ATOM     26  C   UNL     1       3.046   3.362  17.883  0.00  0.00    +0.000 A 
ATOM     27  C   UNL     1       2.438   2.098  17.816  0.00  0.00    +0.000 A 
ATOM     28  C   UNL     1       1.307   1.802  18.573  0.00  0.00    +0.000 A 
ATOM     29  C   UNL     1       0.736   2.787  19.363  0.00  0.00    +0.000 A 
ATOM     30  C   UNL     1       1.330   4.049  19.438  0.00  0.00    +0.000 A 
ATOM     31  C   UNL     1       2.528   4.356  18.752  0.00  0.00    +0.000 A 
ENDBRANCH  21  22
ENDBRANCH   9  21
TORSDOF 5
ENDMDL
MODEL 7
REMARK VINA RESULT:      -8.3      0.956      1.221
REMARK  Name = 
REMARK  5 active torsions:
REMARK  status: ('A' for Active; 'I' for Inactive)
REMARK    1  A    between atoms: N_5  and  C_6
REMARK    2  A    between atoms: C_6  and  C_7
REMARK    3  A    between atoms: C_7  and  N_8
REMARK    4  A    between atoms: N_17  and  C_18
REMARK    5  A    between atoms: C_18  and  C_19
REMARK                            x       y       z     vdW  Elec       q    Type
REMARK                         _______ _______ _______ _____ _____    ______ ____
ROOT
ATOM      1 CL   UNL     1      -0.253   9.908  23.085  0.00  0.00    +0.000 Cl
ATOM      2  C   UNL     1       0.258   9.719  21.463  0.00  0.00    +0.000 A 
ATOM      3  N   UNL     1      -0.138  10.680  20.617  0.00  0.00    +0.000 NA
ATOM      4  C   UNL     1       0.270  10.606  19.331  0.00  0.00    +0.000 A 
ATOM      5  N   UNL     1      -0.173  11.553  18.404  0.00  0.00    +0.000 N 
ATOM      6  C   UNL     1       1.123   9.548  18.964  0.00  0.00    +0.000 A 
ATOM      7  C   UNL     1       1.788   9.132  17.776  0.00  0.00    +0.000 A 
ATOM      8  C   UNL     1       2.467   7.967  18.060  0.00  0.00    +0.000 A 
ATOM      9  N   UNL     1       2.224   7.640  19.376  0.00  0.00    +0.000 N 
ATOM     10  C   UNL     1       1.431   8.611  19.943  0.00  0.00    +0.000 A 
ATOM     11  N   UNL     1       1.008   8.637  21.217  0.00  0.00    +0.000 NA
ATOM     12  H   UNL     1       0.441  11.612  17.598  0.00  0.00    +0.000 HD
ENDROOT
BRANCH   5  13
ATOM     13  C   UNL     1      -0.571  12.835  18.988  0.00  0.00    +0.000 C 
BRANCH  13  14
ATOM     14  C   UNL     1       0.441  13.928  18.588  0.00  0.00    +0.000 C 
BRANCH  14  15
ATOM     15  N   UNL     1       0.462  15.163  19.374  0.00  0.00    +0.000 NA
ATOM     16  C   UNL     1      -0.700  16.048  19.202  0.00  0.00    +0.000 C 
ATOM     17  C   UNL     1      -0.522  17.224  18.222  0.00  0.00    +0.000 C 
ATOM     18  O   UNL     1       0.703  17.927  18.445  0.00  0.00    +0.000 OA
ATOM     19  C   UNL     1       1.810  17.033  18.302  0.00  0.00    +0.000 C 
ATOM     20  C   UNL     1       1.733  15.903  19.337  0.00  0.00    +0.000 C 
ENDBRANCH  14  15
ENDBRANCH  13  14
ENDBRANCH   5  13
BRANCH   9  21
ATOM     21  C   UNL     1       2.610   6.380  20.005  0.00  0.00    +0.000 C 
BRANCH  21  22
ATOM     22  C   UNL     1       2.754   5.254  19.002  0.00  0.00    +0.000 A 
ATOM     23  C   UNL     1       1.614   4.481  18.712  0.00  0.00    +0.000 A 
ATOM     24  C   UNL     1       1.658   3.469  17.758  0.00  0.00    +0.000 A 
ATOM     25  C   UNL     1       2.832   3.237  17.051  0.00  0.00    +0.000 A 
ATOM     26  C   UNL     1       3.982   3.997  17.301  0.00  0.00    +0.000 A 
ATOM     27  C   UNL     1       5.139   3.785  16.532  0.00  0.00    +0.000 A 
ATOM     28  C   UNL     1       6.302   4.515  16.766  0.00  0.00    +0.000 A 
ATOM     29  C   UNL     1       6.340   5.425  17.810  0.00  0.00    +0.000 A 
ATOM     30  C   UNL     1       5.197   5.644  18.582  0.00  0.00    +0.000 A 
ATOM     31  C   UNL     1       3.974   4.985  18.318  0.00  0.00    +0.000 A 
ENDBRANCH  21  22
ENDBRANCH   9  21
TORSDOF 5
ENDMDL
MODEL 8
REMARK VINA RESULT:      -8.3      2.957      4.367
REMARK  Name = 
REMARK  5 active torsions:
REMARK  status: ('A' for Active; 'I' for Inactive)
REMARK    1  A    between atoms: N_5  and  C_6
REMARK    2  A    between atoms: C_6  and  C_7
REMARK    3  A    between atoms: C_7  and  N_8
REMARK    4  A    between atoms: N_17  and  C_18
REMARK    5  A    between atoms: C_18  and  C_19
REMARK                            x       y       z     vdW  Elec       q    Type
REMARK                         _______ _______ _______ _____ _____    ______ ____
ROOT
ATOM      1 CL   UNL     1       0.008   9.590  23.476  0.00  0.00    +0.000 Cl
ATOM      2  C   UNL     1       0.198   9.511  21.777  0.00  0.00    +0.000 A 
ATOM      3  N   UNL     1      -0.622  10.299  21.068  0.00  0.00    +0.000 NA
ATOM      4  C   UNL     1      -0.491  10.310  19.723  0.00  0.00    +0.000 A 
ATOM      5  N   UNL     1      -1.367  11.068  18.943  0.00  0.00    +0.000 N 
ATOM      6  C   UNL     1       0.529   9.526  19.148  0.00  0.00    +0.000 A 
ATOM      7  C   UNL     1       1.018   9.285  17.833  0.00  0.00    +0.000 A 
ATOM      8  C   UNL     1       2.041   8.367  17.928  0.00  0.00    +0.000 A 
ATOM      9  N   UNL     1       2.183   8.019  19.252  0.00  0.00    +0.000 N 
ATOM     10  C   UNL     1       1.288   8.741  20.007  0.00  0.00    +0.000 A 
ATOM     11  N   UNL     1       1.153   8.679  21.341  0.00  0.00    +0.000 NA
ATOM     12  H   UNL     1      -0.980  11.277  18.029  0.00  0.00    +0.000 HD
ENDROOT
BRANCH   5  13
ATOM     13  C   UNL     1      -1.978  12.200  19.642  0.00  0.00    +0.000 C 
BRANCH  13  14
ATOM     14  C   UNL     1      -3.475  12.291  19.282  0.00  0.00    +0.000 C 
BRANCH  14  15
ATOM     15  N   UNL     1      -4.318  13.186  20.076  0.00  0.00    +0.000 NA
ATOM     16  C   UNL     1      -3.812  13.514  21.418  0.00  0.00    +0.000 C 
ATOM     17  C   UNL     1      -4.398  12.695  22.585  0.00  0.00    +0.000 C 
ATOM     18  O   UNL     1      -5.824  12.607  22.517  0.00  0.00    +0.000 OA
ATOM     19  C   UNL     1      -6.215  12.000  21.282  0.00  0.00    +0.000 C 
ATOM     20  C   UNL     1      -5.748  12.845  20.089  0.00  0.00    +0.000 C 
ENDBRANCH  14  15
ENDBRANCH  13  14
ENDBRANCH   5  13
BRANCH   9  21
ATOM     21  C   UNL     1       3.033   6.936  19.742  0.00  0.00    +0.000 C 
BRANCH  21  22
ATOM     22  C   UNL     1       3.240   5.852  18.706  0.00  0.00    +0.000 A 
ATOM     23  C   UNL     1       4.233   6.056  17.729  0.00  0.00    +0.000 A 
ATOM     24  C   UNL     1       4.518   5.078  16.781  0.00  0.00    +0.000 A 
ATOM     25  C   UNL     1       3.842   3.863  16.817  0.00  0.00    +0.000 A 
ATOM     26  C   UNL     1       2.859   3.618  17.785  0.00  0.00    +0.000 A 
ATOM     27  C   UNL     1       2.231   2.362  17.839  0.00  0.00    +0.000 A 
ATOM     28  C   UNL     1       1.241   2.093  18.781  0.00  0.00    +0.000 A 
ATOM     29  C   UNL     1       0.825   3.095  19.641  0.00  0.00    +0.000 A 
ATOM     30  C   UNL     1       1.440   4.348  19.597  0.00  0.00    +0.000 A 
ATOM     31  C   UNL     1       2.508   4.630  18.714  0.00  0.00    +0.000 A 
ENDBRANCH  21  22
ENDBRANCH   9  21
TORSDOF 5
ENDMDL
MODEL 9
REMARK VINA RESULT:      -8.2      0.681      1.104
REMARK  Name = 
REMARK  5 active torsions:
REMARK  status: ('A' for Active; 'I' for Inactive)
REMARK    1  A    between atoms: N_5  and  C_6
REMARK    2  A    between atoms: C_6  and  C_7
REMARK    3  A    between atoms: C_7  and  N_8
REMARK    4  A    between atoms: N_17  and  C_18
REMARK    5  A    between atoms: C_18  and  C_19
REMARK                            x       y       z     vdW  Elec       q    Type
REMARK                         _______ _______ _______ _____ _____    ______ ____
ROOT
ATOM      1 CL   UNL     1      -0.069   9.466  23.469  0.00  0.00    +0.000 Cl
ATOM      2  C   UNL     1       0.254   9.413  21.789  0.00  0.00    +0.000 A 
ATOM      3  N   UNL     1      -0.400  10.317  21.047  0.00  0.00    +0.000 NA
ATOM      4  C   UNL     1      -0.154  10.351  19.719  0.00  0.00    +0.000 A 
ATOM      5  N   UNL     1      -0.861  11.236  18.901  0.00  0.00    +0.000 N 
ATOM      6  C   UNL     1       0.807   9.462  19.199  0.00  0.00    +0.000 A 
ATOM      7  C   UNL     1       1.373   9.199  17.919  0.00  0.00    +0.000 A 
ATOM      8  C   UNL     1       2.264   8.157  18.060  0.00  0.00    +0.000 A 
ATOM      9  N   UNL     1       2.248   7.756  19.377  0.00  0.00    +0.000 N 
ATOM     10  C   UNL     1       1.387   8.563  20.085  0.00  0.00    +0.000 A 
ATOM     11  N   UNL     1       1.133   8.480  21.400  0.00  0.00    +0.000 NA
ATOM     12  H   UNL     1      -0.374  11.420  18.030  0.00  0.00    +0.000 HD
ENDROOT
BRANCH   5  13
ATOM     13  C   UNL     1      -1.385  12.414  19.592  0.00  0.00    +0.000 C 
BRANCH  13  14
ATOM     14  C   UNL     1      -0.239  13.406  19.878  0.00  0.00    +0.000 C 
BRANCH  14  15
ATOM     15  N   UNL     1       0.323  14.149  18.748  0.00  0.00    +0.000 NA
ATOM     16  C   UNL     1       1.738  13.879  18.450  0.00  0.00    +0.000 C 
ATOM     17  C   UNL     1       2.758  14.888  19.014  0.00  0.00    +0.000 C 
ATOM     18  O   UNL     1       2.369  16.241  18.763  0.00  0.00    +0.000 OA
ATOM     19  C   UNL     1       1.090  16.496  19.351  0.00  0.00    +0.000 C 
ATOM     20  C   UNL     1       0.018  15.587  18.736  0.00  0.00    +0.000 C 
ENDBRANCH  14  15
ENDBRANCH  13  14
ENDBRANCH   5  13
BRANCH   9  21
ATOM     21  C   UNL     1       2.913   6.561  19.892  0.00  0.00    +0.000 C 
BRANCH  21  22
ATOM     22  C   UNL     1       2.943   5.436  18.878  0.00  0.00    +0.000 A 
ATOM     23  C   UNL     1       1.815   4.600  18.789  0.00  0.00    +0.000 A 
ATOM     24  C   UNL     1       1.748   3.583  17.841  0.00  0.00    +0.000 A 
ATOM     25  C   UNL     1       2.793   3.410  16.941  0.00  0.00    +0.000 A 
ATOM     26  C   UNL     1       3.926   4.232  16.988  0.00  0.00    +0.000 A 
ATOM     27  C   UNL     1       4.942   4.078  16.031  0.00  0.00    +0.000 A 
ATOM     28  C   UNL     1       6.086   4.871  16.060  0.00  0.00    +0.000 A 
ATOM     29  C   UNL     1       6.254   5.791  17.083  0.00  0.00    +0.000 A 
ATOM     30  C   UNL     1       5.252   5.955  18.041  0.00  0.00    +0.000 A 
ATOM     31  C   UNL     1       4.040   5.228  17.992  0.00  0.00    +0.000 A 
ENDBRANCH  21  22
ENDBRANCH   9  21
TORSDOF 5
ENDMDL
