MODEL 1
REMARK VINA RESULT:      -6.7      0.000      0.000
REMARK  Name = 
REMARK  6 active torsions:
REMARK  status: ('A' for Active; 'I' for Inactive)
REMARK    1  A    between atoms: C_2  and  C_3
REMARK    2  A    between atoms: C_3  and  N_4
REMARK    3  A    between atoms: N_4  and  C_5
REMARK    4  A    between atoms: C_8  and  S_9
REMARK    5  A    between atoms: S_9  and  N_12
REMARK    6  A    between atoms: N_12  and  N_13
REMARK                            x       y       z     vdW  Elec       q    Type
REMARK                         _______ _______ _______ _____ _____    ______ ____
ROOT
ATOM      1  C   UNL     1       2.663   4.217  18.383  0.00  0.00    +0.000 A 
ATOM      2  C   UNL     1       3.679   3.364  17.919  0.00  0.00    +0.000 A 
ATOM      3  C   UNL     1       4.868   3.863  17.371  0.00  0.00    +0.000 A 
ATOM      4  C   UNL     1       5.049   5.237  17.251  0.00  0.00    +0.000 A 
ATOM      5  C   UNL     1       4.075   6.112  17.740  0.00  0.00    +0.000 A 
ATOM      6  C   UNL     1       2.890   5.597  18.299  0.00  0.00    +0.000 A 
ENDROOT
BRANCH   4   7
ATOM      7  S   UNL     1       6.585   5.855  16.567  0.00  0.00    +0.000 S 
ATOM      8  O   UNL     1       6.688   7.237  16.986  0.00  0.00    +0.000 OA
ATOM      9  O   UNL     1       7.593   4.872  16.898  0.00  0.00    +0.000 OA
BRANCH   7  10
ATOM     10  N   UNL     1       6.288   5.800  14.956  0.00  0.00    +0.000 N 
ATOM     11  H   UNL     1       5.521   6.270  14.501  0.00  0.00    +0.000 HD
BRANCH  10  12
ATOM     12  N   UNL     1       6.963   4.953  14.169  0.00  0.00    +0.000 N 
ATOM     13  O   UNL     1       6.506   3.829  13.968  0.00  0.00    +0.000 OA
ATOM     14  O   UNL     1       7.994   5.453  13.736  0.00  0.00    +0.000 OA
ENDBRANCH  10  12
ENDBRANCH   7  10
ENDBRANCH   4   7
BRANCH   1  15
ATOM     15  N   UNL     1       1.461   3.654  18.801  0.00  0.00    +0.000 N 
ATOM     16  H   UNL     1       1.283   2.721  18.431  0.00  0.00    +0.000 HD
BRANCH  15  17
ATOM     17  C   UNL     1       0.927   3.854  20.149  0.00  0.00    +0.000 C 
BRANCH  17  19
ATOM     18  N   UNL     1       2.493   2.739  21.979  0.00  0.00    +0.000 NA
ATOM     19  C   UNL     1       1.800   3.220  21.179  0.00  0.00    +0.000 C 
ENDBRANCH  17  19
ENDBRANCH  15  17
ENDBRANCH   1  15
TORSDOF 6
ENDMDL
MODEL 2
REMARK VINA RESULT:      -6.7      1.233      1.447
REMARK  Name = 
REMARK  6 active torsions:
REMARK  status: ('A' for Active; 'I' for Inactive)
REMARK    1  A    between atoms: C_2  and  C_3
REMARK    2  A    between atoms: C_3  and  N_4
REMARK    3  A    between atoms: N_4  and  C_5
REMARK    4  A    between atoms: C_8  and  S_9
REMARK    5  A    between atoms: S_9  and  N_12
REMARK    6  A    between atoms: N_12  and  N_13
REMARK                            x       y       z     vdW  Elec       q    Type
REMARK                         _______ _______ _______ _____ _____    ______ ____
ROOT
ATOM      1  C   UNL     1       3.416   5.732  19.460  0.00  0.00    +0.000 A 
ATOM      2  C   UNL     1       4.530   4.902  19.675  0.00  0.00    +0.000 A 
ATOM      3  C   UNL     1       5.621   4.888  18.796  0.00  0.00    +0.000 A 
ATOM      4  C   UNL     1       5.601   5.690  17.660  0.00  0.00    +0.000 A 
ATOM      5  C   UNL     1       4.527   6.557  17.438  0.00  0.00    +0.000 A 
ATOM      6  C   UNL     1       3.442   6.570  18.337  0.00  0.00    +0.000 A 
ENDROOT
BRANCH   4   7
ATOM      7  S   UNL     1       7.014   5.673  16.559  0.00  0.00    +0.000 S 
ATOM      8  O   UNL     1       7.596   6.996  16.626  0.00  0.00    +0.000 OA
ATOM      9  O   UNL     1       7.765   4.482  16.892  0.00  0.00    +0.000 OA
BRANCH   7  10
ATOM     10  N   UNL     1       6.304   5.468  15.095  0.00  0.00    +0.000 N 
ATOM     11  H   UNL     1       5.315   5.567  14.923  0.00  0.00    +0.000 HD
BRANCH  10  12
ATOM     12  N   UNL     1       6.998   4.965  14.067  0.00  0.00    +0.000 N 
ATOM     13  O   UNL     1       8.005   5.554  13.678  0.00  0.00    +0.000 OA
ATOM     14  O   UNL     1       6.501   3.928  13.645  0.00  0.00    +0.000 OA
ENDBRANCH  10  12
ENDBRANCH   7  10
ENDBRANCH   4   7
BRANCH   1  15
ATOM     15  N   UNL     1       2.319   5.606  20.307  0.00  0.00    +0.000 N 
ATOM     16  H   UNL     1       1.874   6.489  20.553  0.00  0.00    +0.000 HD
BRANCH  15  17
ATOM     17  C   UNL     1       1.376   4.490  20.209  0.00  0.00    +0.000 C 
BRANCH  17  19
ATOM     18  N   UNL     1       1.868   2.648  22.055  0.00  0.00    +0.000 NA
ATOM     19  C   UNL     1       1.645   3.459  21.253  0.00  0.00    +0.000 C 
ENDBRANCH  17  19
ENDBRANCH  15  17
ENDBRANCH   1  15
TORSDOF 6
ENDMDL
MODEL 3
REMARK VINA RESULT:      -6.7      0.303      1.414
REMARK  Name = 
REMARK  6 active torsions:
REMARK  status: ('A' for Active; 'I' for Inactive)
REMARK    1  A    between atoms: C_2  and  C_3
REMARK    2  A    between atoms: C_3  and  N_4
REMARK    3  A    between atoms: N_4  and  C_5
REMARK    4  A    between atoms: C_8  and  S_9
REMARK    5  A    between atoms: S_9  and  N_12
REMARK    6  A    between atoms: N_12  and  N_13
REMARK                            x       y       z     vdW  Elec       q    Type
REMARK                         _______ _______ _______ _____ _____    ______ ____
ROOT
ATOM      1  C   UNL     1       2.426   4.370  18.331  0.00  0.00    +0.000 A 
ATOM      2  C   UNL     1       2.843   5.712  18.355  0.00  0.00    +0.000 A 
ATOM      3  C   UNL     1       4.055   6.118  17.782  0.00  0.00    +0.000 A 
ATOM      4  C   UNL     1       4.892   5.174  17.195  0.00  0.00    +0.000 A 
ATOM      5  C   UNL     1       4.487   3.838  17.119  0.00  0.00    +0.000 A 
ATOM      6  C   UNL     1       3.260   3.445  17.689  0.00  0.00    +0.000 A 
ENDROOT
BRANCH   4   7
ATOM      7  S   UNL     1       6.428   5.716  16.450  0.00  0.00    +0.000 S 
ATOM      8  O   UNL     1       6.561   7.120  16.774  0.00  0.00    +0.000 OA
ATOM      9  O   UNL     1       7.423   4.738  16.831  0.00  0.00    +0.000 OA
BRANCH   7  10
ATOM     10  N   UNL     1       6.104   5.559  14.850  0.00  0.00    +0.000 N 
ATOM     11  H   UNL     1       5.216   5.776  14.425  0.00  0.00    +0.000 HD
BRANCH  10  12
ATOM     12  N   UNL     1       6.972   4.943  14.038  0.00  0.00    +0.000 N 
ATOM     13  O   UNL     1       8.026   5.506  13.751  0.00  0.00    +0.000 OA
ATOM     14  O   UNL     1       6.565   3.843  13.685  0.00  0.00    +0.000 OA
ENDBRANCH  10  12
ENDBRANCH   7  10
ENDBRANCH   4   7
BRANCH   1  15
ATOM     15  N   UNL     1       1.271   4.020  19.025  0.00  0.00    +0.000 N 
ATOM     16  H   UNL     1       0.856   3.137  18.731  0.00  0.00    +0.000 HD
BRANCH  15  17
ATOM     17  C   UNL     1       1.098   4.295  20.452  0.00  0.00    +0.000 C 
BRANCH  17  19
ATOM     18  N   UNL     1       2.511   2.607  21.935  0.00  0.00    +0.000 NA
ATOM     19  C   UNL     1       1.884   3.342  21.288  0.00  0.00    +0.000 C 
ENDBRANCH  17  19
ENDBRANCH  15  17
ENDBRANCH   1  15
TORSDOF 6
ENDMDL
MODEL 4
REMARK VINA RESULT:      -6.6      0.829      1.510
REMARK  Name = 
REMARK  6 active torsions:
REMARK  status: ('A' for Active; 'I' for Inactive)
REMARK    1  A    between atoms: C_2  and  C_3
REMARK    2  A    between atoms: C_3  and  N_4
REMARK    3  A    between atoms: N_4  and  C_5
REMARK    4  A    between atoms: C_8  and  S_9
REMARK    5  A    between atoms: S_9  and  N_12
REMARK    6  A    between atoms: N_12  and  N_13
REMARK                            x       y       z     vdW  Elec       q    Type
REMARK                         _______ _______ _______ _____ _____    ______ ____
ROOT
ATOM      1  C   UNL     1       2.170   3.903  18.216  0.00  0.00    +0.000 A 
ATOM      2  C   UNL     1       2.300   5.303  18.242  0.00  0.00    +0.000 A 
ATOM      3  C   UNL     1       3.400   5.952  17.667  0.00  0.00    +0.000 A 
ATOM      4  C   UNL     1       4.413   5.202  17.078  0.00  0.00    +0.000 A 
ATOM      5  C   UNL     1       4.294   3.811  17.000  0.00  0.00    +0.000 A 
ATOM      6  C   UNL     1       3.176   3.172  17.571  0.00  0.00    +0.000 A 
ENDROOT
BRANCH   4   7
ATOM      7  S   UNL     1       5.801   6.052  16.330  0.00  0.00    +0.000 S 
ATOM      8  O   UNL     1       5.262   6.815  15.225  0.00  0.00    +0.000 OA
ATOM      9  O   UNL     1       6.521   6.675  17.419  0.00  0.00    +0.000 OA
BRANCH   7  10
ATOM     10  N   UNL     1       6.689   4.805  15.743  0.00  0.00    +0.000 N 
ATOM     11  H   UNL     1       7.162   4.123  16.316  0.00  0.00    +0.000 HD
BRANCH  10  12
ATOM     12  N   UNL     1       6.989   4.738  14.440  0.00  0.00    +0.000 N 
ATOM     13  O   UNL     1       6.374   3.950  13.724  0.00  0.00    +0.000 OA
ATOM     14  O   UNL     1       7.880   5.521  14.136  0.00  0.00    +0.000 OA
ENDBRANCH  10  12
ENDBRANCH   7  10
ENDBRANCH   4   7
BRANCH   1  15
ATOM     15  N   UNL     1       1.114   3.320  18.911  0.00  0.00    +0.000 N 
ATOM     16  H   UNL     1       0.980   2.329  18.719  0.00  0.00    +0.000 HD
BRANCH  15  17
ATOM     17  C   UNL     1       0.778   3.693  20.287  0.00  0.00    +0.000 C 
BRANCH  17  19
ATOM     18  N   UNL     1       2.488   2.636  22.019  0.00  0.00    +0.000 NA
ATOM     19  C   UNL     1       1.744   3.108  21.260  0.00  0.00    +0.000 C 
ENDBRANCH  17  19
ENDBRANCH  15  17
ENDBRANCH   1  15
TORSDOF 6
ENDMDL
MODEL 5
REMARK VINA RESULT:      -6.5      0.986      1.142
REMARK  Name = 
REMARK  6 active torsions:
REMARK  status: ('A' for Active; 'I' for Inactive)
REMARK    1  A    between atoms: C_2  and  C_3
REMARK    2  A    between atoms: C_3  and  N_4
REMARK    3  A    between atoms: N_4  and  C_5
REMARK    4  A    between atoms: C_8  and  S_9
REMARK    5  A    between atoms: S_9  and  N_12
REMARK    6  A    between atoms: N_12  and  N_13
REMARK                            x       y       z     vdW  Elec       q    Type
REMARK                         _______ _______ _______ _____ _____    ______ ____
ROOT
ATOM      1  C   UNL     1       2.185   3.914  18.260  0.00  0.00    +0.000 A 
ATOM      2  C   UNL     1       3.164   3.260  17.490  0.00  0.00    +0.000 A 
ATOM      3  C   UNL     1       4.234   3.955  16.912  0.00  0.00    +0.000 A 
ATOM      4  C   UNL     1       4.327   5.335  17.071  0.00  0.00    +0.000 A 
ATOM      5  C   UNL     1       3.394   6.008  17.864  0.00  0.00    +0.000 A 
ATOM      6  C   UNL     1       2.330   5.295  18.451  0.00  0.00    +0.000 A 
ENDROOT
BRANCH   4   7
ATOM      7  S   UNL     1       5.714   6.202  16.341  0.00  0.00    +0.000 S 
ATOM      8  O   UNL     1       5.199   6.874  15.168  0.00  0.00    +0.000 OA
ATOM      9  O   UNL     1       6.350   6.920  17.425  0.00  0.00    +0.000 OA
BRANCH   7  10
ATOM     10  N   UNL     1       6.683   4.965  15.874  0.00  0.00    +0.000 N 
ATOM     11  H   UNL     1       7.201   4.377  16.509  0.00  0.00    +0.000 HD
BRANCH  10  12
ATOM     12  N   UNL     1       6.985   4.788  14.582  0.00  0.00    +0.000 N 
ATOM     13  O   UNL     1       6.322   3.996  13.915  0.00  0.00    +0.000 OA
ATOM     14  O   UNL     1       7.929   5.486  14.234  0.00  0.00    +0.000 OA
ENDBRANCH  10  12
ENDBRANCH   7  10
ENDBRANCH   4   7
BRANCH   1  15
ATOM     15  N   UNL     1       1.087   3.182  18.702  0.00  0.00    +0.000 N 
ATOM     16  H   UNL     1       0.387   3.000  17.984  0.00  0.00    +0.000 HD
BRANCH  15  17
ATOM     17  C   UNL     1       1.207   2.101  19.681  0.00  0.00    +0.000 C 
BRANCH  17  19
ATOM     18  N   UNL     1       2.050   3.025  22.021  0.00  0.00    +0.000 NA
ATOM     19  C   UNL     1       1.677   2.612  21.001  0.00  0.00    +0.000 C 
ENDBRANCH  17  19
ENDBRANCH  15  17
ENDBRANCH   1  15
TORSDOF 6
ENDMDL
MODEL 6
REMARK VINA RESULT:      -6.5      0.899      1.169
REMARK  Name = 
REMARK  6 active torsions:
REMARK  status: ('A' for Active; 'I' for Inactive)
REMARK    1  A    between atoms: C_2  and  C_3
REMARK    2  A    between atoms: C_3  and  N_4
REMARK    3  A    between atoms: N_4  and  C_5
REMARK    4  A    between atoms: C_8  and  S_9
REMARK    5  A    between atoms: S_9  and  N_12
REMARK    6  A    between atoms: N_12  and  N_13
REMARK                            x       y       z     vdW  Elec       q    Type
REMARK                         _______ _______ _______ _____ _____    ______ ____
ROOT
ATOM      1  C   UNL     1       2.883   4.368  18.564  0.00  0.00    +0.000 A 
ATOM      2  C   UNL     1       4.060   3.610  18.695  0.00  0.00    +0.000 A 
ATOM      3  C   UNL     1       5.308   4.111  18.302  0.00  0.00    +0.000 A 
ATOM      4  C   UNL     1       5.396   5.380  17.739  0.00  0.00    +0.000 A 
ATOM      5  C   UNL     1       4.251   6.174  17.632  0.00  0.00    +0.000 A 
ATOM      6  C   UNL     1       3.004   5.663  18.043  0.00  0.00    +0.000 A 
ENDROOT
BRANCH   4   7
ATOM      7  S   UNL     1       7.004   6.010  17.262  0.00  0.00    +0.000 S 
ATOM      8  O   UNL     1       6.759   7.239  16.539  0.00  0.00    +0.000 OA
ATOM      9  O   UNL     1       7.819   5.966  18.456  0.00  0.00    +0.000 OA
BRANCH   7  10
ATOM     10  N   UNL     1       7.523   4.861  16.214  0.00  0.00    +0.000 N 
ATOM     11  H   UNL     1       8.234   4.178  16.424  0.00  0.00    +0.000 HD
BRANCH  10  12
ATOM     12  N   UNL     1       7.149   4.894  14.929  0.00  0.00    +0.000 N 
ATOM     13  O   UNL     1       7.841   5.508  14.119  0.00  0.00    +0.000 OA
ATOM     14  O   UNL     1       6.114   4.267  14.739  0.00  0.00    +0.000 OA
ENDBRANCH  10  12
ENDBRANCH   7  10
ENDBRANCH   4   7
BRANCH   1  15
ATOM     15  N   UNL     1       1.666   3.763  18.861  0.00  0.00    +0.000 N 
ATOM     16  H   UNL     1       1.595   2.791  18.562  0.00  0.00    +0.000 HD
BRANCH  15  17
ATOM     17  C   UNL     1       0.929   4.044  20.094  0.00  0.00    +0.000 C 
BRANCH  17  19
ATOM     18  N   UNL     1       1.739   2.466  22.068  0.00  0.00    +0.000 NA
ATOM     19  C   UNL     1       1.375   3.159  21.208  0.00  0.00    +0.000 C 
ENDBRANCH  17  19
ENDBRANCH  15  17
ENDBRANCH   1  15
TORSDOF 6
ENDMDL
MODEL 7
REMARK VINA RESULT:      -6.5      1.015      1.657
REMARK  Name = 
REMARK  6 active torsions:
REMARK  status: ('A' for Active; 'I' for Inactive)
REMARK    1  A    between atoms: C_2  and  C_3
REMARK    2  A    between atoms: C_3  and  N_4
REMARK    3  A    between atoms: N_4  and  C_5
REMARK    4  A    between atoms: C_8  and  S_9
REMARK    5  A    between atoms: S_9  and  N_12
REMARK    6  A    between atoms: N_12  and  N_13
REMARK                            x       y       z     vdW  Elec       q    Type
REMARK                         _______ _______ _______ _____ _____    ______ ____
ROOT
ATOM      1  C   UNL     1       2.910   4.495  18.620  0.00  0.00    +0.000 A 
ATOM      2  C   UNL     1       3.078   5.724  17.957  0.00  0.00    +0.000 A 
ATOM      3  C   UNL     1       4.343   6.189  17.577  0.00  0.00    +0.000 A 
ATOM      4  C   UNL     1       5.475   5.440  17.883  0.00  0.00    +0.000 A 
ATOM      5  C   UNL     1       5.338   4.195  18.505  0.00  0.00    +0.000 A 
ATOM      6  C   UNL     1       4.059   3.733  18.871  0.00  0.00    +0.000 A 
ENDROOT
BRANCH   4   7
ATOM      7  S   UNL     1       7.082   6.043  17.370  0.00  0.00    +0.000 S 
ATOM      8  O   UNL     1       6.836   7.227  16.576  0.00  0.00    +0.000 OA
ATOM      9  O   UNL     1       7.897   6.072  18.565  0.00  0.00    +0.000 OA
BRANCH   7  10
ATOM     10  N   UNL     1       7.604   4.835  16.393  0.00  0.00    +0.000 N 
ATOM     11  H   UNL     1       8.348   4.195  16.625  0.00  0.00    +0.000 HD
BRANCH  10  12
ATOM     12  N   UNL     1       7.179   4.754  15.126  0.00  0.00    +0.000 N 
ATOM     13  O   UNL     1       7.730   5.438  14.265  0.00  0.00    +0.000 OA
ATOM     14  O   UNL     1       6.253   3.962  15.004  0.00  0.00    +0.000 OA
ENDBRANCH  10  12
ENDBRANCH   7  10
ENDBRANCH   4   7
BRANCH   1  15
ATOM     15  N   UNL     1       1.640   4.153  19.074  0.00  0.00    +0.000 N 
ATOM     16  H   UNL     1       1.270   3.289  18.680  0.00  0.00    +0.000 HD
BRANCH  15  17
ATOM     17  C   UNL     1       1.208   4.391  20.453  0.00  0.00    +0.000 C 
BRANCH  17  19
ATOM     18  N   UNL     1       2.328   2.679  22.144  0.00  0.00    +0.000 NA
ATOM     19  C   UNL     1       1.842   3.424  21.395  0.00  0.00    +0.000 C 
ENDBRANCH  17  19
ENDBRANCH  15  17
ENDBRANCH   1  15
TORSDOF 6
ENDMDL
MODEL 8
REMARK VINA RESULT:      -6.4      1.455      2.629
REMARK  Name = 
REMARK  6 active torsions:
REMARK  status: ('A' for Active; 'I' for Inactive)
REMARK    1  A    between atoms: C_2  and  C_3
REMARK    2  A    between atoms: C_3  and  N_4
REMARK    3  A    between atoms: N_4  and  C_5
REMARK    4  A    between atoms: C_8  and  S_9
REMARK    5  A    between atoms: S_9  and  N_12
REMARK    6  A    between atoms: N_12  and  N_13
REMARK                            x       y       z     vdW  Elec       q    Type
REMARK                         _______ _______ _______ _____ _____    ______ ____
ROOT
ATOM      1  C   UNL     1       2.348   4.060  18.177  0.00  0.00    +0.000 A 
ATOM      2  C   UNL     1       2.787   5.394  18.109  0.00  0.00    +0.000 A 
ATOM      3  C   UNL     1       3.947   5.754  17.410  0.00  0.00    +0.000 A 
ATOM      4  C   UNL     1       4.710   4.771  16.787  0.00  0.00    +0.000 A 
ATOM      5  C   UNL     1       4.278   3.441  16.802  0.00  0.00    +0.000 A 
ATOM      6  C   UNL     1       3.103   3.095  17.498  0.00  0.00    +0.000 A 
ENDROOT
BRANCH   4   7
ATOM      7  S   UNL     1       6.178   5.254  15.881  0.00  0.00    +0.000 S 
ATOM      8  O   UNL     1       6.710   4.042  15.297  0.00  0.00    +0.000 OA
ATOM      9  O   UNL     1       5.794   6.394  15.078  0.00  0.00    +0.000 OA
BRANCH   7  10
ATOM     10  N   UNL     1       7.172   5.755  17.085  0.00  0.00    +0.000 N 
ATOM     11  H   UNL     1       7.636   6.650  17.105  0.00  0.00    +0.000 HD
BRANCH  10  12
ATOM     12  N   UNL     1       7.572   4.902  18.036  0.00  0.00    +0.000 N 
ATOM     13  O   UNL     1       8.408   4.045  17.758  0.00  0.00    +0.000 OA
ATOM     14  O   UNL     1       7.016   5.117  19.106  0.00  0.00    +0.000 OA
ENDBRANCH  10  12
ENDBRANCH   7  10
ENDBRANCH   4   7
BRANCH   1  15
ATOM     15  N   UNL     1       1.257   3.759  18.988  0.00  0.00    +0.000 N 
ATOM     16  H   UNL     1       0.898   2.812  18.875  0.00  0.00    +0.000 HD
BRANCH  15  17
ATOM     17  C   UNL     1       1.131   4.268  20.355  0.00  0.00    +0.000 C 
BRANCH  17  19
ATOM     18  N   UNL     1       1.902   2.448  22.125  0.00  0.00    +0.000 NA
ATOM     19  C   UNL     1       1.569   3.253  21.355  0.00  0.00    +0.000 C 
ENDBRANCH  17  19
ENDBRANCH  15  17
ENDBRANCH   1  15
TORSDOF 6
ENDMDL
MODEL 9
REMARK VINA RESULT:      -6.4      1.018      1.260
REMARK  Name = 
REMARK  6 active torsions:
REMARK  status: ('A' for Active; 'I' for Inactive)
REMARK    1  A    between atoms: C_2  and  C_3
REMARK    2  A    between atoms: C_3  and  N_4
REMARK    3  A    between atoms: N_4  and  C_5
REMARK    4  A    between atoms: C_8  and  S_9
REMARK    5  A    between atoms: S_9  and  N_12
REMARK    6  A    between atoms: N_12  and  N_13
REMARK                            x       y       z     vdW  Elec       q    Type
REMARK                         _______ _______ _______ _____ _____    ______ ____
ROOT
ATOM      1  C   UNL     1       2.828   4.557  18.903  0.00  0.00    +0.000 A 
ATOM      2  C   UNL     1       3.221   3.887  17.731  0.00  0.00    +0.000 A 
ATOM      3  C   UNL     1       4.506   4.035  17.193  0.00  0.00    +0.000 A 
ATOM      4  C   UNL     1       5.418   4.888  17.807  0.00  0.00    +0.000 A 
ATOM      5  C   UNL     1       5.071   5.537  18.995  0.00  0.00    +0.000 A 
ATOM      6  C   UNL     1       3.780   5.369  19.533  0.00  0.00    +0.000 A 
ENDROOT
BRANCH   4   7
ATOM      7  S   UNL     1       7.062   5.047  17.113  0.00  0.00    +0.000 S 
ATOM      8  O   UNL     1       7.221   6.443  16.767  0.00  0.00    +0.000 OA
ATOM      9  O   UNL     1       7.950   4.375  18.036  0.00  0.00    +0.000 OA
BRANCH   7  10
ATOM     10  N   UNL     1       6.941   4.160  15.740  0.00  0.00    +0.000 N 
ATOM     11  H   UNL     1       7.056   3.159  15.697  0.00  0.00    +0.000 HD
BRANCH  10  12
ATOM     12  N   UNL     1       6.863   4.762  14.547  0.00  0.00    +0.000 N 
ATOM     13  O   UNL     1       7.828   5.404  14.137  0.00  0.00    +0.000 OA
ATOM     14  O   UNL     1       5.781   4.568  14.007  0.00  0.00    +0.000 OA
ENDBRANCH  10  12
ENDBRANCH   7  10
ENDBRANCH   4   7
BRANCH   1  15
ATOM     15  N   UNL     1       1.502   4.458  19.313  0.00  0.00    +0.000 N 
ATOM     16  H   UNL     1       0.851   5.027  18.773  0.00  0.00    +0.000 HD
BRANCH  15  17
ATOM     17  C   UNL     1       0.917   3.202  19.786  0.00  0.00    +0.000 C 
BRANCH  17  19
ATOM     18  N   UNL     1       1.817   2.576  22.203  0.00  0.00    +0.000 NA
ATOM     19  C   UNL     1       1.427   2.842  21.141  0.00  0.00    +0.000 C 
ENDBRANCH  17  19
ENDBRANCH  15  17
ENDBRANCH   1  15
TORSDOF 6
ENDMDL
