MODEL 1
REMARK VINA RESULT:      -5.7      0.000      0.000
REMARK  Name = 
REMARK  9 active torsions:
REMARK  status: ('A' for Active; 'I' for Inactive)
REMARK    1  A    between atoms: C_1  and  C_2
REMARK    2  A    between atoms: C_2  and  C_3
REMARK    3  A    between atoms: C_2  and  C_4
REMARK    4  A    between atoms: C_2  and  C_5
REMARK    5  A    between atoms: C_12  and  C_13
REMARK    6  A    between atoms: C_13  and  S_14
REMARK    7  A    between atoms: S_14  and  C_15
REMARK    8  A    between atoms: N_18  and  C_19
REMARK    9  A    between atoms: C_19  and  C_20
REMARK                            x       y       z     vdW  Elec       q    Type
REMARK                         _______ _______ _______ _____ _____    ______ ____
ROOT
ATOM      1  C   UNL     1       0.734   9.322  19.608  0.00  0.00    +0.000 C 
ATOM      2  C   UNL     1       1.804  10.299  19.069  0.00  0.00    +0.000 C 
ATOM      3  C   UNL     1       2.472   9.517  17.937  0.00  0.00    +0.000 C 
ATOM      4  N   UNL     1       2.563   8.179  18.540  0.00  0.00    +0.000 N 
ATOM      5  C   UNL     1       3.274   7.207  17.884  0.00  0.00    +0.000 A 
ATOM      6  N   UNL     1       3.716   7.225  16.643  0.00  0.00    +0.000 NA
ATOM      7  N   UNL     1       4.543   6.139  16.438  0.00  0.00    +0.000 NA
ATOM      8  C   UNL     1       4.657   5.486  17.573  0.00  0.00    +0.000 A 
ATOM      9  N   UNL     1       3.814   6.082  18.504  0.00  0.00    +0.000 N 
ATOM     10  C   UNL     1       1.240   7.932  19.124  0.00  0.00    +0.000 C 
ENDROOT
BRANCH   1  12
ATOM     11  C   UNL     1      -0.667   8.425  21.536  0.00  0.00    +0.000 C 
ATOM     12  C   UNL     1       0.417   9.450  21.142  0.00  0.00    +0.000 C 
ATOM     13  C   UNL     1      -0.070  10.858  21.537  0.00  0.00    +0.000 C 
ATOM     14  C   UNL     1       1.663   9.136  22.004  0.00  0.00    +0.000 C 
ENDBRANCH   1  12
BRANCH   8  15
ATOM     15  C   UNL     1       5.710   4.469  17.861  0.00  0.00    +0.000 C 
BRANCH  15  16
ATOM     16  S   UNL     1       7.278   5.111  18.401  0.00  0.00    +0.000 S 
ATOM     17  C   UNL     1       7.467   6.703  17.625  0.00  0.00    +0.000 C 
ATOM     18  O   UNL     1       7.159   5.344  19.824  0.00  0.00    +0.000 OA
ATOM     19  O   UNL     1       8.353   4.251  17.920  0.00  0.00    +0.000 OA
ENDBRANCH  15  16
ENDBRANCH   8  15
BRANCH   9  20
ATOM     20  C   UNL     1       3.518   5.558  19.819  0.00  0.00    +0.000 C 
BRANCH  20  21
ATOM     21  C   UNL     1       2.548   4.414  19.876  0.00  0.00    +0.000 C 
ATOM     22  C   UNL     1       2.265   3.634  21.133  0.00  0.00    +0.000 C 
ATOM     23  C   UNL     1       1.251   4.618  20.620  0.00  0.00    +0.000 C 
ENDBRANCH  20  21
ENDBRANCH   9  20
TORSDOF 5
ENDMDL
MODEL 2
REMARK VINA RESULT:      -5.7      0.492      1.075
REMARK  Name = 
REMARK  9 active torsions:
REMARK  status: ('A' for Active; 'I' for Inactive)
REMARK    1  A    between atoms: C_1  and  C_2
REMARK    2  A    between atoms: C_2  and  C_3
REMARK    3  A    between atoms: C_2  and  C_4
REMARK    4  A    between atoms: C_2  and  C_5
REMARK    5  A    between atoms: C_12  and  C_13
REMARK    6  A    between atoms: C_13  and  S_14
REMARK    7  A    between atoms: S_14  and  C_15
REMARK    8  A    between atoms: N_18  and  C_19
REMARK    9  A    between atoms: C_19  and  C_20
REMARK                            x       y       z     vdW  Elec       q    Type
REMARK                         _______ _______ _______ _____ _____    ______ ____
ROOT
ATOM      1  C   UNL     1       0.657   9.339  19.638  0.00  0.00    +0.000 C 
ATOM      2  C   UNL     1       1.718  10.323  19.094  0.00  0.00    +0.000 C 
ATOM      3  C   UNL     1       2.401   9.538  17.973  0.00  0.00    +0.000 C 
ATOM      4  N   UNL     1       2.504   8.207  18.591  0.00  0.00    +0.000 N 
ATOM      5  C   UNL     1       3.229   7.237  17.948  0.00  0.00    +0.000 A 
ATOM      6  N   UNL     1       3.677   7.247  16.708  0.00  0.00    +0.000 NA
ATOM      7  N   UNL     1       4.518   6.169  16.519  0.00  0.00    +0.000 NA
ATOM      8  C   UNL     1       4.635   5.529  17.661  0.00  0.00    +0.000 A 
ATOM      9  N   UNL     1       3.780   6.125  18.582  0.00  0.00    +0.000 N 
ATOM     10  C   UNL     1       1.181   7.950  19.171  0.00  0.00    +0.000 C 
ENDROOT
BRANCH   1  12
ATOM     11  C   UNL     1      -0.304  10.860  21.441  0.00  0.00    +0.000 C 
ATOM     12  C   UNL     1       0.332   9.480  21.170  0.00  0.00    +0.000 C 
ATOM     13  C   UNL     1       1.580   9.329  22.062  0.00  0.00    +0.000 C 
ATOM     14  C   UNL     1      -0.693   8.417  21.630  0.00  0.00    +0.000 C 
ENDBRANCH   1  12
BRANCH   8  15
ATOM     15  C   UNL     1       5.698   4.528  17.964  0.00  0.00    +0.000 C 
BRANCH  15  16
ATOM     16  S   UNL     1       7.358   5.013  17.548  0.00  0.00    +0.000 S 
ATOM     17  C   UNL     1       7.468   6.762  17.867  0.00  0.00    +0.000 C 
ATOM     18  O   UNL     1       8.229   4.353  18.496  0.00  0.00    +0.000 OA
ATOM     19  O   UNL     1       7.588   4.804  16.123  0.00  0.00    +0.000 OA
ENDBRANCH  15  16
ENDBRANCH   8  15
BRANCH   9  20
ATOM     20  C   UNL     1       3.484   5.611  19.901  0.00  0.00    +0.000 C 
BRANCH  20  21
ATOM     21  C   UNL     1       2.609   4.393  19.960  0.00  0.00    +0.000 C 
ATOM     22  C   UNL     1       2.233   3.708  21.247  0.00  0.00    +0.000 C 
ATOM     23  C   UNL     1       1.217   4.544  20.521  0.00  0.00    +0.000 C 
ENDBRANCH  20  21
ENDBRANCH   9  20
TORSDOF 5
ENDMDL
MODEL 3
REMARK VINA RESULT:      -5.6      4.791      7.344
REMARK  Name = 
REMARK  9 active torsions:
REMARK  status: ('A' for Active; 'I' for Inactive)
REMARK    1  A    between atoms: C_1  and  C_2
REMARK    2  A    between atoms: C_2  and  C_3
REMARK    3  A    between atoms: C_2  and  C_4
REMARK    4  A    between atoms: C_2  and  C_5
REMARK    5  A    between atoms: C_12  and  C_13
REMARK    6  A    between atoms: C_13  and  S_14
REMARK    7  A    between atoms: S_14  and  C_15
REMARK    8  A    between atoms: N_18  and  C_19
REMARK    9  A    between atoms: C_19  and  C_20
REMARK                            x       y       z     vdW  Elec       q    Type
REMARK                         _______ _______ _______ _____ _____    ______ ____
ROOT
ATOM      1  C   UNL     1       2.902   6.312  19.090  0.00  0.00    +0.000 C 
ATOM      2  C   UNL     1       2.801   6.767  17.616  0.00  0.00    +0.000 C 
ATOM      3  C   UNL     1       2.665   8.287  17.713  0.00  0.00    +0.000 C 
ATOM      4  N   UNL     1       1.748   8.411  18.856  0.00  0.00    +0.000 N 
ATOM      5  C   UNL     1       1.238   9.647  19.160  0.00  0.00    +0.000 A 
ATOM      6  N   UNL     1       1.632  10.821  18.709  0.00  0.00    +0.000 NA
ATOM      7  N   UNL     1       0.736  11.789  19.113  0.00  0.00    +0.000 NA
ATOM      8  C   UNL     1      -0.243  11.201  19.764  0.00  0.00    +0.000 A 
ATOM      9  N   UNL     1       0.064   9.850  19.884  0.00  0.00    +0.000 N 
ATOM     10  C   UNL     1       2.284   7.504  19.877  0.00  0.00    +0.000 C 
ENDROOT
BRANCH   1  12
ATOM     11  C   UNL     1       1.603   4.339  18.139  0.00  0.00    +0.000 C 
ATOM     12  C   UNL     1       2.303   4.892  19.398  0.00  0.00    +0.000 C 
ATOM     13  C   UNL     1       1.289   4.909  20.558  0.00  0.00    +0.000 C 
ATOM     14  C   UNL     1       3.412   3.880  19.773  0.00  0.00    +0.000 C 
ENDBRANCH   1  12
BRANCH   8  15
ATOM     15  C   UNL     1      -1.559  11.836  20.065  0.00  0.00    +0.000 C 
BRANCH  15  16
ATOM     16  S   UNL     1      -1.543  13.078  21.338  0.00  0.00    +0.000 S 
ATOM     17  C   UNL     1      -2.919  12.721  22.411  0.00  0.00    +0.000 C 
ATOM     18  O   UNL     1      -0.337  12.863  22.108  0.00  0.00    +0.000 OA
ATOM     19  O   UNL     1      -1.769  14.392  20.746  0.00  0.00    +0.000 OA
ENDBRANCH  15  16
ENDBRANCH   8  15
BRANCH   9  20
ATOM     20  C   UNL     1      -0.671   8.894  20.682  0.00  0.00    +0.000 C 
BRANCH  20  21
ATOM     21  C   UNL     1      -0.156   8.653  22.071  0.00  0.00    +0.000 C 
ATOM     22  C   UNL     1       0.873   9.530  22.734  0.00  0.00    +0.000 C 
ATOM     23  C   UNL     1      -0.566   9.615  23.158  0.00  0.00    +0.000 C 
ENDBRANCH  20  21
ENDBRANCH   9  20
TORSDOF 5
ENDMDL
MODEL 4
REMARK VINA RESULT:      -5.6      3.817      7.107
REMARK  Name = 
REMARK  9 active torsions:
REMARK  status: ('A' for Active; 'I' for Inactive)
REMARK    1  A    between atoms: C_1  and  C_2
REMARK    2  A    between atoms: C_2  and  C_3
REMARK    3  A    between atoms: C_2  and  C_4
REMARK    4  A    between atoms: C_2  and  C_5
REMARK    5  A    between atoms: C_12  and  C_13
REMARK    6  A    between atoms: C_13  and  S_14
REMARK    7  A    between atoms: S_14  and  C_15
REMARK    8  A    between atoms: N_18  and  C_19
REMARK    9  A    between atoms: C_19  and  C_20
REMARK                            x       y       z     vdW  Elec       q    Type
REMARK                         _______ _______ _______ _____ _____    ______ ____
ROOT
ATOM      1  C   UNL     1       4.438   4.163  16.784  0.00  0.00    +0.000 C 
ATOM      2  C   UNL     1       4.946   3.500  18.086  0.00  0.00    +0.000 C 
ATOM      3  C   UNL     1       3.821   3.760  19.089  0.00  0.00    +0.000 C 
ATOM      4  N   UNL     1       3.466   5.147  18.754  0.00  0.00    +0.000 N 
ATOM      5  C   UNL     1       2.586   5.816  19.565  0.00  0.00    +0.000 A 
ATOM      6  N   UNL     1       1.809   5.316  20.505  0.00  0.00    +0.000 NA
ATOM      7  N   UNL     1       1.224   6.349  21.210  0.00  0.00    +0.000 NA
ATOM      8  C   UNL     1       1.689   7.486  20.740  0.00  0.00    +0.000 A 
ATOM      9  N   UNL     1       2.502   7.205  19.648  0.00  0.00    +0.000 N 
ATOM     10  C   UNL     1       3.369   5.175  17.290  0.00  0.00    +0.000 C 
ENDROOT
BRANCH   1  12
ATOM     11  C   UNL     1       5.321   6.255  15.633  0.00  0.00    +0.000 C 
ATOM     12  C   UNL     1       5.556   4.745  15.846  0.00  0.00    +0.000 C 
ATOM     13  C   UNL     1       5.599   4.055  14.468  0.00  0.00    +0.000 C 
ATOM     14  C   UNL     1       6.960   4.596  16.478  0.00  0.00    +0.000 C 
ENDBRANCH   1  12
BRANCH   8  15
ATOM     15  C   UNL     1       1.572   8.799  21.438  0.00  0.00    +0.000 C 
BRANCH  15  16
ATOM     16  S   UNL     1      -0.030   9.173  22.115  0.00  0.00    +0.000 S 
ATOM     17  C   UNL     1      -0.601  10.641  21.283  0.00  0.00    +0.000 C 
ATOM     18  O   UNL     1      -0.907   8.093  21.719  0.00  0.00    +0.000 OA
ATOM     19  O   UNL     1       0.097   9.486  23.534  0.00  0.00    +0.000 OA
ENDBRANCH  15  16
ENDBRANCH   8  15
BRANCH   9  20
ATOM     20  C   UNL     1       3.063   8.189  18.750  0.00  0.00    +0.000 C 
BRANCH  20  21
ATOM     21  C   UNL     1       2.126   8.771  17.732  0.00  0.00    +0.000 C 
ATOM     22  C   UNL     1       0.782   9.353  18.085  0.00  0.00    +0.000 C 
ATOM     23  C   UNL     1       1.921  10.266  17.727  0.00  0.00    +0.000 C 
ENDBRANCH  20  21
ENDBRANCH   9  20
TORSDOF 5
ENDMDL
MODEL 5
REMARK VINA RESULT:      -5.6      4.573      7.137
REMARK  Name = 
REMARK  9 active torsions:
REMARK  status: ('A' for Active; 'I' for Inactive)
REMARK    1  A    between atoms: C_1  and  C_2
REMARK    2  A    between atoms: C_2  and  C_3
REMARK    3  A    between atoms: C_2  and  C_4
REMARK    4  A    between atoms: C_2  and  C_5
REMARK    5  A    between atoms: C_12  and  C_13
REMARK    6  A    between atoms: C_13  and  S_14
REMARK    7  A    between atoms: S_14  and  C_15
REMARK    8  A    between atoms: N_18  and  C_19
REMARK    9  A    between atoms: C_19  and  C_20
REMARK                            x       y       z     vdW  Elec       q    Type
REMARK                         _______ _______ _______ _____ _____    ______ ____
ROOT
ATOM      1  C   UNL     1       2.971   5.886  19.112  0.00  0.00    +0.000 C 
ATOM      2  C   UNL     1       2.948   6.300  17.622  0.00  0.00    +0.000 C 
ATOM      3  C   UNL     1       2.945   7.829  17.670  0.00  0.00    +0.000 C 
ATOM      4  N   UNL     1       2.013   8.070  18.783  0.00  0.00    +0.000 N 
ATOM      5  C   UNL     1       1.607   9.355  19.035  0.00  0.00    +0.000 A 
ATOM      6  N   UNL     1       2.115  10.474  18.560  0.00  0.00    +0.000 NA
ATOM      7  N   UNL     1       1.298  11.530  18.909  0.00  0.00    +0.000 NA
ATOM      8  C   UNL     1       0.254  11.051  19.550  0.00  0.00    +0.000 A 
ATOM      9  N   UNL     1       0.438   9.684  19.719  0.00  0.00    +0.000 N 
ATOM     10  C   UNL     1       2.441   7.153  19.845  0.00  0.00    +0.000 C 
ENDROOT
BRANCH   1  12
ATOM     11  C   UNL     1       1.163   4.780  20.522  0.00  0.00    +0.000 C 
ATOM     12  C   UNL     1       2.241   4.535  19.446  0.00  0.00    +0.000 C 
ATOM     13  C   UNL     1       3.205   3.445  19.954  0.00  0.00    +0.000 C 
ATOM     14  C   UNL     1       1.514   3.963  18.206  0.00  0.00    +0.000 C 
ENDBRANCH   1  12
BRANCH   8  15
ATOM     15  C   UNL     1      -1.007  11.809  19.795  0.00  0.00    +0.000 C 
BRANCH  15  16
ATOM     16  S   UNL     1      -0.941  13.018  21.098  0.00  0.00    +0.000 S 
ATOM     17  C   UNL     1      -2.338  12.700  22.155  0.00  0.00    +0.000 C 
ATOM     18  O   UNL     1       0.249  12.728  21.868  0.00  0.00    +0.000 OA
ATOM     19  O   UNL     1      -1.102  14.355  20.536  0.00  0.00    +0.000 OA
ENDBRANCH  15  16
ENDBRANCH   8  15
BRANCH   9  20
ATOM     20  C   UNL     1      -0.398   8.822  20.524  0.00  0.00    +0.000 C 
BRANCH  20  21
ATOM     21  C   UNL     1       0.086   8.536  21.916  0.00  0.00    +0.000 C 
ATOM     22  C   UNL     1       1.041   9.435  22.658  0.00  0.00    +0.000 C 
ATOM     23  C   UNL     1      -0.413   9.413  23.037  0.00  0.00    +0.000 C 
ENDBRANCH  20  21
ENDBRANCH   9  20
TORSDOF 5
ENDMDL
MODEL 6
REMARK VINA RESULT:      -5.6      4.575      7.084
REMARK  Name = 
REMARK  9 active torsions:
REMARK  status: ('A' for Active; 'I' for Inactive)
REMARK    1  A    between atoms: C_1  and  C_2
REMARK    2  A    between atoms: C_2  and  C_3
REMARK    3  A    between atoms: C_2  and  C_4
REMARK    4  A    between atoms: C_2  and  C_5
REMARK    5  A    between atoms: C_12  and  C_13
REMARK    6  A    between atoms: C_13  and  S_14
REMARK    7  A    between atoms: S_14  and  C_15
REMARK    8  A    between atoms: N_18  and  C_19
REMARK    9  A    between atoms: C_19  and  C_20
REMARK                            x       y       z     vdW  Elec       q    Type
REMARK                         _______ _______ _______ _____ _____    ______ ____
ROOT
ATOM      1  C   UNL     1       3.164   5.815  19.282  0.00  0.00    +0.000 C 
ATOM      2  C   UNL     1       3.107   6.120  17.767  0.00  0.00    +0.000 C 
ATOM      3  C   UNL     1       2.991   7.644  17.707  0.00  0.00    +0.000 C 
ATOM      4  N   UNL     1       2.047   7.893  18.807  0.00  0.00    +0.000 N 
ATOM      5  C   UNL     1       1.546   9.160  18.970  0.00  0.00    +0.000 A 
ATOM      6  N   UNL     1       1.969  10.277  18.413  0.00  0.00    +0.000 NA
ATOM      7  N   UNL     1       1.077  11.292  18.693  0.00  0.00    +0.000 NA
ATOM      8  C   UNL     1       0.073  10.784  19.374  0.00  0.00    +0.000 A 
ATOM      9  N   UNL     1       0.358   9.449  19.638  0.00  0.00    +0.000 N 
ATOM     10  C   UNL     1       2.543   7.089  19.928  0.00  0.00    +0.000 C 
ENDROOT
BRANCH   1  12
ATOM     11  C   UNL     1       1.841   4.598  21.085  0.00  0.00    +0.000 C 
ATOM     12  C   UNL     1       2.538   4.441  19.716  0.00  0.00    +0.000 C 
ATOM     13  C   UNL     1       3.584   3.314  19.823  0.00  0.00    +0.000 C 
ATOM     14  C   UNL     1       1.456   3.971  18.715  0.00  0.00    +0.000 C 
ENDBRANCH   1  12
BRANCH   8  15
ATOM     15  C   UNL     1      -1.241  11.462  19.574  0.00  0.00    +0.000 C 
BRANCH  15  16
ATOM     16  S   UNL     1      -2.447  11.203  18.292  0.00  0.00    +0.000 S 
ATOM     17  C   UNL     1      -3.956  11.961  18.857  0.00  0.00    +0.000 C 
ATOM     18  O   UNL     1      -1.996  11.960  17.145  0.00  0.00    +0.000 OA
ATOM     19  O   UNL     1      -2.697   9.775  18.134  0.00  0.00    +0.000 OA
ENDBRANCH  15  16
ENDBRANCH   8  15
BRANCH   9  20
ATOM     20  C   UNL     1      -0.410   8.588  20.508  0.00  0.00    +0.000 C 
BRANCH  20  21
ATOM     21  C   UNL     1       0.072   8.474  21.925  0.00  0.00    +0.000 C 
ATOM     22  C   UNL     1       0.992   9.479  22.567  0.00  0.00    +0.000 C 
ATOM     23  C   UNL     1      -0.464   9.454  22.940  0.00  0.00    +0.000 C 
ENDBRANCH  20  21
ENDBRANCH   9  20
TORSDOF 5
ENDMDL
MODEL 7
REMARK VINA RESULT:      -5.6      4.726      7.239
REMARK  Name = 
REMARK  9 active torsions:
REMARK  status: ('A' for Active; 'I' for Inactive)
REMARK    1  A    between atoms: C_1  and  C_2
REMARK    2  A    between atoms: C_2  and  C_3
REMARK    3  A    between atoms: C_2  and  C_4
REMARK    4  A    between atoms: C_2  and  C_5
REMARK    5  A    between atoms: C_12  and  C_13
REMARK    6  A    between atoms: C_13  and  S_14
REMARK    7  A    between atoms: S_14  and  C_15
REMARK    8  A    between atoms: N_18  and  C_19
REMARK    9  A    between atoms: C_19  and  C_20
REMARK                            x       y       z     vdW  Elec       q    Type
REMARK                         _______ _______ _______ _____ _____    ______ ____
ROOT
ATOM      1  C   UNL     1       2.933   6.144  19.072  0.00  0.00    +0.000 C 
ATOM      2  C   UNL     1       2.807   6.585  17.596  0.00  0.00    +0.000 C 
ATOM      3  C   UNL     1       2.722   8.110  17.677  0.00  0.00    +0.000 C 
ATOM      4  N   UNL     1       1.839   8.276  18.842  0.00  0.00    +0.000 N 
ATOM      5  C   UNL     1       1.375   9.531  19.143  0.00  0.00    +0.000 A 
ATOM      6  N   UNL     1       1.794  10.686  18.666  0.00  0.00    +0.000 NA
ATOM      7  N   UNL     1       0.939  11.687  19.081  0.00  0.00    +0.000 NA
ATOM      8  C   UNL     1      -0.041  11.137  19.765  0.00  0.00    +0.000 A 
ATOM      9  N   UNL     1       0.228   9.779  19.894  0.00  0.00    +0.000 N 
ATOM     10  C   UNL     1       2.373   7.365  19.860  0.00  0.00    +0.000 C 
ENDROOT
BRANCH   1  12
ATOM     11  C   UNL     1       1.291   4.905  20.573  0.00  0.00    +0.000 C 
ATOM     12  C   UNL     1       2.299   4.747  19.414  0.00  0.00    +0.000 C 
ATOM     13  C   UNL     1       3.351   3.696  19.818  0.00  0.00    +0.000 C 
ATOM     14  C   UNL     1       1.513   4.174  18.212  0.00  0.00    +0.000 C 
ENDBRANCH   1  12
BRANCH   8  15
ATOM     15  C   UNL     1      -1.328  11.817  20.092  0.00  0.00    +0.000 C 
BRANCH  15  16
ATOM     16  S   UNL     1      -1.228  13.118  21.301  0.00  0.00    +0.000 S 
ATOM     17  C   UNL     1      -1.006  14.635  20.395  0.00  0.00    +0.000 C 
ATOM     18  O   UNL     1      -2.527  13.189  21.935  0.00  0.00    +0.000 OA
ATOM     19  O   UNL     1      -0.051  12.921  22.139  0.00  0.00    +0.000 OA
ENDBRANCH  15  16
ENDBRANCH   8  15
BRANCH   9  20
ATOM     20  C   UNL     1      -0.515   8.856  20.723  0.00  0.00    +0.000 C 
BRANCH  20  21
ATOM     21  C   UNL     1       0.019   8.628  22.107  0.00  0.00    +0.000 C 
ATOM     22  C   UNL     1       1.048   9.520  22.752  0.00  0.00    +0.000 C 
ATOM     23  C   UNL     1      -0.387   9.593  23.193  0.00  0.00    +0.000 C 
ENDBRANCH  20  21
ENDBRANCH   9  20
TORSDOF 5
ENDMDL
MODEL 8
REMARK VINA RESULT:      -5.5      4.921      7.123
REMARK  Name = 
REMARK  9 active torsions:
REMARK  status: ('A' for Active; 'I' for Inactive)
REMARK    1  A    between atoms: C_1  and  C_2
REMARK    2  A    between atoms: C_2  and  C_3
REMARK    3  A    between atoms: C_2  and  C_4
REMARK    4  A    between atoms: C_2  and  C_5
REMARK    5  A    between atoms: C_12  and  C_13
REMARK    6  A    between atoms: C_13  and  S_14
REMARK    7  A    between atoms: S_14  and  C_15
REMARK    8  A    between atoms: N_18  and  C_19
REMARK    9  A    between atoms: C_19  and  C_20
REMARK                            x       y       z     vdW  Elec       q    Type
REMARK                         _______ _______ _______ _____ _____    ______ ____
ROOT
ATOM      1  C   UNL     1       3.001   6.148  19.129  0.00  0.00    +0.000 C 
ATOM      2  C   UNL     1       3.022   6.504  17.624  0.00  0.00    +0.000 C 
ATOM      3  C   UNL     1       2.951   8.032  17.611  0.00  0.00    +0.000 C 
ATOM      4  N   UNL     1       1.964   8.272  18.676  0.00  0.00    +0.000 N 
ATOM      5  C   UNL     1       1.493   9.547  18.861  0.00  0.00    +0.000 A 
ATOM      6  N   UNL     1       1.971  10.669  18.362  0.00  0.00    +0.000 NA
ATOM      7  N   UNL     1       1.096  11.700  18.637  0.00  0.00    +0.000 NA
ATOM      8  C   UNL     1       0.048  11.199  19.254  0.00  0.00    +0.000 A 
ATOM      9  N   UNL     1       0.284   9.848  19.484  0.00  0.00    +0.000 N 
ATOM     10  C   UNL     1       2.387   7.416  19.790  0.00  0.00    +0.000 C 
ENDROOT
BRANCH   1  12
ATOM     11  C   UNL     1       1.575   4.230  18.249  0.00  0.00    +0.000 C 
ATOM     12  C   UNL     1       2.317   4.778  19.487  0.00  0.00    +0.000 C 
ATOM     13  C   UNL     1       1.312   4.897  20.649  0.00  0.00    +0.000 C 
ATOM     14  C   UNL     1       3.363   3.713  19.890  0.00  0.00    +0.000 C 
ENDBRANCH   1  12
BRANCH   8  15
ATOM     15  C   UNL     1      -1.254  11.908  19.418  0.00  0.00    +0.000 C 
BRANCH  15  16
ATOM     16  S   UNL     1      -1.410  12.905  20.883  0.00  0.00    +0.000 S 
ATOM     17  C   UNL     1       0.225  13.053  21.572  0.00  0.00    +0.000 C 
ATOM     18  O   UNL     1      -1.806  14.225  20.442  0.00  0.00    +0.000 OA
ATOM     19  O   UNL     1      -2.245  12.215  21.860  0.00  0.00    +0.000 OA
ENDBRANCH  15  16
ENDBRANCH   8  15
BRANCH   9  20
ATOM     20  C   UNL     1      -0.547   8.981  20.289  0.00  0.00    +0.000 C 
BRANCH  20  21
ATOM     21  C   UNL     1      -0.014   8.619  21.644  0.00  0.00    +0.000 C 
ATOM     22  C   UNL     1       0.911   9.510  22.432  0.00  0.00    +0.000 C 
ATOM     23  C   UNL     1      -0.530   9.382  22.839  0.00  0.00    +0.000 C 
ENDBRANCH  20  21
ENDBRANCH   9  20
TORSDOF 5
ENDMDL
MODEL 9
REMARK VINA RESULT:      -5.5      4.650      6.914
REMARK  Name = 
REMARK  9 active torsions:
REMARK  status: ('A' for Active; 'I' for Inactive)
REMARK    1  A    between atoms: C_1  and  C_2
REMARK    2  A    between atoms: C_2  and  C_3
REMARK    3  A    between atoms: C_2  and  C_4
REMARK    4  A    between atoms: C_2  and  C_5
REMARK    5  A    between atoms: C_12  and  C_13
REMARK    6  A    between atoms: C_13  and  S_14
REMARK    7  A    between atoms: S_14  and  C_15
REMARK    8  A    between atoms: N_18  and  C_19
REMARK    9  A    between atoms: C_19  and  C_20
REMARK                            x       y       z     vdW  Elec       q    Type
REMARK                         _______ _______ _______ _____ _____    ______ ____
ROOT
ATOM      1  C   UNL     1       3.020   5.391  19.179  0.00  0.00    +0.000 C 
ATOM      2  C   UNL     1       2.888   5.732  17.677  0.00  0.00    +0.000 C 
ATOM      3  C   UNL     1       2.938   7.261  17.646  0.00  0.00    +0.000 C 
ATOM      4  N   UNL     1       2.109   7.589  18.816  0.00  0.00    +0.000 N 
ATOM      5  C   UNL     1       1.766   8.899  19.034  0.00  0.00    +0.000 A 
ATOM      6  N   UNL     1       2.269   9.974  18.462  0.00  0.00    +0.000 NA
ATOM      7  N   UNL     1       1.518  11.075  18.821  0.00  0.00    +0.000 NA
ATOM      8  C   UNL     1       0.515  10.666  19.567  0.00  0.00    +0.000 A 
ATOM      9  N   UNL     1       0.668   9.302  19.791  0.00  0.00    +0.000 N 
ATOM     10  C   UNL     1       2.593   6.710  19.886  0.00  0.00    +0.000 C 
ENDROOT
BRANCH   1  12
ATOM     11  C   UNL     1       1.505   3.480  18.449  0.00  0.00    +0.000 C 
ATOM     12  C   UNL     1       2.278   4.084  19.640  0.00  0.00    +0.000 C 
ATOM     13  C   UNL     1       1.287   4.335  20.793  0.00  0.00    +0.000 C 
ATOM     14  C   UNL     1       3.277   3.005  20.118  0.00  0.00    +0.000 C 
ENDBRANCH   1  12
BRANCH   8  15
ATOM     15  C   UNL     1      -0.697  11.479  19.874  0.00  0.00    +0.000 C 
BRANCH  15  16
ATOM     16  S   UNL     1      -1.766  11.823  18.494  0.00  0.00    +0.000 S 
ATOM     17  C   UNL     1      -1.897  10.309  17.566  0.00  0.00    +0.000 C 
ATOM     18  O   UNL     1      -3.075  12.098  19.046  0.00  0.00    +0.000 OA
ATOM     19  O   UNL     1      -1.147  12.823  17.630  0.00  0.00    +0.000 OA
ENDBRANCH  15  16
ENDBRANCH   8  15
BRANCH   9  20
ATOM     20  C   UNL     1      -0.126   8.512  20.705  0.00  0.00    +0.000 C 
BRANCH  20  21
ATOM     21  C   UNL     1       0.363   8.441  22.122  0.00  0.00    +0.000 C 
ATOM     22  C   UNL     1       1.316   9.444  22.717  0.00  0.00    +0.000 C 
ATOM     23  C   UNL     1      -0.137   9.474  23.100  0.00  0.00    +0.000 C 
ENDBRANCH  20  21
ENDBRANCH   9  20
TORSDOF 5
ENDMDL
