MODEL 1
REMARK VINA RESULT:      -7.4      0.000      0.000
REMARK  Name = 
REMARK  3 active torsions:
REMARK  status: ('A' for Active; 'I' for Inactive)
REMARK    1  A    between atoms: C_2  and  C_3
REMARK    2  A    between atoms: N_16  and  C_17
REMARK    3  A    between atoms: C_17  and  C_18
REMARK                            x       y       z     vdW  Elec       q    Type
REMARK                         _______ _______ _______ _____ _____    ______ ____
ROOT
ATOM      1  O   UNL     1       2.486  10.233  17.496  0.00  0.00    +0.000 OA
ATOM      2  C   UNL     1       1.910   9.257  17.954  0.00  0.00    +0.000 C 
ATOM      3  N   UNL     1       2.498   7.990  18.015  0.00  0.00    +0.000 N 
ATOM      4  C   UNL     1       1.929   6.819  18.683  0.00  0.00    +0.000 C 
ATOM      5  C   UNL     1       2.314   5.496  17.995  0.00  0.00    +0.000 C 
ATOM      6  C   UNL     1       3.857   5.357  17.747  0.00  0.00    +0.000 C 
ATOM      7  C   UNL     1       4.223   6.615  16.922  0.00  0.00    +0.000 C 
ATOM      8  C   UNL     1       3.908   7.908  17.660  0.00  0.00    +0.000 C 
ATOM      9  C   UNL     1       4.538   5.253  19.146  0.00  0.00    +0.000 C 
ATOM     10  O   UNL     1       4.052   4.102  19.861  0.00  0.00    +0.000 OA
ATOM     11  C   UNL     1       4.240   2.875  19.141  0.00  0.00    +0.000 C 
ATOM     12  C   UNL     1       3.731   2.932  17.690  0.00  0.00    +0.000 C 
ATOM     13  N   UNL     1       4.213   4.118  16.942  0.00  0.00    +0.000 NA
ENDROOT
BRANCH   2  14
ATOM     14  C   UNL     1       0.501   9.413  18.435  0.00  0.00    +0.000 C 
ATOM     15  C   UNL     1       0.236   9.875  19.849  0.00  0.00    +0.000 C 
ATOM     16  C   UNL     1      -0.037  10.802  18.703  0.00  0.00    +0.000 C 
ENDBRANCH   2  14
BRANCH  13  17
ATOM     17  C   UNL     1       5.684   4.004  16.687  0.00  0.00    +0.000 C 
BRANCH  17  18
ATOM     18  C   UNL     1       6.091   4.213  15.239  0.00  0.00    +0.000 A 
ATOM     19  C   UNL     1       5.393   3.560  14.212  0.00  0.00    +0.000 A 
ATOM     20  C   UNL     1       5.840   3.657  12.894  0.00  0.00    +0.000 A 
ATOM     21  C   UNL     1       6.968   4.410  12.608  0.00  0.00    +0.000 A 
ATOM     22  F   UNL     1       7.429   4.458  11.347  0.00  0.00    +0.000 F 
ATOM     23  C   UNL     1       7.643   5.109  13.601  0.00  0.00    +0.000 A 
ATOM     24  C   UNL     1       7.197   5.019  14.920  0.00  0.00    +0.000 A 
ENDBRANCH  17  18
ENDBRANCH  13  17
TORSDOF 3
ENDMDL
MODEL 2
REMARK VINA RESULT:      -7.1      2.956      4.292
REMARK  Name = 
REMARK  3 active torsions:
REMARK  status: ('A' for Active; 'I' for Inactive)
REMARK    1  A    between atoms: C_2  and  C_3
REMARK    2  A    between atoms: N_16  and  C_17
REMARK    3  A    between atoms: C_17  and  C_18
REMARK                            x       y       z     vdW  Elec       q    Type
REMARK                         _______ _______ _______ _____ _____    ______ ____
ROOT
ATOM      1  O   UNL     1       0.621   3.729  19.571  0.00  0.00    +0.000 OA
ATOM      2  C   UNL     1       1.760   3.880  19.991  0.00  0.00    +0.000 C 
ATOM      3  N   UNL     1       2.805   4.350  19.191  0.00  0.00    +0.000 N 
ATOM      4  C   UNL     1       4.146   4.696  19.661  0.00  0.00    +0.000 C 
ATOM      5  C   UNL     1       5.234   4.433  18.603  0.00  0.00    +0.000 C 
ATOM      6  C   UNL     1       4.902   5.071  17.208  0.00  0.00    +0.000 C 
ATOM      7  C   UNL     1       3.521   4.477  16.839  0.00  0.00    +0.000 C 
ATOM      8  C   UNL     1       2.447   4.821  17.860  0.00  0.00    +0.000 C 
ATOM      9  C   UNL     1       4.938   6.619  17.392  0.00  0.00    +0.000 C 
ATOM     10  O   UNL     1       6.241   7.048  17.828  0.00  0.00    +0.000 OA
ATOM     11  C   UNL     1       7.290   6.644  16.935  0.00  0.00    +0.000 C 
ATOM     12  C   UNL     1       7.246   5.149  16.574  0.00  0.00    +0.000 C 
ATOM     13  N   UNL     1       5.907   4.689  16.134  0.00  0.00    +0.000 NA
ENDROOT
BRANCH   2  14
ATOM     14  C   UNL     1       2.058   3.508  21.409  0.00  0.00    +0.000 C 
ATOM     15  C   UNL     1       1.252   2.424  22.089  0.00  0.00    +0.000 C 
ATOM     16  C   UNL     1       2.677   2.158  21.704  0.00  0.00    +0.000 C 
ENDBRANCH   2  14
BRANCH  13  17
ATOM     17  C   UNL     1       5.571   5.279  14.800  0.00  0.00    +0.000 C 
BRANCH  17  18
ATOM     18  C   UNL     1       5.898   4.386  13.615  0.00  0.00    +0.000 A 
ATOM     19  C   UNL     1       4.935   3.492  13.122  0.00  0.00    +0.000 A 
ATOM     20  C   UNL     1       5.273   2.590  12.113  0.00  0.00    +0.000 A 
ATOM     21  C   UNL     1       6.559   2.593  11.595  0.00  0.00    +0.000 A 
ATOM     22  F   UNL     1       6.898   1.688  10.663  0.00  0.00    +0.000 F 
ATOM     23  C   UNL     1       7.513   3.506  12.029  0.00  0.00    +0.000 A 
ATOM     24  C   UNL     1       7.178   4.413  13.035  0.00  0.00    +0.000 A 
ENDBRANCH  17  18
ENDBRANCH  13  17
TORSDOF 3
ENDMDL
MODEL 3
REMARK VINA RESULT:      -6.9      4.886      8.078
REMARK  Name = 
REMARK  3 active torsions:
REMARK  status: ('A' for Active; 'I' for Inactive)
REMARK    1  A    between atoms: C_2  and  C_3
REMARK    2  A    between atoms: N_16  and  C_17
REMARK    3  A    between atoms: C_17  and  C_18
REMARK                            x       y       z     vdW  Elec       q    Type
REMARK                         _______ _______ _______ _____ _____    ______ ____
ROOT
ATOM      1  O   UNL     1      -5.545  11.134  17.499  0.00  0.00    +0.000 OA
ATOM      2  C   UNL     1      -5.071  11.719  18.463  0.00  0.00    +0.000 C 
ATOM      3  N   UNL     1      -3.699  11.762  18.723  0.00  0.00    +0.000 N 
ATOM      4  C   UNL     1      -3.055  12.563  19.764  0.00  0.00    +0.000 C 
ATOM      5  C   UNL     1      -1.785  11.897  20.327  0.00  0.00    +0.000 C 
ATOM      6  C   UNL     1      -0.781  11.443  19.210  0.00  0.00    +0.000 C 
ATOM      7  C   UNL     1      -1.620  10.510  18.303  0.00  0.00    +0.000 C 
ATOM      8  C   UNL     1      -2.822  11.217  17.694  0.00  0.00    +0.000 C 
ATOM      9  C   UNL     1      -0.242  12.736  18.525  0.00  0.00    +0.000 C 
ATOM     10  O   UNL     1       0.436  13.571  19.482  0.00  0.00    +0.000 OA
ATOM     11  C   UNL     1       1.511  12.895  20.151  0.00  0.00    +0.000 C 
ATOM     12  C   UNL     1       1.109  11.529  20.734  0.00  0.00    +0.000 C 
ATOM     13  N   UNL     1       0.399  10.661  19.764  0.00  0.00    +0.000 NA
ENDROOT
BRANCH   2  14
ATOM     14  C   UNL     1      -6.001  12.383  19.428  0.00  0.00    +0.000 C 
ATOM     15  C   UNL     1      -7.488  12.118  19.346  0.00  0.00    +0.000 C 
ATOM     16  C   UNL     1      -6.694  11.545  20.482  0.00  0.00    +0.000 C 
ENDBRANCH   2  14
BRANCH  13  17
ATOM     17  C   UNL     1       1.340  10.208  18.692  0.00  0.00    +0.000 C 
BRANCH  17  18
ATOM     18  C   UNL     1       1.886   8.805  18.883  0.00  0.00    +0.000 A 
ATOM     19  C   UNL     1       2.587   8.175  17.844  0.00  0.00    +0.000 A 
ATOM     20  C   UNL     1       2.984   6.844  17.976  0.00  0.00    +0.000 A 
ATOM     21  C   UNL     1       2.693   6.156  19.144  0.00  0.00    +0.000 A 
ATOM     22  F   UNL     1       3.028   4.860  19.248  0.00  0.00    +0.000 F 
ATOM     23  C   UNL     1       2.048   6.776  20.208  0.00  0.00    +0.000 A 
ATOM     24  C   UNL     1       1.653   8.108  20.082  0.00  0.00    +0.000 A 
ENDBRANCH  17  18
ENDBRANCH  13  17
TORSDOF 3
ENDMDL
MODEL 4
REMARK VINA RESULT:      -6.9      4.627      7.688
REMARK  Name = 
REMARK  3 active torsions:
REMARK  status: ('A' for Active; 'I' for Inactive)
REMARK    1  A    between atoms: C_2  and  C_3
REMARK    2  A    between atoms: N_16  and  C_17
REMARK    3  A    between atoms: C_17  and  C_18
REMARK                            x       y       z     vdW  Elec       q    Type
REMARK                         _______ _______ _______ _____ _____    ______ ____
ROOT
ATOM      1  O   UNL     1      -4.930  11.172  16.492  0.00  0.00    +0.000 OA
ATOM      2  C   UNL     1      -4.631  11.633  17.584  0.00  0.00    +0.000 C 
ATOM      3  N   UNL     1      -3.326  11.611  18.084  0.00  0.00    +0.000 N 
ATOM      4  C   UNL     1      -2.872  12.272  19.307  0.00  0.00    +0.000 C 
ATOM      5  C   UNL     1      -1.726  11.514  20.004  0.00  0.00    +0.000 C 
ATOM      6  C   UNL     1      -0.543  11.161  19.036  0.00  0.00    +0.000 C 
ATOM      7  C   UNL     1      -1.214  10.358  17.894  0.00  0.00    +0.000 C 
ATOM      8  C   UNL     1      -2.285  11.160  17.170  0.00  0.00    +0.000 C 
ATOM      9  C   UNL     1       0.117  12.507  18.608  0.00  0.00    +0.000 C 
ATOM     10  O   UNL     1       0.620  13.212  19.758  0.00  0.00    +0.000 OA
ATOM     11  C   UNL     1       1.555  12.438  20.523  0.00  0.00    +0.000 C 
ATOM     12  C   UNL     1       1.048  11.027  20.866  0.00  0.00    +0.000 C 
ATOM     13  N   UNL     1       0.515  10.291  19.694  0.00  0.00    +0.000 NA
ENDROOT
BRANCH   2  14
ATOM     14  C   UNL     1      -5.713  12.210  18.442  0.00  0.00    +0.000 C 
ATOM     15  C   UNL     1      -7.148  11.780  18.234  0.00  0.00    +0.000 C 
ATOM     16  C   UNL     1      -6.406  11.322  19.453  0.00  0.00    +0.000 C 
ENDBRANCH   2  14
BRANCH  13  17
ATOM     17  C   UNL     1       1.628   9.936  18.759  0.00  0.00    +0.000 C 
BRANCH  17  18
ATOM     18  C   UNL     1       2.075   8.486  18.831  0.00  0.00    +0.000 A 
ATOM     19  C   UNL     1       1.746   7.705  19.949  0.00  0.00    +0.000 A 
ATOM     20  C   UNL     1       2.256   6.412  20.071  0.00  0.00    +0.000 A 
ATOM     21  C   UNL     1       3.077   5.904  19.076  0.00  0.00    +0.000 A 
ATOM     22  F   UNL     1       3.612   4.681  19.220  0.00  0.00    +0.000 F 
ATOM     23  C   UNL     1       3.371   6.640  17.934  0.00  0.00    +0.000 A 
ATOM     24  C   UNL     1       2.860   7.931  17.806  0.00  0.00    +0.000 A 
ENDBRANCH  17  18
ENDBRANCH  13  17
TORSDOF 3
ENDMDL
MODEL 5
REMARK VINA RESULT:      -6.7      5.202      8.481
REMARK  Name = 
REMARK  3 active torsions:
REMARK  status: ('A' for Active; 'I' for Inactive)
REMARK    1  A    between atoms: C_2  and  C_3
REMARK    2  A    between atoms: N_16  and  C_17
REMARK    3  A    between atoms: C_17  and  C_18
REMARK                            x       y       z     vdW  Elec       q    Type
REMARK                         _______ _______ _______ _____ _____    ______ ____
ROOT
ATOM      1  O   UNL     1      -5.913  11.300  18.076  0.00  0.00    +0.000 OA
ATOM      2  C   UNL     1      -5.365  11.979  18.933  0.00  0.00    +0.000 C 
ATOM      3  N   UNL     1      -3.976  12.058  19.063  0.00  0.00    +0.000 N 
ATOM      4  C   UNL     1      -3.255  12.960  19.961  0.00  0.00    +0.000 C 
ATOM      5  C   UNL     1      -1.930  12.361  20.469  0.00  0.00    +0.000 C 
ATOM      6  C   UNL     1      -1.022  11.808  19.315  0.00  0.00    +0.000 C 
ATOM      7  C   UNL     1      -1.923  10.787  18.579  0.00  0.00    +0.000 C 
ATOM      8  C   UNL     1      -3.186  11.422  18.017  0.00  0.00    +0.000 C 
ATOM      9  C   UNL     1      -0.567  13.033  18.464  0.00  0.00    +0.000 C 
ATOM     10  O   UNL     1       0.180  13.962  19.272  0.00  0.00    +0.000 OA
ATOM     11  C   UNL     1       1.321  13.362  19.902  0.00  0.00    +0.000 C 
ATOM     12  C   UNL     1       0.995  12.055  20.647  0.00  0.00    +0.000 C 
ATOM     13  N   UNL     1       0.215  11.093  19.832  0.00  0.00    +0.000 NA
ENDROOT
BRANCH   2  14
ATOM     14  C   UNL     1      -6.216  12.727  19.911  0.00  0.00    +0.000 C 
ATOM     15  C   UNL     1      -7.584  12.196  20.277  0.00  0.00    +0.000 C 
ATOM     16  C   UNL     1      -6.469  12.128  21.278  0.00  0.00    +0.000 C 
ENDBRANCH   2  14
BRANCH  13  17
ATOM     17  C   UNL     1       1.064  10.545  18.727  0.00  0.00    +0.000 C 
BRANCH  17  18
ATOM     18  C   UNL     1       1.548   9.123  18.949  0.00  0.00    +0.000 A 
ATOM     19  C   UNL     1       1.336   8.493  20.184  0.00  0.00    +0.000 A 
ATOM     20  C   UNL     1       1.884   7.234  20.428  0.00  0.00    +0.000 A 
ATOM     21  C   UNL     1       2.626   6.607  19.439  0.00  0.00    +0.000 A 
ATOM     22  F   UNL     1       3.199   5.420  19.694  0.00  0.00    +0.000 F 
ATOM     23  C   UNL     1       2.803   7.188  18.189  0.00  0.00    +0.000 A 
ATOM     24  C   UNL     1       2.253   8.446  17.939  0.00  0.00    +0.000 A 
ENDBRANCH  17  18
ENDBRANCH  13  17
TORSDOF 3
ENDMDL
MODEL 6
REMARK VINA RESULT:      -6.7      2.885      4.288
REMARK  Name = 
REMARK  3 active torsions:
REMARK  status: ('A' for Active; 'I' for Inactive)
REMARK    1  A    between atoms: C_2  and  C_3
REMARK    2  A    between atoms: N_16  and  C_17
REMARK    3  A    between atoms: C_17  and  C_18
REMARK                            x       y       z     vdW  Elec       q    Type
REMARK                         _______ _______ _______ _____ _____    ______ ____
ROOT
ATOM      1  O   UNL     1       0.536   3.876  19.565  0.00  0.00    +0.000 OA
ATOM      2  C   UNL     1       1.662   4.023  20.017  0.00  0.00    +0.000 C 
ATOM      3  N   UNL     1       2.737   4.470  19.244  0.00  0.00    +0.000 N 
ATOM      4  C   UNL     1       4.066   4.811  19.750  0.00  0.00    +0.000 C 
ATOM      5  C   UNL     1       5.184   4.521  18.730  0.00  0.00    +0.000 C 
ATOM      6  C   UNL     1       4.902   5.139  17.316  0.00  0.00    +0.000 C 
ATOM      7  C   UNL     1       3.527   4.552  16.913  0.00  0.00    +0.000 C 
ATOM      8  C   UNL     1       2.425   4.923  17.894  0.00  0.00    +0.000 C 
ATOM      9  C   UNL     1       4.947   6.689  17.476  0.00  0.00    +0.000 C 
ATOM     10  O   UNL     1       6.241   7.112  17.946  0.00  0.00    +0.000 OA
ATOM     11  C   UNL     1       7.313   6.684  17.093  0.00  0.00    +0.000 C 
ATOM     12  C   UNL     1       7.265   5.184  16.754  0.00  0.00    +0.000 C 
ATOM     13  N   UNL     1       5.936   4.729  16.280  0.00  0.00    +0.000 NA
ENDROOT
BRANCH   2  14
ATOM     14  C   UNL     1       1.913   3.672  21.450  0.00  0.00    +0.000 C 
ATOM     15  C   UNL     1       1.170   2.517  22.083  0.00  0.00    +0.000 C 
ATOM     16  C   UNL     1       2.631   2.381  21.779  0.00  0.00    +0.000 C 
ENDBRANCH   2  14
BRANCH  13  17
ATOM     17  C   UNL     1       5.648   5.301  14.926  0.00  0.00    +0.000 C 
BRANCH  17  18
ATOM     18  C   UNL     1       6.172   4.472  13.767  0.00  0.00    +0.000 A 
ATOM     19  C   UNL     1       7.375   4.825  13.138  0.00  0.00    +0.000 A 
ATOM     20  C   UNL     1       7.796   4.136  12.000  0.00  0.00    +0.000 A 
ATOM     21  C   UNL     1       7.024   3.096  11.505  0.00  0.00    +0.000 A 
ATOM     22  F   UNL     1       7.401   2.471  10.379  0.00  0.00    +0.000 F 
ATOM     23  C   UNL     1       5.857   2.694  12.144  0.00  0.00    +0.000 A 
ATOM     24  C   UNL     1       5.435   3.376  13.285  0.00  0.00    +0.000 A 
ENDBRANCH  17  18
ENDBRANCH  13  17
TORSDOF 3
ENDMDL
MODEL 7
REMARK VINA RESULT:      -6.6      3.243      4.279
REMARK  Name = 
REMARK  3 active torsions:
REMARK  status: ('A' for Active; 'I' for Inactive)
REMARK    1  A    between atoms: C_2  and  C_3
REMARK    2  A    between atoms: N_16  and  C_17
REMARK    3  A    between atoms: C_17  and  C_18
REMARK                            x       y       z     vdW  Elec       q    Type
REMARK                         _______ _______ _______ _____ _____    ______ ____
ROOT
ATOM      1  O   UNL     1       0.550   2.991  18.314  0.00  0.00    +0.000 OA
ATOM      2  C   UNL     1       1.539   2.930  19.032  0.00  0.00    +0.000 C 
ATOM      3  N   UNL     1       2.758   3.523  18.694  0.00  0.00    +0.000 N 
ATOM      4  C   UNL     1       3.929   3.618  19.566  0.00  0.00    +0.000 C 
ATOM      5  C   UNL     1       5.257   3.579  18.787  0.00  0.00    +0.000 C 
ATOM      6  C   UNL     1       5.305   4.606  17.601  0.00  0.00    +0.000 C 
ATOM      7  C   UNL     1       4.069   4.249  16.740  0.00  0.00    +0.000 C 
ATOM      8  C   UNL     1       2.764   4.375  17.512  0.00  0.00    +0.000 C 
ATOM      9  C   UNL     1       5.292   6.033  18.230  0.00  0.00    +0.000 C 
ATOM     10  O   UNL     1       6.435   6.220  19.086  0.00  0.00    +0.000 OA
ATOM     11  C   UNL     1       7.681   6.002  18.409  0.00  0.00    +0.000 C 
ATOM     12  C   UNL     1       7.733   4.677  17.629  0.00  0.00    +0.000 C 
ATOM     13  N   UNL     1       6.556   4.464  16.751  0.00  0.00    +0.000 NA
ENDROOT
BRANCH   2  14
ATOM     14  C   UNL     1       1.453   2.154  20.309  0.00  0.00    +0.000 C 
ATOM     15  C   UNL     1       2.526   2.315  21.361  0.00  0.00    +0.000 C 
ATOM     16  C   UNL     1       1.161   2.888  21.600  0.00  0.00    +0.000 C 
ENDBRANCH   2  14
BRANCH  13  17
ATOM     17  C   UNL     1       6.585   5.429  15.607  0.00  0.00    +0.000 C 
BRANCH  17  18
ATOM     18  C   UNL     1       6.676   4.780  14.237  0.00  0.00    +0.000 A 
ATOM     19  C   UNL     1       5.826   3.714  13.906  0.00  0.00    +0.000 A 
ATOM     20  C   UNL     1       5.989   3.042  12.695  0.00  0.00    +0.000 A 
ATOM     21  C   UNL     1       6.987   3.442  11.819  0.00  0.00    +0.000 A 
ATOM     22  F   UNL     1       7.178   2.759  10.679  0.00  0.00    +0.000 F 
ATOM     23  C   UNL     1       7.805   4.529  12.102  0.00  0.00    +0.000 A 
ATOM     24  C   UNL     1       7.642   5.208  13.310  0.00  0.00    +0.000 A 
ENDBRANCH  17  18
ENDBRANCH  13  17
TORSDOF 3
ENDMDL
MODEL 8
REMARK VINA RESULT:      -6.4      5.238     10.628
REMARK  Name = 
REMARK  3 active torsions:
REMARK  status: ('A' for Active; 'I' for Inactive)
REMARK    1  A    between atoms: C_2  and  C_3
REMARK    2  A    between atoms: N_16  and  C_17
REMARK    3  A    between atoms: C_17  and  C_18
REMARK                            x       y       z     vdW  Elec       q    Type
REMARK                         _______ _______ _______ _____ _____    ______ ____
ROOT
ATOM      1  O   UNL     1       2.433   6.181  20.432  0.00  0.00    +0.000 OA
ATOM      2  C   UNL     1       2.217   6.792  19.396  0.00  0.00    +0.000 C 
ATOM      3  N   UNL     1       1.722   8.100  19.377  0.00  0.00    +0.000 N 
ATOM      4  C   UNL     1       1.583   8.940  18.188  0.00  0.00    +0.000 C 
ATOM      5  C   UNL     1       0.394   9.915  18.283  0.00  0.00    +0.000 C 
ATOM      6  C   UNL     1       0.387  10.748  19.613  0.00  0.00    +0.000 C 
ATOM      7  C   UNL     1       0.403   9.677  20.731  0.00  0.00    +0.000 C 
ATOM      8  C   UNL     1       1.630   8.780  20.662  0.00  0.00    +0.000 C 
ATOM      9  C   UNL     1       1.629  11.690  19.570  0.00  0.00    +0.000 C 
ATOM     10  O   UNL     1       1.555  12.575  18.437  0.00  0.00    +0.000 OA
ATOM     11  C   UNL     1       0.354  13.360  18.420  0.00  0.00    +0.000 C 
ATOM     12  C   UNL     1      -0.926  12.527  18.608  0.00  0.00    +0.000 C 
ATOM     13  N   UNL     1      -0.861  11.601  19.764  0.00  0.00    +0.000 NA
ENDROOT
BRANCH   2  14
ATOM     14  C   UNL     1       2.452   6.100  18.090  0.00  0.00    +0.000 C 
ATOM     15  C   UNL     1       3.303   4.851  18.044  0.00  0.00    +0.000 C 
ATOM     16  C   UNL     1       1.820   4.746  17.848  0.00  0.00    +0.000 C 
ENDBRANCH   2  14
BRANCH  13  17
ATOM     17  C   UNL     1      -0.875  12.374  21.046  0.00  0.00    +0.000 C 
BRANCH  17  18
ATOM     18  C   UNL     1      -2.228  12.429  21.734  0.00  0.00    +0.000 A 
ATOM     19  C   UNL     1      -3.368  12.816  21.014  0.00  0.00    +0.000 A 
ATOM     20  C   UNL     1      -4.586  12.981  21.673  0.00  0.00    +0.000 A 
ATOM     21  C   UNL     1      -4.663  12.751  23.038  0.00  0.00    +0.000 A 
ATOM     22  F   UNL     1      -5.823  12.964  23.680  0.00  0.00    +0.000 F 
ATOM     23  C   UNL     1      -3.560  12.315  23.761  0.00  0.00    +0.000 A 
ATOM     24  C   UNL     1      -2.340  12.143  23.106  0.00  0.00    +0.000 A 
ENDBRANCH  17  18
ENDBRANCH  13  17
TORSDOF 3
ENDMDL
MODEL 9
REMARK VINA RESULT:      -6.4      5.313     10.590
REMARK  Name = 
REMARK  3 active torsions:
REMARK  status: ('A' for Active; 'I' for Inactive)
REMARK    1  A    between atoms: C_2  and  C_3
REMARK    2  A    between atoms: N_16  and  C_17
REMARK    3  A    between atoms: C_17  and  C_18
REMARK                            x       y       z     vdW  Elec       q    Type
REMARK                         _______ _______ _______ _____ _____    ______ ____
ROOT
ATOM      1  O   UNL     1       1.999   6.233  20.810  0.00  0.00    +0.000 OA
ATOM      2  C   UNL     1       2.099   6.889  19.783  0.00  0.00    +0.000 C 
ATOM      3  N   UNL     1       1.595   8.187  19.662  0.00  0.00    +0.000 N 
ATOM      4  C   UNL     1       1.810   9.080  18.524  0.00  0.00    +0.000 C 
ATOM      5  C   UNL     1       0.621  10.029  18.278  0.00  0.00    +0.000 C 
ATOM      6  C   UNL     1       0.171  10.798  19.570  0.00  0.00    +0.000 C 
ATOM      7  C   UNL     1      -0.131   9.675  20.593  0.00  0.00    +0.000 C 
ATOM      8  C   UNL     1       1.083   8.804  20.878  0.00  0.00    +0.000 C 
ATOM      9  C   UNL     1       1.333  11.762  19.959  0.00  0.00    +0.000 C 
ATOM     10  O   UNL     1       1.590  12.699  18.896  0.00  0.00    +0.000 OA
ATOM     11  C   UNL     1       0.431  13.463  18.532  0.00  0.00    +0.000 C 
ATOM     12  C   UNL     1      -0.816  12.600  18.275  0.00  0.00    +0.000 C 
ATOM     13  N   UNL     1      -1.088  11.621  19.355  0.00  0.00    +0.000 NA
ENDROOT
BRANCH   2  14
ATOM     14  C   UNL     1       2.754   6.265  18.592  0.00  0.00    +0.000 C 
ATOM     15  C   UNL     1       3.273   4.847  18.675  0.00  0.00    +0.000 C 
ATOM     16  C   UNL     1       2.046   5.141  17.865  0.00  0.00    +0.000 C 
ENDBRANCH   2  14
BRANCH  13  17
ATOM     17  C   UNL     1      -1.528  12.331  20.596  0.00  0.00    +0.000 C 
BRANCH  17  18
ATOM     18  C   UNL     1      -3.031  12.503  20.727  0.00  0.00    +0.000 A 
ATOM     19  C   UNL     1      -3.596  12.832  21.968  0.00  0.00    +0.000 A 
ATOM     20  C   UNL     1      -4.983  12.873  22.114  0.00  0.00    +0.000 A 
ATOM     21  C   UNL     1      -5.794  12.598  21.024  0.00  0.00    +0.000 A 
ATOM     22  F   UNL     1      -7.128  12.584  21.179  0.00  0.00    +0.000 F 
ATOM     23  C   UNL     1      -5.257  12.324  19.772  0.00  0.00    +0.000 A 
ATOM     24  C   UNL     1      -3.870  12.287  19.620  0.00  0.00    +0.000 A 
ENDBRANCH  17  18
ENDBRANCH  13  17
TORSDOF 3
ENDMDL
