MODEL 1
REMARK VINA RESULT:      -6.2      0.000      0.000
REMARK  Name = 
REMARK  9 active torsions:
REMARK  status: ('A' for Active; 'I' for Inactive)
REMARK    1  A    between atoms: C_1  and  O_2
REMARK    2  A    between atoms: O_2  and  C_3
REMARK    3  A    between atoms: C_3  and  C_4
REMARK    4  A    between atoms: C_4  and  N_5
REMARK    5  A    between atoms: N_5  and  C_6
REMARK    6  A    between atoms: N_5  and  C_7
REMARK    7  A    between atoms: C_7  and  C_8
REMARK    8  A    between atoms: C_7  and  C_11
REMARK    9  A    between atoms: C_8  and  O_10
REMARK                            x       y       z     vdW  Elec       q    Type
REMARK                         _______ _______ _______ _____ _____    ______ ____
ROOT
ATOM      1  C   UNL     1       3.851   3.809  18.652  0.00  0.00    +0.000 C 
ENDROOT
BRANCH   1   2
ATOM      2  C   UNL     1       4.884   4.286  17.635  0.00  0.00    +0.000 A 
ATOM      3  C   UNL     1       4.970   3.657  16.376  0.00  0.00    +0.000 A 
ATOM      4  C   UNL     1       5.904   4.079  15.430  0.00  0.00    +0.000 A 
ATOM      5  C   UNL     1       6.749   5.144  15.721  0.00  0.00    +0.000 A 
ATOM      6  F   UNL     1       7.629   5.543  14.793  0.00  0.00    +0.000 F 
ATOM      7  C   UNL     1       6.677   5.785  16.956  0.00  0.00    +0.000 A 
ATOM      8 CL   UNL     1       7.712   7.113  17.319  0.00  0.00    +0.000 Cl
ATOM      9  C   UNL     1       5.765   5.351  17.910  0.00  0.00    +0.000 A 
ENDBRANCH   1   2
BRANCH   1  10
ATOM     10  N   UNL     1       2.408   4.170  18.347  0.00  0.00    +0.000 NA
ATOM     11  C   UNL     1       2.260   5.578  17.949  0.00  0.00    +0.000 C 
BRANCH  10  12
ATOM     12  C   UNL     1       1.537   3.877  19.524  0.00  0.00    +0.000 C 
BRANCH  12  13
ATOM     13  C   UNL     1       1.822   4.692  20.803  0.00  0.00    +0.000 C 
BRANCH  13  15
ATOM     14  C   UNL     1       1.594   2.540  21.747  0.00  0.00    +0.000 C 
ATOM     15  O   UNL     1       2.251   3.801  21.842  0.00  0.00    +0.000 OA
ENDBRANCH  13  15
ENDBRANCH  12  13
ENDBRANCH  10  12
ENDBRANCH   1  10
BRANCH   1  16
ATOM     16  C   UNL     1       3.983   2.294  19.001  0.00  0.00    +0.000 C 
ATOM     17  O   UNL     1       3.350   1.382  18.484  0.00  0.00    +0.000 OA
BRANCH  16  18
ATOM     18  O   UNL     1       4.944   2.058  19.931  0.00  0.00    +0.000 OA
ATOM     19  H   UNL     1       5.777   2.479  19.625  0.00  0.00    +0.000 HD
ENDBRANCH  16  18
ENDBRANCH   1  16
TORSDOF 7
ENDMDL
MODEL 2
REMARK VINA RESULT:      -6.1      1.502      2.003
REMARK  Name = 
REMARK  9 active torsions:
REMARK  status: ('A' for Active; 'I' for Inactive)
REMARK    1  A    between atoms: C_1  and  O_2
REMARK    2  A    between atoms: O_2  and  C_3
REMARK    3  A    between atoms: C_3  and  C_4
REMARK    4  A    between atoms: C_4  and  N_5
REMARK    5  A    between atoms: N_5  and  C_6
REMARK    6  A    between atoms: N_5  and  C_7
REMARK    7  A    between atoms: C_7  and  C_8
REMARK    8  A    between atoms: C_7  and  C_11
REMARK    9  A    between atoms: C_8  and  O_10
REMARK                            x       y       z     vdW  Elec       q    Type
REMARK                         _______ _______ _______ _____ _____    ______ ____
ROOT
ATOM      1  C   UNL     1       4.295   4.088  18.902  0.00  0.00    +0.000 C 
ENDROOT
BRANCH   1   2
ATOM      2  C   UNL     1       5.213   4.354  17.712  0.00  0.00    +0.000 A 
ATOM      3  C   UNL     1       6.498   4.893  17.925  0.00  0.00    +0.000 A 
ATOM      4  C   UNL     1       7.354   5.140  16.852  0.00  0.00    +0.000 A 
ATOM      5  C   UNL     1       6.946   4.836  15.558  0.00  0.00    +0.000 A 
ATOM      6  F   UNL     1       7.790   5.068  14.544  0.00  0.00    +0.000 F 
ATOM      7  C   UNL     1       5.684   4.296  15.325  0.00  0.00    +0.000 A 
ATOM      8 CL   UNL     1       5.177   3.905  13.726  0.00  0.00    +0.000 Cl
ATOM      9  C   UNL     1       4.819   4.072  16.388  0.00  0.00    +0.000 A 
ENDBRANCH   1   2
BRANCH   1  10
ATOM     10  N   UNL     1       2.919   4.726  18.831  0.00  0.00    +0.000 NA
ATOM     11  C   UNL     1       2.966   6.086  18.271  0.00  0.00    +0.000 C 
BRANCH  10  12
ATOM     12  C   UNL     1       2.286   4.752  20.183  0.00  0.00    +0.000 C 
BRANCH  12  13
ATOM     13  C   UNL     1       0.880   4.126  20.290  0.00  0.00    +0.000 C 
BRANCH  13  15
ATOM     14  C   UNL     1       1.698   2.555  21.850  0.00  0.00    +0.000 C 
ATOM     15  O   UNL     1       1.008   2.736  20.617  0.00  0.00    +0.000 OA
ENDBRANCH  13  15
ENDBRANCH  12  13
ENDBRANCH  10  12
ENDBRANCH   1  10
BRANCH   1  16
ATOM     16  C   UNL     1       4.188   2.576  19.272  0.00  0.00    +0.000 C 
ATOM     17  O   UNL     1       4.859   1.996  20.116  0.00  0.00    +0.000 OA
BRANCH  16  18
ATOM     18  O   UNL     1       3.204   1.942  18.583  0.00  0.00    +0.000 OA
ATOM     19  H   UNL     1       3.625   1.293  17.977  0.00  0.00    +0.000 HD
ENDBRANCH  16  18
ENDBRANCH   1  16
TORSDOF 7
ENDMDL
MODEL 3
REMARK VINA RESULT:      -6.0      3.767      5.899
REMARK  Name = 
REMARK  9 active torsions:
REMARK  status: ('A' for Active; 'I' for Inactive)
REMARK    1  A    between atoms: C_1  and  O_2
REMARK    2  A    between atoms: O_2  and  C_3
REMARK    3  A    between atoms: C_3  and  C_4
REMARK    4  A    between atoms: C_4  and  N_5
REMARK    5  A    between atoms: N_5  and  C_6
REMARK    6  A    between atoms: N_5  and  C_7
REMARK    7  A    between atoms: C_7  and  C_8
REMARK    8  A    between atoms: C_7  and  C_11
REMARK    9  A    between atoms: C_8  and  O_10
REMARK                            x       y       z     vdW  Elec       q    Type
REMARK                         _______ _______ _______ _____ _____    ______ ____
ROOT
ATOM      1  C   UNL     1       6.264   4.975  17.673  0.00  0.00    +0.000 C 
ENDROOT
BRANCH   1   2
ATOM      2  C   UNL     1       4.812   4.711  18.061  0.00  0.00    +0.000 A 
ATOM      3  C   UNL     1       4.148   3.574  17.558  0.00  0.00    +0.000 A 
ATOM      4  C   UNL     1       2.822   3.311  17.904  0.00  0.00    +0.000 A 
ATOM      5  C   UNL     1       2.150   4.170  18.767  0.00  0.00    +0.000 A 
ATOM      6  F   UNL     1       0.882   3.891  19.097  0.00  0.00    +0.000 F 
ATOM      7  C   UNL     1       2.789   5.296  19.281  0.00  0.00    +0.000 A 
ATOM      8 CL   UNL     1       1.966   6.356  20.360  0.00  0.00    +0.000 Cl
ATOM      9  C   UNL     1       4.101   5.574  18.920  0.00  0.00    +0.000 A 
ENDBRANCH   1   2
BRANCH   1  10
ATOM     10  N   UNL     1       6.477   5.672  16.340  0.00  0.00    +0.000 NA
ATOM     11  C   UNL     1       5.235   6.269  15.822  0.00  0.00    +0.000 C 
BRANCH  10  12
ATOM     12  C   UNL     1       7.043   4.721  15.339  0.00  0.00    +0.000 C 
BRANCH  12  13
ATOM     13  C   UNL     1       6.029   4.025  14.408  0.00  0.00    +0.000 C 
BRANCH  13  15
ATOM     14  C   UNL     1       5.691   3.285  12.192  0.00  0.00    +0.000 C 
ATOM     15  O   UNL     1       6.593   3.920  13.093  0.00  0.00    +0.000 OA
ENDBRANCH  13  15
ENDBRANCH  12  13
ENDBRANCH  10  12
ENDBRANCH   1  10
BRANCH   1  16
ATOM     16  C   UNL     1       7.087   5.671  18.801  0.00  0.00    +0.000 C 
ATOM     17  O   UNL     1       7.188   5.282  19.958  0.00  0.00    +0.000 OA
BRANCH  16  18
ATOM     18  O   UNL     1       7.755   6.766  18.356  0.00  0.00    +0.000 OA
ATOM     19  H   UNL     1       8.261   6.511  17.554  0.00  0.00    +0.000 HD
ENDBRANCH  16  18
ENDBRANCH   1  16
TORSDOF 7
ENDMDL
MODEL 4
REMARK VINA RESULT:      -6.0      1.201      1.686
REMARK  Name = 
REMARK  9 active torsions:
REMARK  status: ('A' for Active; 'I' for Inactive)
REMARK    1  A    between atoms: C_1  and  O_2
REMARK    2  A    between atoms: O_2  and  C_3
REMARK    3  A    between atoms: C_3  and  C_4
REMARK    4  A    between atoms: C_4  and  N_5
REMARK    5  A    between atoms: N_5  and  C_6
REMARK    6  A    between atoms: N_5  and  C_7
REMARK    7  A    between atoms: C_7  and  C_8
REMARK    8  A    between atoms: C_7  and  C_11
REMARK    9  A    between atoms: C_8  and  O_10
REMARK                            x       y       z     vdW  Elec       q    Type
REMARK                         _______ _______ _______ _____ _____    ______ ____
ROOT
ATOM      1  C   UNL     1       3.734   3.479  18.889  0.00  0.00    +0.000 C 
ENDROOT
BRANCH   1   2
ATOM      2  C   UNL     1       4.823   4.295  18.198  0.00  0.00    +0.000 A 
ATOM      3  C   UNL     1       5.495   5.309  18.909  0.00  0.00    +0.000 A 
ATOM      4  C   UNL     1       6.496   6.065  18.297  0.00  0.00    +0.000 A 
ATOM      5  C   UNL     1       6.850   5.805  16.978  0.00  0.00    +0.000 A 
ATOM      6  F   UNL     1       7.824   6.532  16.416  0.00  0.00    +0.000 F 
ATOM      7  C   UNL     1       6.204   4.802  16.259  0.00  0.00    +0.000 A 
ATOM      8 CL   UNL     1       6.645   4.467  14.628  0.00  0.00    +0.000 Cl
ATOM      9  C   UNL     1       5.189   4.065  16.856  0.00  0.00    +0.000 A 
ENDBRANCH   1   2
BRANCH   1  10
ATOM     10  N   UNL     1       2.333   3.631  18.323  0.00  0.00    +0.000 NA
ATOM     11  C   UNL     1       2.066   5.004  17.865  0.00  0.00    +0.000 C 
BRANCH  10  12
ATOM     12  C   UNL     1       1.314   3.223  19.335  0.00  0.00    +0.000 C 
BRANCH  12  13
ATOM     13  C   UNL     1       1.034   4.232  20.467  0.00  0.00    +0.000 C 
BRANCH  13  15
ATOM     14  C   UNL     1       1.762   2.464  21.850  0.00  0.00    +0.000 C 
ATOM     15  O   UNL     1       1.803   3.869  21.621  0.00  0.00    +0.000 OA
ENDBRANCH  13  15
ENDBRANCH  12  13
ENDBRANCH  10  12
ENDBRANCH   1  10
BRANCH   1  16
ATOM     16  C   UNL     1       4.105   1.972  19.055  0.00  0.00    +0.000 C 
ATOM     17  O   UNL     1       3.678   1.050  18.372  0.00  0.00    +0.000 OA
BRANCH  16  18
ATOM     18  O   UNL     1       5.026   1.769  20.032  0.00  0.00    +0.000 OA
ATOM     19  H   UNL     1       5.900   1.629  19.604  0.00  0.00    +0.000 HD
ENDBRANCH  16  18
ENDBRANCH   1  16
TORSDOF 7
ENDMDL
MODEL 5
REMARK VINA RESULT:      -6.0      3.745      5.581
REMARK  Name = 
REMARK  9 active torsions:
REMARK  status: ('A' for Active; 'I' for Inactive)
REMARK    1  A    between atoms: C_1  and  O_2
REMARK    2  A    between atoms: O_2  and  C_3
REMARK    3  A    between atoms: C_3  and  C_4
REMARK    4  A    between atoms: C_4  and  N_5
REMARK    5  A    between atoms: N_5  and  C_6
REMARK    6  A    between atoms: N_5  and  C_7
REMARK    7  A    between atoms: C_7  and  C_8
REMARK    8  A    between atoms: C_7  and  C_11
REMARK    9  A    between atoms: C_8  and  O_10
REMARK                            x       y       z     vdW  Elec       q    Type
REMARK                         _______ _______ _______ _____ _____    ______ ____
ROOT
ATOM      1  C   UNL     1       5.169   4.994  17.875  0.00  0.00    +0.000 C 
ENDROOT
BRANCH   1   2
ATOM      2  C   UNL     1       4.085   4.024  18.337  0.00  0.00    +0.000 A 
ATOM      3  C   UNL     1       3.457   3.179  17.401  0.00  0.00    +0.000 A 
ATOM      4  C   UNL     1       2.466   2.282  17.803  0.00  0.00    +0.000 A 
ATOM      5  C   UNL     1       2.105   2.206  19.144  0.00  0.00    +0.000 A 
ATOM      6  F   UNL     1       1.162   1.328  19.509  0.00  0.00    +0.000 F 
ATOM      7  C   UNL     1       2.718   3.027  20.087  0.00  0.00    +0.000 A 
ATOM      8 CL   UNL     1       2.284   2.930  21.751  0.00  0.00    +0.000 Cl
ATOM      9  C   UNL     1       3.686   3.939  19.687  0.00  0.00    +0.000 A 
ENDBRANCH   1   2
BRANCH   1  10
ATOM     10  N   UNL     1       4.757   6.453  17.786  0.00  0.00    +0.000 NA
ATOM     11  C   UNL     1       3.305   6.630  17.941  0.00  0.00    +0.000 C 
BRANCH  10  12
ATOM     12  C   UNL     1       5.209   7.044  16.492  0.00  0.00    +0.000 C 
BRANCH  12  13
ATOM     13  C   UNL     1       5.347   6.066  15.306  0.00  0.00    +0.000 C 
BRANCH  13  15
ATOM     14  C   UNL     1       6.855   4.458  14.462  0.00  0.00    +0.000 C 
ATOM     15  O   UNL     1       6.724   5.689  15.167  0.00  0.00    +0.000 OA
ENDBRANCH  13  15
ENDBRANCH  12  13
ENDBRANCH  10  12
ENDBRANCH   1  10
BRANCH   1  16
ATOM     16  C   UNL     1       6.508   4.842  18.662  0.00  0.00    +0.000 C 
ATOM     17  O   UNL     1       6.708   5.210  19.813  0.00  0.00    +0.000 OA
BRANCH  16  18
ATOM     18  O   UNL     1       7.459   4.187  17.948  0.00  0.00    +0.000 OA
ATOM     19  H   UNL     1       7.007   3.576  17.325  0.00  0.00    +0.000 HD
ENDBRANCH  16  18
ENDBRANCH   1  16
TORSDOF 7
ENDMDL
MODEL 6
REMARK VINA RESULT:      -6.0      1.556      1.914
REMARK  Name = 
REMARK  9 active torsions:
REMARK  status: ('A' for Active; 'I' for Inactive)
REMARK    1  A    between atoms: C_1  and  O_2
REMARK    2  A    between atoms: O_2  and  C_3
REMARK    3  A    between atoms: C_3  and  C_4
REMARK    4  A    between atoms: C_4  and  N_5
REMARK    5  A    between atoms: N_5  and  C_6
REMARK    6  A    between atoms: N_5  and  C_7
REMARK    7  A    between atoms: C_7  and  C_8
REMARK    8  A    between atoms: C_7  and  C_11
REMARK    9  A    between atoms: C_8  and  O_10
REMARK                            x       y       z     vdW  Elec       q    Type
REMARK                         _______ _______ _______ _____ _____    ______ ____
ROOT
ATOM      1  C   UNL     1       4.095   4.107  18.109  0.00  0.00    +0.000 C 
ENDROOT
BRANCH   1   2
ATOM      2  C   UNL     1       5.083   4.405  16.985  0.00  0.00    +0.000 A 
ATOM      3  C   UNL     1       6.261   5.128  17.261  0.00  0.00    +0.000 A 
ATOM      4  C   UNL     1       7.180   5.409  16.249  0.00  0.00    +0.000 A 
ATOM      5  C   UNL     1       6.943   4.957  14.956  0.00  0.00    +0.000 A 
ATOM      6  F   UNL     1       7.845   5.224  14.003  0.00  0.00    +0.000 F 
ATOM      7  C   UNL     1       5.789   4.234  14.661  0.00  0.00    +0.000 A 
ATOM      8 CL   UNL     1       5.495   3.660  13.064  0.00  0.00    +0.000 Cl
ATOM      9  C   UNL     1       4.860   3.975  15.661  0.00  0.00    +0.000 A 
ENDBRANCH   1   2
BRANCH   1  10
ATOM     10  N   UNL     1       2.701   4.682  17.934  0.00  0.00    +0.000 NA
ATOM     11  C   UNL     1       2.673   6.139  18.138  0.00  0.00    +0.000 C 
BRANCH  10  12
ATOM     12  C   UNL     1       1.741   4.017  18.864  0.00  0.00    +0.000 C 
BRANCH  12  13
ATOM     13  C   UNL     1       1.577   4.667  20.254  0.00  0.00    +0.000 C 
BRANCH  13  15
ATOM     14  C   UNL     1       1.964   2.828  21.682  0.00  0.00    +0.000 C 
ATOM     15  O   UNL     1       2.489   4.050  21.172  0.00  0.00    +0.000 OA
ENDBRANCH  13  15
ENDBRANCH  12  13
ENDBRANCH  10  12
ENDBRANCH   1  10
BRANCH   1  16
ATOM     16  C   UNL     1       4.028   2.594  18.484  0.00  0.00    +0.000 C 
ATOM     17  O   UNL     1       3.420   1.729  17.867  0.00  0.00    +0.000 OA
BRANCH  16  18
ATOM     18  O   UNL     1       4.782   2.296  19.574  0.00  0.00    +0.000 OA
ATOM     19  H   UNL     1       4.483   2.865  20.317  0.00  0.00    +0.000 HD
ENDBRANCH  16  18
ENDBRANCH   1  16
TORSDOF 7
ENDMDL
MODEL 7
REMARK VINA RESULT:      -5.9      3.945      6.147
REMARK  Name = 
REMARK  9 active torsions:
REMARK  status: ('A' for Active; 'I' for Inactive)
REMARK    1  A    between atoms: C_1  and  O_2
REMARK    2  A    between atoms: O_2  and  C_3
REMARK    3  A    between atoms: C_3  and  C_4
REMARK    4  A    between atoms: C_4  and  N_5
REMARK    5  A    between atoms: N_5  and  C_6
REMARK    6  A    between atoms: N_5  and  C_7
REMARK    7  A    between atoms: C_7  and  C_8
REMARK    8  A    between atoms: C_7  and  C_11
REMARK    9  A    between atoms: C_8  and  O_10
REMARK                            x       y       z     vdW  Elec       q    Type
REMARK                         _______ _______ _______ _____ _____    ______ ____
ROOT
ATOM      1  C   UNL     1       6.634   5.052  17.566  0.00  0.00    +0.000 C 
ENDROOT
BRANCH   1   2
ATOM      2  C   UNL     1       5.259   4.746  18.153  0.00  0.00    +0.000 A 
ATOM      3  C   UNL     1       4.722   5.582  19.153  0.00  0.00    +0.000 A 
ATOM      4  C   UNL     1       3.465   5.323  19.700  0.00  0.00    +0.000 A 
ATOM      5  C   UNL     1       2.722   4.240  19.243  0.00  0.00    +0.000 A 
ATOM      6  F   UNL     1       1.512   4.018  19.772  0.00  0.00    +0.000 F 
ATOM      7  C   UNL     1       3.230   3.404  18.251  0.00  0.00    +0.000 A 
ATOM      8 CL   UNL     1       2.311   2.068  17.672  0.00  0.00    +0.000 Cl
ATOM      9  C   UNL     1       4.492   3.644  17.722  0.00  0.00    +0.000 A 
ENDBRANCH   1   2
BRANCH   1  10
ATOM     10  N   UNL     1       6.637   5.718  16.202  0.00  0.00    +0.000 NA
ATOM     11  C   UNL     1       5.309   6.229  15.831  0.00  0.00    +0.000 C 
BRANCH  10  12
ATOM     12  C   UNL     1       7.130   4.770  15.159  0.00  0.00    +0.000 C 
BRANCH  12  13
ATOM     13  C   UNL     1       6.052   4.098  14.283  0.00  0.00    +0.000 C 
BRANCH  13  15
ATOM     14  C   UNL     1       5.690   3.167  12.145  0.00  0.00    +0.000 C 
ATOM     15  O   UNL     1       6.540   3.988  12.939  0.00  0.00    +0.000 OA
ENDBRANCH  13  15
ENDBRANCH  12  13
ENDBRANCH  10  12
ENDBRANCH   1  10
BRANCH   1  16
ATOM     16  C   UNL     1       7.572   5.808  18.557  0.00  0.00    +0.000 C 
ATOM     17  O   UNL     1       8.108   5.326  19.546  0.00  0.00    +0.000 OA
BRANCH  16  18
ATOM     18  O   UNL     1       7.797   7.093  18.180  0.00  0.00    +0.000 OA
ATOM     19  H   UNL     1       7.638   7.673  18.957  0.00  0.00    +0.000 HD
ENDBRANCH  16  18
ENDBRANCH   1  16
TORSDOF 7
ENDMDL
MODEL 8
REMARK VINA RESULT:      -5.9      3.716      5.683
REMARK  Name = 
REMARK  9 active torsions:
REMARK  status: ('A' for Active; 'I' for Inactive)
REMARK    1  A    between atoms: C_1  and  O_2
REMARK    2  A    between atoms: O_2  and  C_3
REMARK    3  A    between atoms: C_3  and  C_4
REMARK    4  A    between atoms: C_4  and  N_5
REMARK    5  A    between atoms: N_5  and  C_6
REMARK    6  A    between atoms: N_5  and  C_7
REMARK    7  A    between atoms: C_7  and  C_8
REMARK    8  A    between atoms: C_7  and  C_11
REMARK    9  A    between atoms: C_8  and  O_10
REMARK                            x       y       z     vdW  Elec       q    Type
REMARK                         _______ _______ _______ _____ _____    ______ ____
ROOT
ATOM      1  C   UNL     1       5.487   4.888  17.564  0.00  0.00    +0.000 C 
ENDROOT
BRANCH   1   2
ATOM      2  C   UNL     1       4.200   4.248  18.077  0.00  0.00    +0.000 A 
ATOM      3  C   UNL     1       3.368   3.537  17.188  0.00  0.00    +0.000 A 
ATOM      4  C   UNL     1       2.189   2.941  17.637  0.00  0.00    +0.000 A 
ATOM      5  C   UNL     1       1.837   3.032  18.979  0.00  0.00    +0.000 A 
ATOM      6  F   UNL     1       0.709   2.439  19.391  0.00  0.00    +0.000 F 
ATOM      7  C   UNL     1       2.648   3.723  19.877  0.00  0.00    +0.000 A 
ATOM      8 CL   UNL     1       2.223   3.829  21.542  0.00  0.00    +0.000 Cl
ATOM      9  C   UNL     1       3.809   4.339  19.429  0.00  0.00    +0.000 A 
ENDBRANCH   1   2
BRANCH   1  10
ATOM     10  N   UNL     1       5.338   6.265  16.942  0.00  0.00    +0.000 NA
ATOM     11  C   UNL     1       4.126   6.956  17.408  0.00  0.00    +0.000 C 
BRANCH  10  12
ATOM     12  C   UNL     1       5.330   6.167  15.452  0.00  0.00    +0.000 C 
BRANCH  12  13
ATOM     13  C   UNL     1       6.201   5.052  14.837  0.00  0.00    +0.000 C 
BRANCH  13  15
ATOM     14  C   UNL     1       6.163   3.604  12.973  0.00  0.00    +0.000 C 
ATOM     15  O   UNL     1       5.386   4.234  13.987  0.00  0.00    +0.000 OA
ENDBRANCH  13  15
ENDBRANCH  12  13
ENDBRANCH  10  12
ENDBRANCH   1  10
BRANCH   1  16
ATOM     16  C   UNL     1       6.643   4.873  18.612  0.00  0.00    +0.000 C 
ATOM     17  O   UNL     1       6.595   5.352  19.737  0.00  0.00    +0.000 OA
BRANCH  16  18
ATOM     18  O   UNL     1       7.738   4.205  18.167  0.00  0.00    +0.000 OA
ATOM     19  H   UNL     1       8.325   4.034  18.936  0.00  0.00    +0.000 HD
ENDBRANCH  16  18
ENDBRANCH   1  16
TORSDOF 7
ENDMDL
MODEL 9
REMARK VINA RESULT:      -5.9      4.012      5.812
REMARK  Name = 
REMARK  9 active torsions:
REMARK  status: ('A' for Active; 'I' for Inactive)
REMARK    1  A    between atoms: C_1  and  O_2
REMARK    2  A    between atoms: O_2  and  C_3
REMARK    3  A    between atoms: C_3  and  C_4
REMARK    4  A    between atoms: C_4  and  N_5
REMARK    5  A    between atoms: N_5  and  C_6
REMARK    6  A    between atoms: N_5  and  C_7
REMARK    7  A    between atoms: C_7  and  C_8
REMARK    8  A    between atoms: C_7  and  C_11
REMARK    9  A    between atoms: C_8  and  O_10
REMARK                            x       y       z     vdW  Elec       q    Type
REMARK                         _______ _______ _______ _____ _____    ______ ____
ROOT
ATOM      1  C   UNL     1       6.169   5.218  17.590  0.00  0.00    +0.000 C 
ENDROOT
BRANCH   1   2
ATOM      2  C   UNL     1       4.904   4.501  18.054  0.00  0.00    +0.000 A 
ATOM      3  C   UNL     1       4.375   3.446  17.284  0.00  0.00    +0.000 A 
ATOM      4  C   UNL     1       3.222   2.774  17.692  0.00  0.00    +0.000 A 
ATOM      5  C   UNL     1       2.594   3.136  18.879  0.00  0.00    +0.000 A 
ATOM      6  F   UNL     1       1.497   2.469  19.258  0.00  0.00    +0.000 F 
ATOM      7  C   UNL     1       3.103   4.172  19.658  0.00  0.00    +0.000 A 
ATOM      8 CL   UNL     1       2.338   4.618  21.135  0.00  0.00    +0.000 Cl
ATOM      9  C   UNL     1       4.237   4.859  19.243  0.00  0.00    +0.000 A 
ENDBRANCH   1   2
BRANCH   1  10
ATOM     10  N   UNL     1       6.057   6.725  17.437  0.00  0.00    +0.000 NA
ATOM     11  C   UNL     1       5.045   7.107  16.439  0.00  0.00    +0.000 C 
BRANCH  10  12
ATOM     12  C   UNL     1       7.380   7.312  17.073  0.00  0.00    +0.000 C 
BRANCH  12  13
ATOM     13  C   UNL     1       7.686   8.712  17.644  0.00  0.00    +0.000 C 
BRANCH  13  15
ATOM     14  C   UNL     1       9.123   9.866  19.119  0.00  0.00    +0.000 C 
ATOM     15  O   UNL     1       8.650   8.590  18.698  0.00  0.00    +0.000 OA
ENDBRANCH  13  15
ENDBRANCH  12  13
ENDBRANCH  10  12
ENDBRANCH   1  10
BRANCH   1  16
ATOM     16  C   UNL     1       7.433   4.837  18.422  0.00  0.00    +0.000 C 
ATOM     17  O   UNL     1       7.659   5.176  19.577  0.00  0.00    +0.000 OA
BRANCH  16  18
ATOM     18  O   UNL     1       8.273   4.015  17.743  0.00  0.00    +0.000 OA
ATOM     19  H   UNL     1       8.967   4.568  17.320  0.00  0.00    +0.000 HD
ENDBRANCH  16  18
ENDBRANCH   1  16
TORSDOF 7
ENDMDL
