MODEL 1
REMARK VINA RESULT:      -7.7      0.000      0.000
REMARK  Name = 
REMARK  17 active torsions:
REMARK  status: ('A' for Active; 'I' for Inactive)
REMARK    1  A    between atoms: C_1  and  C_2
REMARK    2  A    between atoms: C_2  and  C_3
REMARK    3  A    between atoms: C_2  and  C_4
REMARK    4  A    between atoms: C_4  and  C_5
REMARK    5  A    between atoms: C_5  and  C_6
REMARK    6  A    between atoms: C_5  and  C_19
REMARK    7  A    between atoms: C_6  and  P_7
REMARK    8  A    between atoms: P_7  and  O_9
REMARK    9  A    between atoms: P_7  and  C_10
REMARK   10  A    between atoms: C_10  and  N_11
REMARK   11  A    between atoms: C_10  and  C_12
REMARK   12  A    between atoms: C_12  and  C_13
REMARK   13  A    between atoms: N_21  and  CA_22
REMARK   14  A    between atoms: CA_22  and  CB_23
REMARK   15  A    between atoms: CA_22  and  C_30
REMARK   16  A    between atoms: CB_23  and  CG_24
REMARK   17  A    between atoms: C_30  and  OXT_32
REMARK                            x       y       z     vdW  Elec       q    Type
REMARK                         _______ _______ _______ _____ _____    ______ ____
ROOT
ATOM      1  C   UNK A   0       2.615   5.809  19.431  0.00  0.00    +0.000 C 
ENDROOT
BRANCH   1   2
ATOM      2  C   UNK A   0       2.204   7.266  19.517  0.00  0.00    +0.000 C 
ATOM      3  O   UNK A   0       2.356   8.057  18.586  0.00  0.00    +0.000 OA
ATOM      4  N   PHE A   1       1.734   7.645  20.745  0.00  0.00    +0.000 N 
ATOM      5  H   PHE A   1       1.545   6.949  21.456  0.00  0.00    +0.000 HD
BRANCH   4   6
ATOM      6  CA  PHE A   1       1.238   8.994  21.011  0.00  0.00    +0.000 C 
BRANCH   6   7
ATOM      7  C   PHE A   1       1.379   9.293  22.515  0.00  0.00    +0.000 C 
ATOM      8  O   PHE A   1       0.466   9.591  23.265  0.00  0.00    +0.000 OA
BRANCH   7   9
ATOM      9  OXT PHE A   1       2.681   9.288  22.925  0.00  0.00    +0.000 OA
ATOM     10  HXT PHE A   1       2.807   9.388  23.904  0.00  0.00    +0.000 HD
ENDBRANCH   7   9
ENDBRANCH   6   7
BRANCH   6  11
ATOM     11  CB  PHE A   1      -0.177   9.225  20.467  0.00  0.00    +0.000 C 
BRANCH  11  12
ATOM     12  CG  PHE A   1      -0.378  10.479  19.649  0.00  0.00    +0.000 A 
ATOM     13  CD1 PHE A   1      -1.418  10.510  18.705  0.00  0.00    +0.000 A 
ATOM     14  CE1 PHE A   1      -1.668  11.665  17.958  0.00  0.00    +0.000 A 
ATOM     15  CZ  PHE A   1      -0.876  12.795  18.133  0.00  0.00    +0.000 A 
ATOM     16  CE2 PHE A   1       0.161  12.780  19.059  0.00  0.00    +0.000 A 
ATOM     17  CD2 PHE A   1       0.390  11.637  19.824  0.00  0.00    +0.000 A 
ENDBRANCH  11  12
ENDBRANCH   6  11
ENDBRANCH   4   6
ENDBRANCH   1   2
BRANCH   1  18
ATOM     18  C   UNK A   0       2.235   5.202  18.047  0.00  0.00    +0.000 C 
BRANCH  18  20
ATOM     19  C   UNK A   0       2.444   2.679  17.514  0.00  0.00    +0.000 C 
ATOM     20  C   UNK A   0       1.538   3.820  17.979  0.00  0.00    +0.000 C 
ATOM     21  C   UNK A   0       0.965   3.437  19.359  0.00  0.00    +0.000 C 
ENDBRANCH  18  20
ENDBRANCH   1  18
BRANCH   1  22
ATOM     22  C   UNK A   0       4.099   5.848  19.764  0.00  0.00    +0.000 C 
BRANCH  22  23
ATOM     23  P   UNK A   0       5.177   5.344  18.374  0.00  0.00    +0.000 P 
ATOM     24  O   UNK A   0       5.427   6.847  18.081  0.00  0.00    +0.000 OA
BRANCH  23  25
ATOM     25  O   UNK A   0       6.333   4.853  19.462  0.00  0.00    +0.000 OA
ATOM     26  H   UNK A   0       7.187   5.330  19.419  0.00  0.00    +0.000 HD
ENDBRANCH  23  25
BRANCH  23  27
ATOM     27  C   UNK A   0       6.256   4.841  16.984  0.00  0.00    +0.000 C 
BRANCH  27  28
ATOM     28  N   UNK A   0       7.374   4.049  17.575  0.00  0.00    +0.000 NA
ATOM     29  H   UNK A   0       7.059   3.070  17.560  0.00  0.00    +0.000 HD
ATOM     30  H   UNK A   0       7.337   4.257  18.583  0.00  0.00    +0.000 HD
ENDBRANCH  27  28
BRANCH  27  31
ATOM     31  C   UNK A   0       5.555   4.011  15.905  0.00  0.00    +0.000 C 
BRANCH  31  32
ATOM     32  C   UNK A   0       6.122   4.157  14.513  0.00  0.00    +0.000 A 
ATOM     33  C   UNK A   0       7.204   5.000  14.226  0.00  0.00    +0.000 A 
ATOM     34  C   UNK A   0       7.708   5.092  12.928  0.00  0.00    +0.000 A 
ATOM     35  C   UNK A   0       7.159   4.320  11.907  0.00  0.00    +0.000 A 
ATOM     36  C   UNK A   0       6.108   3.450  12.186  0.00  0.00    +0.000 A 
ATOM     37  C   UNK A   0       5.594   3.368  13.480  0.00  0.00    +0.000 A 
ENDBRANCH  31  32
ENDBRANCH  27  31
ENDBRANCH  23  27
ENDBRANCH  22  23
ENDBRANCH   1  22
TORSDOF 15
ENDMDL
MODEL 2
REMARK VINA RESULT:      -7.6      1.789      2.592
REMARK  Name = 
REMARK  17 active torsions:
REMARK  status: ('A' for Active; 'I' for Inactive)
REMARK    1  A    between atoms: C_1  and  C_2
REMARK    2  A    between atoms: C_2  and  C_3
REMARK    3  A    between atoms: C_2  and  C_4
REMARK    4  A    between atoms: C_4  and  C_5
REMARK    5  A    between atoms: C_5  and  C_6
REMARK    6  A    between atoms: C_5  and  C_19
REMARK    7  A    between atoms: C_6  and  P_7
REMARK    8  A    between atoms: P_7  and  O_9
REMARK    9  A    between atoms: P_7  and  C_10
REMARK   10  A    between atoms: C_10  and  N_11
REMARK   11  A    between atoms: C_10  and  C_12
REMARK   12  A    between atoms: C_12  and  C_13
REMARK   13  A    between atoms: N_21  and  CA_22
REMARK   14  A    between atoms: CA_22  and  CB_23
REMARK   15  A    between atoms: CA_22  and  C_30
REMARK   16  A    between atoms: CB_23  and  CG_24
REMARK   17  A    between atoms: C_30  and  OXT_32
REMARK                            x       y       z     vdW  Elec       q    Type
REMARK                         _______ _______ _______ _____ _____    ______ ____
ROOT
ATOM      1  C   UNK A   0       2.957   4.970  19.432  0.00  0.00    +0.000 C 
ENDROOT
BRANCH   1   2
ATOM      2  C   UNK A   0       2.139   6.161  19.892  0.00  0.00    +0.000 C 
ATOM      3  O   UNK A   0       1.544   6.184  20.970  0.00  0.00    +0.000 OA
ATOM      4  N   PHE A   1       2.048   7.168  18.971  0.00  0.00    +0.000 N 
ATOM      5  H   PHE A   1       2.619   7.148  18.134  0.00  0.00    +0.000 HD
BRANCH   4   6
ATOM      6  CA  PHE A   1       1.349   8.422  19.248  0.00  0.00    +0.000 C 
BRANCH   6   7
ATOM      7  C   PHE A   1       1.413   9.319  17.999  0.00  0.00    +0.000 C 
ATOM      8  O   PHE A   1       2.415   9.544  17.342  0.00  0.00    +0.000 OA
BRANCH   7   9
ATOM      9  OXT PHE A   1       0.225   9.940  17.742  0.00  0.00    +0.000 OA
ATOM     10  HXT PHE A   1       0.307  10.841  17.336  0.00  0.00    +0.000 HD
ENDBRANCH   7   9
ENDBRANCH   6   7
BRANCH   6  11
ATOM     11  CB  PHE A   1       1.844   9.108  20.526  0.00  0.00    +0.000 C 
BRANCH  11  12
ATOM     12  CG  PHE A   1       0.803   9.861  21.322  0.00  0.00    +0.000 A 
ATOM     13  CD1 PHE A   1       0.206   9.227  22.423  0.00  0.00    +0.000 A 
ATOM     14  CE1 PHE A   1      -0.729   9.901  23.215  0.00  0.00    +0.000 A 
ATOM     15  CZ  PHE A   1      -1.087  11.210  22.908  0.00  0.00    +0.000 A 
ATOM     16  CE2 PHE A   1      -0.509  11.852  21.819  0.00  0.00    +0.000 A 
ATOM     17  CD2 PHE A   1       0.444  11.187  21.049  0.00  0.00    +0.000 A 
ENDBRANCH  11  12
ENDBRANCH   6  11
ENDBRANCH   4   6
ENDBRANCH   1   2
BRANCH   1  18
ATOM     18  C   UNK A   0       2.555   4.539  17.989  0.00  0.00    +0.000 C 
BRANCH  18  20
ATOM     19  C   UNK A   0       2.946   2.012  17.594  0.00  0.00    +0.000 C 
ATOM     20  C   UNK A   0       1.927   3.143  17.751  0.00  0.00    +0.000 C 
ATOM     21  C   UNK A   0       0.982   2.771  18.912  0.00  0.00    +0.000 C 
ENDBRANCH  18  20
ENDBRANCH   1  18
BRANCH   1  22
ATOM     22  C   UNK A   0       4.391   5.443  19.617  0.00  0.00    +0.000 C 
BRANCH  22  23
ATOM     23  P   UNK A   0       5.469   5.103  18.179  0.00  0.00    +0.000 P 
ATOM     24  O   UNK A   0       6.514   6.075  18.789  0.00  0.00    +0.000 OA
BRANCH  23  25
ATOM     25  O   UNK A   0       5.786   3.590  18.787  0.00  0.00    +0.000 OA
ATOM     26  H   UNK A   0       5.471   3.424  19.699  0.00  0.00    +0.000 HD
ENDBRANCH  23  25
BRANCH  23  27
ATOM     27  C   UNK A   0       6.549   4.763  16.741  0.00  0.00    +0.000 C 
BRANCH  27  28
ATOM     28  N   UNK A   0       7.795   4.142  17.278  0.00  0.00    +0.000 NA
ATOM     29  H   UNK A   0       8.347   3.871  16.454  0.00  0.00    +0.000 HD
ATOM     30  H   UNK A   0       7.497   3.223  17.633  0.00  0.00    +0.000 HD
ENDBRANCH  27  28
BRANCH  27  31
ATOM     31  C   UNK A   0       5.930   3.839  15.687  0.00  0.00    +0.000 C 
BRANCH  31  32
ATOM     32  C   UNK A   0       6.393   4.082  14.270  0.00  0.00    +0.000 A 
ATOM     33  C   UNK A   0       7.377   5.026  13.951  0.00  0.00    +0.000 A 
ATOM     34  C   UNK A   0       7.787   5.206  12.629  0.00  0.00    +0.000 A 
ATOM     35  C   UNK A   0       7.243   4.423  11.614  0.00  0.00    +0.000 A 
ATOM     36  C   UNK A   0       6.291   3.455  11.922  0.00  0.00    +0.000 A 
ATOM     37  C   UNK A   0       5.869   3.284  13.242  0.00  0.00    +0.000 A 
ENDBRANCH  31  32
ENDBRANCH  27  31
ENDBRANCH  23  27
ENDBRANCH  22  23
ENDBRANCH   1  22
TORSDOF 15
ENDMDL
MODEL 3
REMARK VINA RESULT:      -7.6      1.048      1.398
REMARK  Name = 
REMARK  17 active torsions:
REMARK  status: ('A' for Active; 'I' for Inactive)
REMARK    1  A    between atoms: C_1  and  C_2
REMARK    2  A    between atoms: C_2  and  C_3
REMARK    3  A    between atoms: C_2  and  C_4
REMARK    4  A    between atoms: C_4  and  C_5
REMARK    5  A    between atoms: C_5  and  C_6
REMARK    6  A    between atoms: C_5  and  C_19
REMARK    7  A    between atoms: C_6  and  P_7
REMARK    8  A    between atoms: P_7  and  O_9
REMARK    9  A    between atoms: P_7  and  C_10
REMARK   10  A    between atoms: C_10  and  N_11
REMARK   11  A    between atoms: C_10  and  C_12
REMARK   12  A    between atoms: C_12  and  C_13
REMARK   13  A    between atoms: N_21  and  CA_22
REMARK   14  A    between atoms: CA_22  and  CB_23
REMARK   15  A    between atoms: CA_22  and  C_30
REMARK   16  A    between atoms: CB_23  and  CG_24
REMARK   17  A    between atoms: C_30  and  OXT_32
REMARK                            x       y       z     vdW  Elec       q    Type
REMARK                         _______ _______ _______ _____ _____    ______ ____
ROOT
ATOM      1  C   UNK A   0       2.304   5.865  19.721  0.00  0.00    +0.000 C 
ENDROOT
BRANCH   1   2
ATOM      2  C   UNK A   0       2.033   7.352  19.842  0.00  0.00    +0.000 C 
ATOM      3  O   UNK A   0       2.345   8.160  18.967  0.00  0.00    +0.000 OA
ATOM      4  N   PHE A   1       1.494   7.728  21.042  0.00  0.00    +0.000 N 
ATOM      5  H   PHE A   1       1.174   7.027  21.700  0.00  0.00    +0.000 HD
BRANCH   4   6
ATOM      6  CA  PHE A   1       1.111   9.109  21.330  0.00  0.00    +0.000 C 
BRANCH   6   7
ATOM      7  C   PHE A   1       1.292   9.376  22.836  0.00  0.00    +0.000 C 
ATOM      8  O   PHE A   1       0.400   9.665  23.614  0.00  0.00    +0.000 OA
BRANCH   7   9
ATOM      9  OXT PHE A   1       2.603   9.354  23.213  0.00  0.00    +0.000 OA
ATOM     10  HXT PHE A   1       3.098   8.538  22.946  0.00  0.00    +0.000 HD
ENDBRANCH   7   9
ENDBRANCH   6   7
BRANCH   6  11
ATOM     11  CB  PHE A   1      -0.286   9.460  20.806  0.00  0.00    +0.000 C 
BRANCH  11  12
ATOM     12  CG  PHE A   1      -0.455  10.853  20.246  0.00  0.00    +0.000 A 
ATOM     13  CD1 PHE A   1      -1.133  11.812  21.016  0.00  0.00    +0.000 A 
ATOM     14  CE1 PHE A   1      -1.274  13.126  20.557  0.00  0.00    +0.000 A 
ATOM     15  CZ  PHE A   1      -0.753  13.492  19.320  0.00  0.00    +0.000 A 
ATOM     16  CE2 PHE A   1      -0.083  12.554  18.543  0.00  0.00    +0.000 A 
ATOM     17  CD2 PHE A   1       0.081  11.252  19.016  0.00  0.00    +0.000 A 
ENDBRANCH  11  12
ENDBRANCH   6  11
ENDBRANCH   4   6
ENDBRANCH   1   2
BRANCH   1  18
ATOM     18  C   UNK A   0       1.220   5.035  20.472  0.00  0.00    +0.000 C 
BRANCH  18  20
ATOM     19  C   UNK A   0       0.867   2.743  19.326  0.00  0.00    +0.000 C 
ATOM     20  C   UNK A   0       1.358   3.495  20.564  0.00  0.00    +0.000 C 
ATOM     21  C   UNK A   0       2.829   3.099  20.808  0.00  0.00    +0.000 C 
ENDBRANCH  18  20
ENDBRANCH   1  18
BRANCH   1  22
ATOM     22  C   UNK A   0       2.391   5.652  18.217  0.00  0.00    +0.000 C 
BRANCH  22  23
ATOM     23  P   UNK A   0       4.056   5.158  17.640  0.00  0.00    +0.000 P 
ATOM     24  O   UNK A   0       4.161   6.526  16.915  0.00  0.00    +0.000 OA
BRANCH  23  25
ATOM     25  O   UNK A   0       4.642   5.367  19.180  0.00  0.00    +0.000 OA
ATOM     26  H   UNK A   0       5.258   6.118  19.301  0.00  0.00    +0.000 HD
ENDBRANCH  23  25
BRANCH  23  27
ATOM     27  C   UNK A   0       5.721   4.665  17.061  0.00  0.00    +0.000 C 
BRANCH  27  28
ATOM     28  N   UNK A   0       6.459   4.166  18.258  0.00  0.00    +0.000 NA
ATOM     29  H   UNK A   0       7.446   4.408  18.096  0.00  0.00    +0.000 HD
ATOM     30  H   UNK A   0       6.481   3.143  18.144  0.00  0.00    +0.000 HD
ENDBRANCH  27  28
BRANCH  27  31
ATOM     31  C   UNK A   0       5.722   3.588  15.973  0.00  0.00    +0.000 C 
BRANCH  31  32
ATOM     32  C   UNK A   0       6.293   4.020  14.643  0.00  0.00    +0.000 A 
ATOM     33  C   UNK A   0       7.279   5.009  14.533  0.00  0.00    +0.000 A 
ATOM     34  C   UNK A   0       7.791   5.365  13.285  0.00  0.00    +0.000 A 
ATOM     35  C   UNK A   0       7.350   4.716  12.135  0.00  0.00    +0.000 A 
ATOM     36  C   UNK A   0       6.398   3.705  12.234  0.00  0.00    +0.000 A 
ATOM     37  C   UNK A   0       5.873   3.358  13.479  0.00  0.00    +0.000 A 
ENDBRANCH  31  32
ENDBRANCH  27  31
ENDBRANCH  23  27
ENDBRANCH  22  23
ENDBRANCH   1  22
TORSDOF 15
ENDMDL
MODEL 4
REMARK VINA RESULT:      -7.5      1.091      1.566
REMARK  Name = 
REMARK  17 active torsions:
REMARK  status: ('A' for Active; 'I' for Inactive)
REMARK    1  A    between atoms: C_1  and  C_2
REMARK    2  A    between atoms: C_2  and  C_3
REMARK    3  A    between atoms: C_2  and  C_4
REMARK    4  A    between atoms: C_4  and  C_5
REMARK    5  A    between atoms: C_5  and  C_6
REMARK    6  A    between atoms: C_5  and  C_19
REMARK    7  A    between atoms: C_6  and  P_7
REMARK    8  A    between atoms: P_7  and  O_9
REMARK    9  A    between atoms: P_7  and  C_10
REMARK   10  A    between atoms: C_10  and  N_11
REMARK   11  A    between atoms: C_10  and  C_12
REMARK   12  A    between atoms: C_12  and  C_13
REMARK   13  A    between atoms: N_21  and  CA_22
REMARK   14  A    between atoms: CA_22  and  CB_23
REMARK   15  A    between atoms: CA_22  and  C_30
REMARK   16  A    between atoms: CB_23  and  CG_24
REMARK   17  A    between atoms: C_30  and  OXT_32
REMARK                            x       y       z     vdW  Elec       q    Type
REMARK                         _______ _______ _______ _____ _____    ______ ____
ROOT
ATOM      1  C   UNK A   0       2.397   5.741  19.853  0.00  0.00    +0.000 C 
ENDROOT
BRANCH   1   2
ATOM      2  C   UNK A   0       2.086   7.224  19.905  0.00  0.00    +0.000 C 
ATOM      3  O   UNK A   0       2.353   7.994  18.981  0.00  0.00    +0.000 OA
ATOM      4  N   PHE A   1       1.565   7.647  21.097  0.00  0.00    +0.000 N 
ATOM      5  H   PHE A   1       1.281   6.973  21.798  0.00  0.00    +0.000 HD
BRANCH   4   6
ATOM      6  CA  PHE A   1       1.150   9.030  21.324  0.00  0.00    +0.000 C 
BRANCH   6   7
ATOM      7  C   PHE A   1       1.479   9.422  22.776  0.00  0.00    +0.000 C 
ATOM      8  O   PHE A   1       2.575   9.329  23.301  0.00  0.00    +0.000 OA
BRANCH   7   9
ATOM      9  OXT PHE A   1       0.371   9.804  23.475  0.00  0.00    +0.000 OA
ATOM     10  HXT PHE A   1      -0.171  10.510  23.039  0.00  0.00    +0.000 HD
ENDBRANCH   7   9
ENDBRANCH   6   7
BRANCH   6  11
ATOM     11  CB  PHE A   1      -0.311   9.284  20.933  0.00  0.00    +0.000 C 
BRANCH  11  12
ATOM     12  CG  PHE A   1      -0.563  10.477  20.041  0.00  0.00    +0.000 A 
ATOM     13  CD1 PHE A   1      -1.121  10.264  18.770  0.00  0.00    +0.000 A 
ATOM     14  CE1 PHE A   1      -1.413  11.342  17.929  0.00  0.00    +0.000 A 
ATOM     15  CZ  PHE A   1      -1.138  12.643  18.342  0.00  0.00    +0.000 A 
ATOM     16  CE2 PHE A   1      -0.581  12.871  19.594  0.00  0.00    +0.000 A 
ATOM     17  CD2 PHE A   1      -0.319  11.796  20.443  0.00  0.00    +0.000 A 
ENDBRANCH  11  12
ENDBRANCH   6  11
ENDBRANCH   4   6
ENDBRANCH   1   2
BRANCH   1  18
ATOM     18  C   UNK A   0       1.384   4.927  20.714  0.00  0.00    +0.000 C 
BRANCH  18  20
ATOM     19  C   UNK A   0       0.865   2.781  19.367  0.00  0.00    +0.000 C 
ATOM     20  C   UNK A   0       1.406   3.379  20.667  0.00  0.00    +0.000 C 
ATOM     21  C   UNK A   0       2.842   2.852  20.868  0.00  0.00    +0.000 C 
ENDBRANCH  18  20
ENDBRANCH   1  18
BRANCH   1  22
ATOM     22  C   UNK A   0       2.403   5.441  18.362  0.00  0.00    +0.000 C 
BRANCH  22  23
ATOM     23  P   UNK A   0       4.062   5.045  17.699  0.00  0.00    +0.000 P 
ATOM     24  O   UNK A   0       3.381   4.073  16.699  0.00  0.00    +0.000 OA
BRANCH  23  25
ATOM     25  O   UNK A   0       4.120   6.539  16.975  0.00  0.00    +0.000 OA
ATOM     26  H   UNK A   0       3.410   7.163  17.232  0.00  0.00    +0.000 HD
ENDBRANCH  23  25
BRANCH  23  27
ATOM     27  C   UNK A   0       5.720   4.647  17.034  0.00  0.00    +0.000 C 
BRANCH  27  28
ATOM     28  N   UNK A   0       6.540   4.171  18.187  0.00  0.00    +0.000 NA
ATOM     29  H   UNK A   0       6.246   4.743  18.990  0.00  0.00    +0.000 HD
ATOM     30  H   UNK A   0       7.483   4.544  18.009  0.00  0.00    +0.000 HD
ENDBRANCH  27  28
BRANCH  27  31
ATOM     31  C   UNK A   0       5.724   3.586  15.930  0.00  0.00    +0.000 C 
BRANCH  31  32
ATOM     32  C   UNK A   0       6.311   4.033  14.612  0.00  0.00    +0.000 A 
ATOM     33  C   UNK A   0       7.307   5.015  14.527  0.00  0.00    +0.000 A 
ATOM     34  C   UNK A   0       7.834   5.386  13.289  0.00  0.00    +0.000 A 
ATOM     35  C   UNK A   0       7.398   4.759  12.125  0.00  0.00    +0.000 A 
ATOM     36  C   UNK A   0       6.435   3.755  12.199  0.00  0.00    +0.000 A 
ATOM     37  C   UNK A   0       5.896   3.393  13.435  0.00  0.00    +0.000 A 
ENDBRANCH  31  32
ENDBRANCH  27  31
ENDBRANCH  23  27
ENDBRANCH  22  23
ENDBRANCH   1  22
TORSDOF 15
ENDMDL
MODEL 5
REMARK VINA RESULT:      -7.4      1.126      1.835
REMARK  Name = 
REMARK  17 active torsions:
REMARK  status: ('A' for Active; 'I' for Inactive)
REMARK    1  A    between atoms: C_1  and  C_2
REMARK    2  A    between atoms: C_2  and  C_3
REMARK    3  A    between atoms: C_2  and  C_4
REMARK    4  A    between atoms: C_4  and  C_5
REMARK    5  A    between atoms: C_5  and  C_6
REMARK    6  A    between atoms: C_5  and  C_19
REMARK    7  A    between atoms: C_6  and  P_7
REMARK    8  A    between atoms: P_7  and  O_9
REMARK    9  A    between atoms: P_7  and  C_10
REMARK   10  A    between atoms: C_10  and  N_11
REMARK   11  A    between atoms: C_10  and  C_12
REMARK   12  A    between atoms: C_12  and  C_13
REMARK   13  A    between atoms: N_21  and  CA_22
REMARK   14  A    between atoms: CA_22  and  CB_23
REMARK   15  A    between atoms: CA_22  and  C_30
REMARK   16  A    between atoms: CB_23  and  CG_24
REMARK   17  A    between atoms: C_30  and  OXT_32
REMARK                            x       y       z     vdW  Elec       q    Type
REMARK                         _______ _______ _______ _____ _____    ______ ____
ROOT
ATOM      1  C   UNK A   0       2.325   5.873  19.747  0.00  0.00    +0.000 C 
ENDROOT
BRANCH   1   2
ATOM      2  C   UNK A   0       2.018   7.354  19.838  0.00  0.00    +0.000 C 
ATOM      3  O   UNK A   0       2.421   8.171  19.009  0.00  0.00    +0.000 OA
ATOM      4  N   PHE A   1       1.329   7.717  20.964  0.00  0.00    +0.000 N 
ATOM      5  H   PHE A   1       0.942   7.008  21.576  0.00  0.00    +0.000 HD
BRANCH   4   6
ATOM      6  CA  PHE A   1       0.892   9.090  21.206  0.00  0.00    +0.000 C 
BRANCH   6   7
ATOM      7  C   PHE A   1       0.387   9.207  22.656  0.00  0.00    +0.000 C 
ATOM      8  O   PHE A   1       1.006   9.703  23.582  0.00  0.00    +0.000 OA
BRANCH   7   9
ATOM      9  OXT PHE A   1      -0.820   8.597  22.837  0.00  0.00    +0.000 OA
ATOM     10  HXT PHE A   1      -0.776   7.610  22.925  0.00  0.00    +0.000 HD
ENDBRANCH   7   9
ENDBRANCH   6   7
BRANCH   6  11
ATOM     11  CB  PHE A   1      -0.113   9.587  20.162  0.00  0.00    +0.000 C 
BRANCH  11  12
ATOM     12  CG  PHE A   1      -0.024  11.051  19.797  0.00  0.00    +0.000 A 
ATOM     13  CD1 PHE A   1       1.215  11.571  19.390  0.00  0.00    +0.000 A 
ATOM     14  CE1 PHE A   1       1.334  12.909  19.000  0.00  0.00    +0.000 A 
ATOM     15  CZ  PHE A   1       0.222  13.745  19.026  0.00  0.00    +0.000 A 
ATOM     16  CE2 PHE A   1      -1.011  13.247  19.431  0.00  0.00    +0.000 A 
ATOM     17  CD2 PHE A   1      -1.133  11.905  19.791  0.00  0.00    +0.000 A 
ENDBRANCH  11  12
ENDBRANCH   6  11
ENDBRANCH   4   6
ENDBRANCH   1   2
BRANCH   1  18
ATOM     18  C   UNK A   0       1.293   5.036  20.562  0.00  0.00    +0.000 C 
BRANCH  18  20
ATOM     19  C   UNK A   0       0.893   2.836  19.261  0.00  0.00    +0.000 C 
ATOM     20  C   UNK A   0       1.381   3.489  20.555  0.00  0.00    +0.000 C 
ATOM     21  C   UNK A   0       2.833   3.030  20.799  0.00  0.00    +0.000 C 
ENDBRANCH  18  20
ENDBRANCH   1  18
BRANCH   1  22
ATOM     22  C   UNK A   0       2.361   5.619  18.248  0.00  0.00    +0.000 C 
BRANCH  22  23
ATOM     23  P   UNK A   0       4.010   5.126  17.625  0.00  0.00    +0.000 P 
ATOM     24  O   UNK A   0       4.100   6.498  16.908  0.00  0.00    +0.000 OA
BRANCH  23  25
ATOM     25  O   UNK A   0       4.635   5.322  19.152  0.00  0.00    +0.000 OA
ATOM     26  H   UNK A   0       5.123   4.554  19.513  0.00  0.00    +0.000 HD
ENDBRANCH  23  25
BRANCH  23  27
ATOM     27  C   UNK A   0       5.659   4.633  17.002  0.00  0.00    +0.000 C 
BRANCH  27  28
ATOM     28  N   UNK A   0       6.430   4.136  18.178  0.00  0.00    +0.000 NA
ATOM     29  H   UNK A   0       7.201   4.804  18.307  0.00  0.00    +0.000 HD
ATOM     30  H   UNK A   0       6.935   3.310  17.829  0.00  0.00    +0.000 HD
ENDBRANCH  27  28
BRANCH  27  31
ATOM     31  C   UNK A   0       5.630   3.555  15.915  0.00  0.00    +0.000 C 
BRANCH  31  32
ATOM     32  C   UNK A   0       6.269   3.949  14.604  0.00  0.00    +0.000 A 
ATOM     33  C   UNK A   0       5.901   3.368  13.383  0.00  0.00    +0.000 A 
ATOM     34  C   UNK A   0       6.505   3.774  12.193  0.00  0.00    +0.000 A 
ATOM     35  C   UNK A   0       7.460   4.787  12.202  0.00  0.00    +0.000 A 
ATOM     36  C   UNK A   0       7.808   5.399  13.403  0.00  0.00    +0.000 A 
ATOM     37  C   UNK A   0       7.216   4.984  14.596  0.00  0.00    +0.000 A 
ENDBRANCH  31  32
ENDBRANCH  27  31
ENDBRANCH  23  27
ENDBRANCH  22  23
ENDBRANCH   1  22
TORSDOF 15
ENDMDL
MODEL 6
REMARK VINA RESULT:      -7.3      1.276      1.894
REMARK  Name = 
REMARK  17 active torsions:
REMARK  status: ('A' for Active; 'I' for Inactive)
REMARK    1  A    between atoms: C_1  and  C_2
REMARK    2  A    between atoms: C_2  and  C_3
REMARK    3  A    between atoms: C_2  and  C_4
REMARK    4  A    between atoms: C_4  and  C_5
REMARK    5  A    between atoms: C_5  and  C_6
REMARK    6  A    between atoms: C_5  and  C_19
REMARK    7  A    between atoms: C_6  and  P_7
REMARK    8  A    between atoms: P_7  and  O_9
REMARK    9  A    between atoms: P_7  and  C_10
REMARK   10  A    between atoms: C_10  and  N_11
REMARK   11  A    between atoms: C_10  and  C_12
REMARK   12  A    between atoms: C_12  and  C_13
REMARK   13  A    between atoms: N_21  and  CA_22
REMARK   14  A    between atoms: CA_22  and  CB_23
REMARK   15  A    between atoms: CA_22  and  C_30
REMARK   16  A    between atoms: CB_23  and  CG_24
REMARK   17  A    between atoms: C_30  and  OXT_32
REMARK                            x       y       z     vdW  Elec       q    Type
REMARK                         _______ _______ _______ _____ _____    ______ ____
ROOT
ATOM      1  C   UNK A   0       2.362   5.883  19.788  0.00  0.00    +0.000 C 
ENDROOT
BRANCH   1   2
ATOM      2  C   UNK A   0       2.031   7.362  19.842  0.00  0.00    +0.000 C 
ATOM      3  O   UNK A   0       2.374   8.154  18.963  0.00  0.00    +0.000 OA
ATOM      4  N   PHE A   1       1.399   7.754  20.990  0.00  0.00    +0.000 N 
ATOM      5  H   PHE A   1       1.060   7.062  21.648  0.00  0.00    +0.000 HD
BRANCH   4   6
ATOM      6  CA  PHE A   1       0.950   9.128  21.206  0.00  0.00    +0.000 C 
BRANCH   6   7
ATOM      7  C   PHE A   1       0.700   9.343  22.710  0.00  0.00    +0.000 C 
ATOM      8  O   PHE A   1       1.565   9.458  23.561  0.00  0.00    +0.000 OA
BRANCH   7   9
ATOM      9  OXT PHE A   1      -0.626   9.295  23.029  0.00  0.00    +0.000 OA
ATOM     10  HXT PHE A   1      -0.941  10.036  23.608  0.00  0.00    +0.000 HD
ENDBRANCH   7   9
ENDBRANCH   6   7
BRANCH   6  11
ATOM     11  CB  PHE A   1      -0.243   9.510  20.322  0.00  0.00    +0.000 C 
BRANCH  11  12
ATOM     12  CG  PHE A   1      -0.291  10.945  19.853  0.00  0.00    +0.000 A 
ATOM     13  CD1 PHE A   1      -1.272  11.797  20.385  0.00  0.00    +0.000 A 
ATOM     14  CE1 PHE A   1      -1.325  13.144  20.013  0.00  0.00    +0.000 A 
ATOM     15  CZ  PHE A   1      -0.409  13.651  19.096  0.00  0.00    +0.000 A 
ATOM     16  CE2 PHE A   1       0.565  12.820  18.556  0.00  0.00    +0.000 A 
ATOM     17  CD2 PHE A   1       0.634  11.484  18.951  0.00  0.00    +0.000 A 
ENDBRANCH  11  12
ENDBRANCH   6  11
ENDBRANCH   4   6
ENDBRANCH   1   2
BRANCH   1  18
ATOM     18  C   UNK A   0       1.338   5.050  20.618  0.00  0.00    +0.000 C 
BRANCH  18  20
ATOM     19  C   UNK A   0       0.821   2.899  19.278  0.00  0.00    +0.000 C 
ATOM     20  C   UNK A   0       1.384   3.503  20.565  0.00  0.00    +0.000 C 
ATOM     21  C   UNK A   0       2.833   3.000  20.729  0.00  0.00    +0.000 C 
ENDBRANCH  18  20
ENDBRANCH   1  18
BRANCH   1  22
ATOM     22  C   UNK A   0       2.409   5.594  18.295  0.00  0.00    +0.000 C 
BRANCH  22  23
ATOM     23  P   UNK A   0       4.071   5.123  17.690  0.00  0.00    +0.000 P 
ATOM     24  O   UNK A   0       3.393   4.045  16.803  0.00  0.00    +0.000 OA
BRANCH  23  25
ATOM     25  O   UNK A   0       4.135   6.526  16.802  0.00  0.00    +0.000 OA
ATOM     26  H   UNK A   0       4.767   6.527  16.055  0.00  0.00    +0.000 HD
ENDBRANCH  23  25
BRANCH  23  27
ATOM     27  C   UNK A   0       5.732   4.651  17.084  0.00  0.00    +0.000 C 
BRANCH  27  28
ATOM     28  N   UNK A   0       6.506   4.188  18.273  0.00  0.00    +0.000 NA
ATOM     29  H   UNK A   0       6.520   4.986  18.922  0.00  0.00    +0.000 HD
ATOM     30  H   UNK A   0       7.485   4.169  17.955  0.00  0.00    +0.000 HD
ENDBRANCH  27  28
BRANCH  27  31
ATOM     31  C   UNK A   0       5.730   3.555  16.015  0.00  0.00    +0.000 C 
BRANCH  31  32
ATOM     32  C   UNK A   0       6.313   3.957  14.681  0.00  0.00    +0.000 A 
ATOM     33  C   UNK A   0       5.888   3.391  13.472  0.00  0.00    +0.000 A 
ATOM     34  C   UNK A   0       6.442   3.805  12.260  0.00  0.00    +0.000 A 
ATOM     35  C   UNK A   0       7.403   4.812  12.237  0.00  0.00    +0.000 A 
ATOM     36  C   UNK A   0       7.807   5.410  13.428  0.00  0.00    +0.000 A 
ATOM     37  C   UNK A   0       7.265   4.987  14.642  0.00  0.00    +0.000 A 
ENDBRANCH  31  32
ENDBRANCH  27  31
ENDBRANCH  23  27
ENDBRANCH  22  23
ENDBRANCH   1  22
TORSDOF 15
ENDMDL
MODEL 7
REMARK VINA RESULT:      -7.2      0.958      1.570
REMARK  Name = 
REMARK  17 active torsions:
REMARK  status: ('A' for Active; 'I' for Inactive)
REMARK    1  A    between atoms: C_1  and  C_2
REMARK    2  A    between atoms: C_2  and  C_3
REMARK    3  A    between atoms: C_2  and  C_4
REMARK    4  A    between atoms: C_4  and  C_5
REMARK    5  A    between atoms: C_5  and  C_6
REMARK    6  A    between atoms: C_5  and  C_19
REMARK    7  A    between atoms: C_6  and  P_7
REMARK    8  A    between atoms: P_7  and  O_9
REMARK    9  A    between atoms: P_7  and  C_10
REMARK   10  A    between atoms: C_10  and  N_11
REMARK   11  A    between atoms: C_10  and  C_12
REMARK   12  A    between atoms: C_12  and  C_13
REMARK   13  A    between atoms: N_21  and  CA_22
REMARK   14  A    between atoms: CA_22  and  CB_23
REMARK   15  A    between atoms: CA_22  and  C_30
REMARK   16  A    between atoms: CB_23  and  CG_24
REMARK   17  A    between atoms: C_30  and  OXT_32
REMARK                            x       y       z     vdW  Elec       q    Type
REMARK                         _______ _______ _______ _____ _____    ______ ____
ROOT
ATOM      1  C   UNK A   0       2.584   5.531  19.441  0.00  0.00    +0.000 C 
ENDROOT
BRANCH   1   2
ATOM      2  C   UNK A   0       2.351   7.028  19.394  0.00  0.00    +0.000 C 
ATOM      3  O   UNK A   0       2.757   7.737  18.472  0.00  0.00    +0.000 OA
ATOM      4  N   PHE A   1       1.731   7.535  20.502  0.00  0.00    +0.000 N 
ATOM      5  H   PHE A   1       1.338   6.910  21.197  0.00  0.00    +0.000 HD
BRANCH   4   6
ATOM      6  CA  PHE A   1       1.370   8.946  20.622  0.00  0.00    +0.000 C 
BRANCH   6   7
ATOM      7  C   PHE A   1       0.776   9.196  22.021  0.00  0.00    +0.000 C 
ATOM      8  O   PHE A   1       1.382   9.653  22.974  0.00  0.00    +0.000 OA
BRANCH   7   9
ATOM      9  OXT PHE A   1      -0.509   8.751  22.126  0.00  0.00    +0.000 OA
ATOM     10  HXT PHE A   1      -1.201   9.428  21.910  0.00  0.00    +0.000 HD
ENDBRANCH   7   9
ENDBRANCH   6   7
BRANCH   6  11
ATOM     11  CB  PHE A   1       0.473   9.430  19.477  0.00  0.00    +0.000 C 
BRANCH  11  12
ATOM     12  CG  PHE A   1       0.274  10.924  19.374  0.00  0.00    +0.000 A 
ATOM     13  CD1 PHE A   1       1.355  11.723  18.968  0.00  0.00    +0.000 A 
ATOM     14  CE1 PHE A   1       1.204  13.105  18.816  0.00  0.00    +0.000 A 
ATOM     15  CZ  PHE A   1      -0.023  13.705  19.080  0.00  0.00    +0.000 A 
ATOM     16  CE2 PHE A   1      -1.103  12.930  19.487  0.00  0.00    +0.000 A 
ATOM     17  CD2 PHE A   1      -0.957  11.548  19.609  0.00  0.00    +0.000 A 
ENDBRANCH  11  12
ENDBRANCH   6  11
ENDBRANCH   4   6
ENDBRANCH   1   2
BRANCH   1  18
ATOM     18  C   UNK A   0       2.019   4.836  18.165  0.00  0.00    +0.000 C 
BRANCH  18  20
ATOM     19  C   UNK A   0       2.312   2.280  17.902  0.00  0.00    +0.000 C 
ATOM     20  C   UNK A   0       1.377   3.431  18.276  0.00  0.00    +0.000 C 
ATOM     21  C   UNK A   0       0.869   3.181  19.711  0.00  0.00    +0.000 C 
ENDBRANCH  18  20
ENDBRANCH   1  18
BRANCH   1  22
ATOM     22  C   UNK A   0       4.086   5.421  19.656  0.00  0.00    +0.000 C 
BRANCH  22  23
ATOM     23  P   UNK A   0       5.009   4.920  18.157  0.00  0.00    +0.000 P 
ATOM     24  O   UNK A   0       5.929   6.151  18.367  0.00  0.00    +0.000 OA
BRANCH  23  25
ATOM     25  O   UNK A   0       5.675   3.654  19.002  0.00  0.00    +0.000 OA
ATOM     26  H   UNK A   0       5.838   2.838  18.486  0.00  0.00    +0.000 HD
ENDBRANCH  23  25
BRANCH  23  27
ATOM     27  C   UNK A   0       5.933   4.420  16.658  0.00  0.00    +0.000 C 
BRANCH  27  28
ATOM     28  N   UNK A   0       5.547   3.007  16.370  0.00  0.00    +0.000 NA
ATOM     29  H   UNK A   0       5.074   2.670  17.219  0.00  0.00    +0.000 HD
ATOM     30  H   UNK A   0       6.431   2.482  16.410  0.00  0.00    +0.000 HD
ENDBRANCH  27  28
BRANCH  27  31
ATOM     31  C   UNK A   0       5.661   5.287  15.426  0.00  0.00    +0.000 C 
BRANCH  31  32
ATOM     32  C   UNK A   0       6.102   4.690  14.111  0.00  0.00    +0.000 A 
ATOM     33  C   UNK A   0       5.316   3.775  13.398  0.00  0.00    +0.000 A 
ATOM     34  C   UNK A   0       5.755   3.262  12.177  0.00  0.00    +0.000 A 
ATOM     35  C   UNK A   0       6.968   3.680  11.637  0.00  0.00    +0.000 A 
ATOM     36  C   UNK A   0       7.742   4.617  12.316  0.00  0.00    +0.000 A 
ATOM     37  C   UNK A   0       7.311   5.121  13.544  0.00  0.00    +0.000 A 
ENDBRANCH  31  32
ENDBRANCH  27  31
ENDBRANCH  23  27
ENDBRANCH  22  23
ENDBRANCH   1  22
TORSDOF 15
ENDMDL
MODEL 8
REMARK VINA RESULT:      -7.2      1.863      8.595
REMARK  Name = 
REMARK  17 active torsions:
REMARK  status: ('A' for Active; 'I' for Inactive)
REMARK    1  A    between atoms: C_1  and  C_2
REMARK    2  A    between atoms: C_2  and  C_3
REMARK    3  A    between atoms: C_2  and  C_4
REMARK    4  A    between atoms: C_4  and  C_5
REMARK    5  A    between atoms: C_5  and  C_6
REMARK    6  A    between atoms: C_5  and  C_19
REMARK    7  A    between atoms: C_6  and  P_7
REMARK    8  A    between atoms: P_7  and  O_9
REMARK    9  A    between atoms: P_7  and  C_10
REMARK   10  A    between atoms: C_10  and  N_11
REMARK   11  A    between atoms: C_10  and  C_12
REMARK   12  A    between atoms: C_12  and  C_13
REMARK   13  A    between atoms: N_21  and  CA_22
REMARK   14  A    between atoms: CA_22  and  CB_23
REMARK   15  A    between atoms: CA_22  and  C_30
REMARK   16  A    between atoms: CB_23  and  CG_24
REMARK   17  A    between atoms: C_30  and  OXT_32
REMARK                            x       y       z     vdW  Elec       q    Type
REMARK                         _______ _______ _______ _____ _____    ______ ____
ROOT
ATOM      1  C   UNK A   0       3.199   3.947  18.990  0.00  0.00    +0.000 C 
ENDROOT
BRANCH   1   2
ATOM      2  C   UNK A   0       4.214   3.765  17.878  0.00  0.00    +0.000 C 
ATOM      3  O   UNK A   0       4.133   2.864  17.043  0.00  0.00    +0.000 OA
ATOM      4  N   PHE A   1       5.270   4.633  17.936  0.00  0.00    +0.000 N 
ATOM      5  H   PHE A   1       5.257   5.411  18.584  0.00  0.00    +0.000 HD
BRANCH   4   6
ATOM      6  CA  PHE A   1       6.324   4.652  16.923  0.00  0.00    +0.000 C 
BRANCH   6   7
ATOM      7  C   PHE A   1       7.654   5.045  17.590  0.00  0.00    +0.000 C 
ATOM      8  O   PHE A   1       7.984   6.178  17.894  0.00  0.00    +0.000 OA
BRANCH   7   9
ATOM      9  OXT PHE A   1       8.501   3.984  17.726  0.00  0.00    +0.000 OA
ATOM     10  HXT PHE A   1       8.053   3.104  17.811  0.00  0.00    +0.000 HD
ENDBRANCH   7   9
ENDBRANCH   6   7
BRANCH   6  11
ATOM     11  CB  PHE A   1       5.965   5.515  15.708  0.00  0.00    +0.000 C 
BRANCH  11  12
ATOM     12  CG  PHE A   1       6.256   4.911  14.354  0.00  0.00    +0.000 A 
ATOM     13  CD1 PHE A   1       7.373   5.368  13.637  0.00  0.00    +0.000 A 
ATOM     14  CE1 PHE A   1       7.707   4.807  12.400  0.00  0.00    +0.000 A 
ATOM     15  CZ  PHE A   1       6.921   3.794  11.860  0.00  0.00    +0.000 A 
ATOM     16  CE2 PHE A   1       5.808   3.333  12.554  0.00  0.00    +0.000 A 
ATOM     17  CD2 PHE A   1       5.495   3.874  13.800  0.00  0.00    +0.000 A 
ENDBRANCH  11  12
ENDBRANCH   6  11
ENDBRANCH   4   6
ENDBRANCH   1   2
BRANCH   1  18
ATOM     18  C   UNK A   0       2.990   2.620  19.780  0.00  0.00    +0.000 C 
BRANCH  18  20
ATOM     19  C   UNK A   0       1.363   2.593  21.791  0.00  0.00    +0.000 C 
ATOM     20  C   UNK A   0       1.583   2.257  20.315  0.00  0.00    +0.000 C 
ATOM     21  C   UNK A   0       0.492   2.979  19.497  0.00  0.00    +0.000 C 
ENDBRANCH  18  20
ENDBRANCH   1  18
BRANCH   1  22
ATOM     22  C   UNK A   0       3.760   5.119  19.782  0.00  0.00    +0.000 C 
BRANCH  22  23
ATOM     23  P   UNK A   0       2.614   6.541  19.902  0.00  0.00    +0.000 P 
ATOM     24  O   UNK A   0       1.928   6.040  18.604  0.00  0.00    +0.000 OA
BRANCH  23  25
ATOM     25  O   UNK A   0       1.851   5.805  21.181  0.00  0.00    +0.000 OA
ATOM     26  H   UNK A   0       1.264   6.381  21.713  0.00  0.00    +0.000 HD
ENDBRANCH  23  25
BRANCH  23  27
ATOM     27  C   UNK A   0       1.468   7.963  20.021  0.00  0.00    +0.000 C 
BRANCH  27  28
ATOM     28  N   UNK A   0       1.677   8.569  21.368  0.00  0.00    +0.000 NA
ATOM     29  H   UNK A   0       2.120   9.481  21.195  0.00  0.00    +0.000 HD
ATOM     30  H   UNK A   0       2.459   8.038  21.775  0.00  0.00    +0.000 HD
ENDBRANCH  27  28
BRANCH  27  31
ATOM     31  C   UNK A   0       1.667   9.030  18.942  0.00  0.00    +0.000 C 
BRANCH  31  32
ATOM     32  C   UNK A   0       0.526  10.008  18.787  0.00  0.00    +0.000 A 
ATOM     33  C   UNK A   0       0.485  11.231  19.469  0.00  0.00    +0.000 A 
ATOM     34  C   UNK A   0      -0.581  12.112  19.283  0.00  0.00    +0.000 A 
ATOM     35  C   UNK A   0      -1.602  11.798  18.390  0.00  0.00    +0.000 A 
ATOM     36  C   UNK A   0      -1.555  10.603  17.677  0.00  0.00    +0.000 A 
ATOM     37  C   UNK A   0      -0.497   9.714  17.873  0.00  0.00    +0.000 A 
ENDBRANCH  31  32
ENDBRANCH  27  31
ENDBRANCH  23  27
ENDBRANCH  22  23
ENDBRANCH   1  22
TORSDOF 15
ENDMDL
MODEL 9
REMARK VINA RESULT:      -6.9      1.949      2.796
REMARK  Name = 
REMARK  17 active torsions:
REMARK  status: ('A' for Active; 'I' for Inactive)
REMARK    1  A    between atoms: C_1  and  C_2
REMARK    2  A    between atoms: C_2  and  C_3
REMARK    3  A    between atoms: C_2  and  C_4
REMARK    4  A    between atoms: C_4  and  C_5
REMARK    5  A    between atoms: C_5  and  C_6
REMARK    6  A    between atoms: C_5  and  C_19
REMARK    7  A    between atoms: C_6  and  P_7
REMARK    8  A    between atoms: P_7  and  O_9
REMARK    9  A    between atoms: P_7  and  C_10
REMARK   10  A    between atoms: C_10  and  N_11
REMARK   11  A    between atoms: C_10  and  C_12
REMARK   12  A    between atoms: C_12  and  C_13
REMARK   13  A    between atoms: N_21  and  CA_22
REMARK   14  A    between atoms: CA_22  and  CB_23
REMARK   15  A    between atoms: CA_22  and  C_30
REMARK   16  A    between atoms: CB_23  and  CG_24
REMARK   17  A    between atoms: C_30  and  OXT_32
REMARK                            x       y       z     vdW  Elec       q    Type
REMARK                         _______ _______ _______ _____ _____    ______ ____
ROOT
ATOM      1  C   UNK A   0       3.070   4.861  19.319  0.00  0.00    +0.000 C 
ENDROOT
BRANCH   1   2
ATOM      2  C   UNK A   0       2.192   6.001  19.795  0.00  0.00    +0.000 C 
ATOM      3  O   UNK A   0       1.486   5.924  20.802  0.00  0.00    +0.000 OA
ATOM      4  N   PHE A   1       2.184   7.088  18.965  0.00  0.00    +0.000 N 
ATOM      5  H   PHE A   1       2.840   7.147  18.195  0.00  0.00    +0.000 HD
BRANCH   4   6
ATOM      6  CA  PHE A   1       1.442   8.308  19.278  0.00  0.00    +0.000 C 
BRANCH   6   7
ATOM      7  C   PHE A   1       1.469   9.241  18.053  0.00  0.00    +0.000 C 
ATOM      8  O   PHE A   1       2.466   9.555  17.427  0.00  0.00    +0.000 OA
BRANCH   7   9
ATOM      9  OXT PHE A   1       0.244   9.779  17.782  0.00  0.00    +0.000 OA
ATOM     10  HXT PHE A   1      -0.441   9.622  18.481  0.00  0.00    +0.000 HD
ENDBRANCH   7   9
ENDBRANCH   6   7
BRANCH   6  11
ATOM     11  CB  PHE A   1       1.918   8.978  20.572  0.00  0.00    +0.000 C 
BRANCH  11  12
ATOM     12  CG  PHE A   1       0.876   9.756  21.340  0.00  0.00    +0.000 A 
ATOM     13  CD1 PHE A   1       0.224   9.133  22.417  0.00  0.00    +0.000 A 
ATOM     14  CE1 PHE A   1      -0.715   9.831  23.183  0.00  0.00    +0.000 A 
ATOM     15  CZ  PHE A   1      -1.024  11.152  22.875  0.00  0.00    +0.000 A 
ATOM     16  CE2 PHE A   1      -0.392  11.783  21.810  0.00  0.00    +0.000 A 
ATOM     17  CD2 PHE A   1       0.565  11.094  21.065  0.00  0.00    +0.000 A 
ENDBRANCH  11  12
ENDBRANCH   6  11
ENDBRANCH   4   6
ENDBRANCH   1   2
BRANCH   1  18
ATOM     18  C   UNK A   0       2.598   4.333  17.931  0.00  0.00    +0.000 C 
BRANCH  18  20
ATOM     19  C   UNK A   0       3.354   1.862  18.049  0.00  0.00    +0.000 C 
ATOM     20  C   UNK A   0       2.214   2.842  17.766  0.00  0.00    +0.000 C 
ATOM     21  C   UNK A   0       1.038   2.481  18.698  0.00  0.00    +0.000 C 
ENDBRANCH  18  20
ENDBRANCH   1  18
BRANCH   1  22
ATOM     22  C   UNK A   0       4.469   5.458  19.371  0.00  0.00    +0.000 C 
BRANCH  22  23
ATOM     23  P   UNK A   0       5.323   5.472  17.753  0.00  0.00    +0.000 P 
ATOM     24  O   UNK A   0       6.060   6.761  18.204  0.00  0.00    +0.000 OA
BRANCH  23  25
ATOM     25  O   UNK A   0       6.245   4.178  18.239  0.00  0.00    +0.000 OA
ATOM     26  H   UNK A   0       7.073   4.035  17.737  0.00  0.00    +0.000 HD
ENDBRANCH  23  25
BRANCH  23  27
ATOM     27  C   UNK A   0       6.178   5.487  16.135  0.00  0.00    +0.000 C 
BRANCH  27  28
ATOM     28  N   UNK A   0       7.439   6.262  16.325  0.00  0.00    +0.000 NA
ATOM     29  H   UNK A   0       7.239   7.207  15.972  0.00  0.00    +0.000 HD
ATOM     30  H   UNK A   0       8.075   5.906  15.598  0.00  0.00    +0.000 HD
ENDBRANCH  27  28
BRANCH  27  31
ATOM     31  C   UNK A   0       6.508   4.099  15.579  0.00  0.00    +0.000 C 
BRANCH  31  32
ATOM     32  C   UNK A   0       6.284   3.932  14.094  0.00  0.00    +0.000 A 
ATOM     33  C   UNK A   0       5.048   3.547  13.559  0.00  0.00    +0.000 A 
ATOM     34  C   UNK A   0       4.880   3.421  12.179  0.00  0.00    +0.000 A 
ATOM     35  C   UNK A   0       5.934   3.711  11.316  0.00  0.00    +0.000 A 
ATOM     36  C   UNK A   0       7.156   4.131  11.833  0.00  0.00    +0.000 A 
ATOM     37  C   UNK A   0       7.330   4.243  13.213  0.00  0.00    +0.000 A 
ENDBRANCH  31  32
ENDBRANCH  27  31
ENDBRANCH  23  27
ENDBRANCH  22  23
ENDBRANCH   1  22
TORSDOF 15
ENDMDL
