MODEL 1
REMARK VINA RESULT:      -7.7      0.000      0.000
REMARK  Name = 
REMARK  4 active torsions:
REMARK  status: ('A' for Active; 'I' for Inactive)
REMARK    1  A    between atoms: C_1  and  N_2
REMARK    2  A    between atoms: N_2  and  C_3
REMARK    3  A    between atoms: N_6  and  C_7
REMARK    4  A    between atoms: C_12  and  C_13
REMARK                            x       y       z     vdW  Elec       q    Type
REMARK                         _______ _______ _______ _____ _____    ______ ____
ROOT
ATOM      1  C   UNL     1       6.841   6.232  16.927  0.00  0.00    +0.000 A 
ATOM      2  N   UNL     1       6.222   6.125  18.120  0.00  0.00    +0.000 NA
ATOM      3  C   UNL     1       5.311   5.157  18.262  0.00  0.00    +0.000 A 
ATOM      4  N   UNL     1       4.728   4.990  19.520  0.00  0.00    +0.000 N 
ATOM      5  N   UNL     1       4.967   4.312  17.282  0.00  0.00    +0.000 NA
ATOM      6  C   UNL     1       5.565   4.421  16.104  0.00  0.00    +0.000 A 
ATOM      7  C   UNL     1       5.192   3.535  15.102  0.00  0.00    +0.000 A 
ATOM      8  C   UNL     1       5.793   3.553  13.844  0.00  0.00    +0.000 A 
ATOM      9  C   UNL     1       6.783   4.487  13.573  0.00  0.00    +0.000 A 
ATOM     10  C   UNL     1       7.154   5.400  14.561  0.00  0.00    +0.000 A 
ATOM     11  C   UNL     1       6.551   5.373  15.847  0.00  0.00    +0.000 A 
ATOM     12  H   UNL     1       5.002   5.737  20.142  0.00  0.00    +0.000 HD
ENDROOT
BRANCH   4  13
ATOM     13  C   UNL     1       3.467   4.417  19.774  0.00  0.00    +0.000 A 
ATOM     14  C   UNL     1       3.327   3.023  19.888  0.00  0.00    +0.000 A 
ATOM     15  C   UNL     1       2.102   2.440  20.206  0.00  0.00    +0.000 A 
ATOM     16  C   UNL     1       0.990   3.246  20.404  0.00  0.00    +0.000 A 
ATOM     17  C   UNL     1       1.096   4.629  20.248  0.00  0.00    +0.000 A 
ATOM     18  C   UNL     1       2.323   5.226  19.911  0.00  0.00    +0.000 A 
ATOM     19  C   UNL     1       2.399   6.720  19.765  0.00  0.00    +0.000 C 
ENDBRANCH   4  13
BRANCH   1  21
ATOM     20  C   UNL     1       7.798   8.285  17.775  0.00  0.00    +0.000 C 
ATOM     21  N   UNL     1       7.803   7.257  16.747  0.00  0.00    +0.000 N 
ATOM     22  H   UNL     1       8.717   6.826  16.648  0.00  0.00    +0.000 HD
ENDBRANCH   1  21
TORSDOF 2
ENDMDL
MODEL 2
REMARK VINA RESULT:      -7.6      1.534      6.122
REMARK  Name = 
REMARK  4 active torsions:
REMARK  status: ('A' for Active; 'I' for Inactive)
REMARK    1  A    between atoms: C_1  and  N_2
REMARK    2  A    between atoms: N_2  and  C_3
REMARK    3  A    between atoms: N_6  and  C_7
REMARK    4  A    between atoms: C_12  and  C_13
REMARK                            x       y       z     vdW  Elec       q    Type
REMARK                         _______ _______ _______ _____ _____    ______ ____
ROOT
ATOM      1  C   UNL     1       2.474   6.236  19.764  0.00  0.00    +0.000 A 
ATOM      2  N   UNL     1       3.266   6.735  18.794  0.00  0.00    +0.000 NA
ATOM      3  C   UNL     1       3.684   5.897  17.841  0.00  0.00    +0.000 A 
ATOM      4  N   UNL     1       4.436   6.427  16.790  0.00  0.00    +0.000 N 
ATOM      5  N   UNL     1       3.380   4.593  17.813  0.00  0.00    +0.000 NA
ATOM      6  C   UNL     1       2.611   4.095  18.771  0.00  0.00    +0.000 A 
ATOM      7  C   UNL     1       2.309   2.741  18.724  0.00  0.00    +0.000 A 
ATOM      8  C   UNL     1       1.479   2.139  19.669  0.00  0.00    +0.000 A 
ATOM      9  C   UNL     1       0.945   2.905  20.695  0.00  0.00    +0.000 A 
ATOM     10  C   UNL     1       1.256   4.264  20.771  0.00  0.00    +0.000 A 
ATOM     11  C   UNL     1       2.092   4.878  19.801  0.00  0.00    +0.000 A 
ATOM     12  H   UNL     1       4.669   7.393  16.970  0.00  0.00    +0.000 HD
ENDROOT
BRANCH   4  13
ATOM     13  C   UNL     1       5.354   5.716  15.993  0.00  0.00    +0.000 A 
ATOM     14  C   UNL     1       4.907   4.935  14.913  0.00  0.00    +0.000 A 
ATOM     15  C   UNL     1       5.803   4.280  14.072  0.00  0.00    +0.000 A 
ATOM     16  C   UNL     1       7.167   4.385  14.306  0.00  0.00    +0.000 A 
ATOM     17  C   UNL     1       7.630   5.115  15.401  0.00  0.00    +0.000 A 
ATOM     18  C   UNL     1       6.735   5.767  16.267  0.00  0.00    +0.000 A 
ATOM     19  C   UNL     1       7.274   6.554  17.428  0.00  0.00    +0.000 C 
ENDBRANCH   4  13
BRANCH   1  21
ATOM     20  C   UNL     1       1.483   8.368  20.328  0.00  0.00    +0.000 C 
ATOM     21  N   UNL     1       2.025   7.102  20.792  0.00  0.00    +0.000 N 
ATOM     22  H   UNL     1       1.363   6.596  21.372  0.00  0.00    +0.000 HD
ENDBRANCH   1  21
TORSDOF 2
ENDMDL
MODEL 3
REMARK VINA RESULT:      -7.6      0.356      1.567
REMARK  Name = 
REMARK  4 active torsions:
REMARK  status: ('A' for Active; 'I' for Inactive)
REMARK    1  A    between atoms: C_1  and  N_2
REMARK    2  A    between atoms: N_2  and  C_3
REMARK    3  A    between atoms: N_6  and  C_7
REMARK    4  A    between atoms: C_12  and  C_13
REMARK                            x       y       z     vdW  Elec       q    Type
REMARK                         _______ _______ _______ _____ _____    ______ ____
ROOT
ATOM      1  C   UNL     1       6.892   6.228  16.996  0.00  0.00    +0.000 A 
ATOM      2  N   UNL     1       6.282   6.117  18.194  0.00  0.00    +0.000 NA
ATOM      3  C   UNL     1       5.351   5.168  18.331  0.00  0.00    +0.000 A 
ATOM      4  N   UNL     1       4.776   4.997  19.593  0.00  0.00    +0.000 N 
ATOM      5  N   UNL     1       4.977   4.346  17.343  0.00  0.00    +0.000 NA
ATOM      6  C   UNL     1       5.566   4.459  16.160  0.00  0.00    +0.000 A 
ATOM      7  C   UNL     1       5.163   3.596  15.149  0.00  0.00    +0.000 A 
ATOM      8  C   UNL     1       5.752   3.620  13.886  0.00  0.00    +0.000 A 
ATOM      9  C   UNL     1       6.760   4.534  13.618  0.00  0.00    +0.000 A 
ATOM     10  C   UNL     1       7.163   5.423  14.616  0.00  0.00    +0.000 A 
ATOM     11  C   UNL     1       6.571   5.391  15.907  0.00  0.00    +0.000 A 
ATOM     12  H   UNL     1       5.074   5.727  20.222  0.00  0.00    +0.000 HD
ENDROOT
BRANCH   4  13
ATOM     13  C   UNL     1       3.505   4.449  19.851  0.00  0.00    +0.000 A 
ATOM     14  C   UNL     1       2.365   5.272  19.877  0.00  0.00    +0.000 A 
ATOM     15  C   UNL     1       1.091   4.740  20.063  0.00  0.00    +0.000 A 
ATOM     16  C   UNL     1       0.937   3.372  20.236  0.00  0.00    +0.000 A 
ATOM     17  C   UNL     1       2.059   2.543  20.261  0.00  0.00    +0.000 A 
ATOM     18  C   UNL     1       3.351   3.070  20.093  0.00  0.00    +0.000 A 
ATOM     19  C   UNL     1       4.533   2.143  20.113  0.00  0.00    +0.000 C 
ENDBRANCH   4  13
BRANCH   1  21
ATOM     20  C   UNL     1       7.779   8.348  17.749  0.00  0.00    +0.000 C 
ATOM     21  N   UNL     1       7.876   7.232  16.822  0.00  0.00    +0.000 N 
ATOM     22  H   UNL     1       8.792   6.794  16.851  0.00  0.00    +0.000 HD
ENDBRANCH   1  21
TORSDOF 2
ENDMDL
MODEL 4
REMARK VINA RESULT:      -7.6      1.160      1.185
REMARK  Name = 
REMARK  4 active torsions:
REMARK  status: ('A' for Active; 'I' for Inactive)
REMARK    1  A    between atoms: C_1  and  N_2
REMARK    2  A    between atoms: N_2  and  C_3
REMARK    3  A    between atoms: N_6  and  C_7
REMARK    4  A    between atoms: C_12  and  C_13
REMARK                            x       y       z     vdW  Elec       q    Type
REMARK                         _______ _______ _______ _____ _____    ______ ____
ROOT
ATOM      1  C   UNL     1       6.968   5.875  16.475  0.00  0.00    +0.000 A 
ATOM      2  N   UNL     1       6.243   5.574  17.572  0.00  0.00    +0.000 NA
ATOM      3  C   UNL     1       5.346   4.588  17.472  0.00  0.00    +0.000 A 
ATOM      4  N   UNL     1       4.653   4.218  18.628  0.00  0.00    +0.000 N 
ATOM      5  N   UNL     1       5.113   3.907  16.343  0.00  0.00    +0.000 NA
ATOM      6  C   UNL     1       5.815   4.207  15.259  0.00  0.00    +0.000 A 
ATOM      7  C   UNL     1       5.557   3.489  14.099  0.00  0.00    +0.000 A 
ATOM      8  C   UNL     1       6.271   3.713  12.923  0.00  0.00    +0.000 A 
ATOM      9  C   UNL     1       7.259   4.686  12.897  0.00  0.00    +0.000 A 
ATOM     10  C   UNL     1       7.517   5.432  14.048  0.00  0.00    +0.000 A 
ATOM     11  C   UNL     1       6.798   5.196  15.250  0.00  0.00    +0.000 A 
ATOM     12  H   UNL     1       4.852   4.858  19.382  0.00  0.00    +0.000 HD
ENDROOT
BRANCH   4  13
ATOM     13  C   UNL     1       3.388   3.601  18.667  0.00  0.00    +0.000 A 
ATOM     14  C   UNL     1       3.273   2.223  18.919  0.00  0.00    +0.000 A 
ATOM     15  C   UNL     1       2.029   1.607  19.030  0.00  0.00    +0.000 A 
ATOM     16  C   UNL     1       0.874   2.362  18.877  0.00  0.00    +0.000 A 
ATOM     17  C   UNL     1       0.965   3.721  18.578  0.00  0.00    +0.000 A 
ATOM     18  C   UNL     1       2.215   4.350  18.447  0.00  0.00    +0.000 A 
ATOM     19  C   UNL     1       2.272   5.819  18.138  0.00  0.00    +0.000 C 
ENDBRANCH   4  13
BRANCH   1  21
ATOM     20  C   UNL     1       7.669   7.895  17.602  0.00  0.00    +0.000 C 
ATOM     21  N   UNL     1       7.918   6.922  16.552  0.00  0.00    +0.000 N 
ATOM     22  H   UNL     1       8.844   6.511  16.627  0.00  0.00    +0.000 HD
ENDBRANCH   1  21
TORSDOF 2
ENDMDL
MODEL 5
REMARK VINA RESULT:      -7.1      1.712      6.431
REMARK  Name = 
REMARK  4 active torsions:
REMARK  status: ('A' for Active; 'I' for Inactive)
REMARK    1  A    between atoms: C_1  and  N_2
REMARK    2  A    between atoms: N_2  and  C_3
REMARK    3  A    between atoms: N_6  and  C_7
REMARK    4  A    between atoms: C_12  and  C_13
REMARK                            x       y       z     vdW  Elec       q    Type
REMARK                         _______ _______ _______ _____ _____    ______ ____
ROOT
ATOM      1  C   UNL     1       2.577   4.589  20.491  0.00  0.00    +0.000 A 
ATOM      2  N   UNL     1       3.535   3.910  19.829  0.00  0.00    +0.000 NA
ATOM      3  C   UNL     1       4.191   4.552  18.857  0.00  0.00    +0.000 A 
ATOM      4  N   UNL     1       5.240   3.880  18.224  0.00  0.00    +0.000 N 
ATOM      5  N   UNL     1       3.930   5.814  18.492  0.00  0.00    +0.000 NA
ATOM      6  C   UNL     1       2.981   6.481  19.133  0.00  0.00    +0.000 A 
ATOM      7  C   UNL     1       2.726   7.787  18.739  0.00  0.00    +0.000 A 
ATOM      8  C   UNL     1       1.771   8.575  19.379  0.00  0.00    +0.000 A 
ATOM      9  C   UNL     1       1.041   8.044  20.433  0.00  0.00    +0.000 A 
ATOM     10  C   UNL     1       1.268   6.724  20.828  0.00  0.00    +0.000 A 
ATOM     11  C   UNL     1       2.250   5.926  20.183  0.00  0.00    +0.000 A 
ATOM     12  H   UNL     1       5.279   2.917  18.524  0.00  0.00    +0.000 HD
ENDROOT
BRANCH   4  13
ATOM     13  C   UNL     1       5.715   4.134  16.923  0.00  0.00    +0.000 A 
ATOM     14  C   UNL     1       4.965   3.742  15.801  0.00  0.00    +0.000 A 
ATOM     15  C   UNL     1       5.383   4.045  14.507  0.00  0.00    +0.000 A 
ATOM     16  C   UNL     1       6.571   4.737  14.314  0.00  0.00    +0.000 A 
ATOM     17  C   UNL     1       7.355   5.093  15.412  0.00  0.00    +0.000 A 
ATOM     18  C   UNL     1       6.951   4.778  16.721  0.00  0.00    +0.000 A 
ATOM     19  C   UNL     1       7.817   5.189  17.878  0.00  0.00    +0.000 C 
ENDBRANCH   4  13
BRANCH   1  21
ATOM     20  C   UNL     1       1.470   2.563  21.210  0.00  0.00    +0.000 C 
ATOM     21  N   UNL     1       1.861   3.928  21.520  0.00  0.00    +0.000 N 
ATOM     22  H   UNL     1       2.404   3.982  22.376  0.00  0.00    +0.000 HD
ENDBRANCH   1  21
TORSDOF 2
ENDMDL
MODEL 6
REMARK VINA RESULT:      -7.1      3.694      6.835
REMARK  Name = 
REMARK  4 active torsions:
REMARK  status: ('A' for Active; 'I' for Inactive)
REMARK    1  A    between atoms: C_1  and  N_2
REMARK    2  A    between atoms: N_2  and  C_3
REMARK    3  A    between atoms: N_6  and  C_7
REMARK    4  A    between atoms: C_12  and  C_13
REMARK                            x       y       z     vdW  Elec       q    Type
REMARK                         _______ _______ _______ _____ _____    ______ ____
ROOT
ATOM      1  C   UNL     1       1.459  10.198  18.608  0.00  0.00    +0.000 A 
ATOM      2  N   UNL     1       2.083   9.253  17.877  0.00  0.00    +0.000 NA
ATOM      3  C   UNL     1       2.253   8.049  18.433  0.00  0.00    +0.000 A 
ATOM      4  N   UNL     1       2.824   7.043  17.650  0.00  0.00    +0.000 N 
ATOM      5  N   UNL     1       1.862   7.744  19.677  0.00  0.00    +0.000 NA
ATOM      6  C   UNL     1       1.258   8.674  20.404  0.00  0.00    +0.000 A 
ATOM      7  C   UNL     1       0.862   8.337  21.691  0.00  0.00    +0.000 A 
ATOM      8  C   UNL     1       0.189   9.240  22.513  0.00  0.00    +0.000 A 
ATOM      9  C   UNL     1      -0.085  10.517  22.045  0.00  0.00    +0.000 A 
ATOM     10  C   UNL     1       0.326  10.881  20.762  0.00  0.00    +0.000 A 
ATOM     11  C   UNL     1       1.000   9.956  19.920  0.00  0.00    +0.000 A 
ATOM     12  H   UNL     1       3.152   7.419  16.772  0.00  0.00    +0.000 HD
ENDROOT
BRANCH   4  13
ATOM     13  C   UNL     1       3.522   5.920  18.133  0.00  0.00    +0.000 A 
ATOM     14  C   UNL     1       4.850   6.042  18.577  0.00  0.00    +0.000 A 
ATOM     15  C   UNL     1       5.535   4.958  19.122  0.00  0.00    +0.000 A 
ATOM     16  C   UNL     1       4.903   3.727  19.221  0.00  0.00    +0.000 A 
ATOM     17  C   UNL     1       3.602   3.572  18.742  0.00  0.00    +0.000 A 
ATOM     18  C   UNL     1       2.907   4.654  18.174  0.00  0.00    +0.000 A 
ATOM     19  C   UNL     1       1.503   4.450  17.681  0.00  0.00    +0.000 C 
ENDBRANCH   4  13
BRANCH   1  21
ATOM     20  C   UNL     1       2.437  12.356  18.124  0.00  0.00    +0.000 C 
ATOM     21  N   UNL     1       1.275  11.485  18.045  0.00  0.00    +0.000 N 
ATOM     22  H   UNL     1       0.949  11.375  17.090  0.00  0.00    +0.000 HD
ENDBRANCH   1  21
TORSDOF 2
ENDMDL
MODEL 7
REMARK VINA RESULT:      -7.1      2.305      4.409
REMARK  Name = 
REMARK  4 active torsions:
REMARK  status: ('A' for Active; 'I' for Inactive)
REMARK    1  A    between atoms: C_1  and  N_2
REMARK    2  A    between atoms: N_2  and  C_3
REMARK    3  A    between atoms: N_6  and  C_7
REMARK    4  A    between atoms: C_12  and  C_13
REMARK                            x       y       z     vdW  Elec       q    Type
REMARK                         _______ _______ _______ _____ _____    ______ ____
ROOT
ATOM      1  C   UNL     1       4.769   4.304  18.847  0.00  0.00    +0.000 A 
ATOM      2  N   UNL     1       3.812   5.006  19.486  0.00  0.00    +0.000 NA
ATOM      3  C   UNL     1       3.301   6.071  18.860  0.00  0.00    +0.000 A 
ATOM      4  N   UNL     1       2.252   6.752  19.484  0.00  0.00    +0.000 N 
ATOM      5  N   UNL     1       3.704   6.488  17.653  0.00  0.00    +0.000 NA
ATOM      6  C   UNL     1       4.653   5.806  17.026  0.00  0.00    +0.000 A 
ATOM      7  C   UNL     1       5.057   6.256  15.776  0.00  0.00    +0.000 A 
ATOM      8  C   UNL     1       6.022   5.582  15.029  0.00  0.00    +0.000 A 
ATOM      9  C   UNL     1       6.610   4.437  15.547  0.00  0.00    +0.000 A 
ATOM     10  C   UNL     1       6.232   3.983  16.811  0.00  0.00    +0.000 A 
ATOM     11  C   UNL     1       5.240   4.663  17.567  0.00  0.00    +0.000 A 
ATOM     12  H   UNL     1       2.102   6.398  20.416  0.00  0.00    +0.000 HD
ENDROOT
BRANCH   4  13
ATOM     13  C   UNL     1       1.913   8.104  19.281  0.00  0.00    +0.000 A 
ATOM     14  C   UNL     1       2.217   8.741  18.065  0.00  0.00    +0.000 A 
ATOM     15  C   UNL     1       1.830  10.056  17.820  0.00  0.00    +0.000 A 
ATOM     16  C   UNL     1       1.138  10.762  18.795  0.00  0.00    +0.000 A 
ATOM     17  C   UNL     1       0.869  10.164  20.026  0.00  0.00    +0.000 A 
ATOM     18  C   UNL     1       1.270   8.844  20.292  0.00  0.00    +0.000 A 
ATOM     19  C   UNL     1       0.950   8.231  21.626  0.00  0.00    +0.000 C 
ENDBRANCH   4  13
BRANCH   1  21
ATOM     20  C   UNL     1       4.366   2.235  20.033  0.00  0.00    +0.000 C 
ATOM     21  N   UNL     1       5.334   3.176  19.493  0.00  0.00    +0.000 N 
ATOM     22  H   UNL     1       5.980   2.728  18.850  0.00  0.00    +0.000 HD
ENDBRANCH   1  21
TORSDOF 2
ENDMDL
MODEL 8
REMARK VINA RESULT:      -7.0      2.652      5.172
REMARK  Name = 
REMARK  4 active torsions:
REMARK  status: ('A' for Active; 'I' for Inactive)
REMARK    1  A    between atoms: C_1  and  N_2
REMARK    2  A    between atoms: N_2  and  C_3
REMARK    3  A    between atoms: N_6  and  C_7
REMARK    4  A    between atoms: C_12  and  C_13
REMARK                            x       y       z     vdW  Elec       q    Type
REMARK                         _______ _______ _______ _____ _____    ______ ____
ROOT
ATOM      1  C   UNL     1       4.284   4.362  19.058  0.00  0.00    +0.000 A 
ATOM      2  N   UNL     1       4.183   5.651  19.439  0.00  0.00    +0.000 NA
ATOM      3  C   UNL     1       2.967   6.114  19.746  0.00  0.00    +0.000 A 
ATOM      4  N   UNL     1       2.869   7.424  20.221  0.00  0.00    +0.000 N 
ATOM      5  N   UNL     1       1.851   5.378  19.669  0.00  0.00    +0.000 NA
ATOM      6  C   UNL     1       1.945   4.113  19.283  0.00  0.00    +0.000 A 
ATOM      7  C   UNL     1       0.775   3.368  19.209  0.00  0.00    +0.000 A 
ATOM      8  C   UNL     1       0.783   2.022  18.847  0.00  0.00    +0.000 A 
ATOM      9  C   UNL     1       1.987   1.404  18.538  0.00  0.00    +0.000 A 
ATOM     10  C   UNL     1       3.170   2.144  18.585  0.00  0.00    +0.000 A 
ATOM     11  C   UNL     1       3.162   3.512  18.966  0.00  0.00    +0.000 A 
ATOM     12  H   UNL     1       3.757   7.897  20.149  0.00  0.00    +0.000 HD
ENDROOT
BRANCH   4  13
ATOM     13  C   UNL     1       1.730   8.248  20.134  0.00  0.00    +0.000 A 
ATOM     14  C   UNL     1       0.857   8.376  21.228  0.00  0.00    +0.000 A 
ATOM     15  C   UNL     1      -0.237   9.238  21.186  0.00  0.00    +0.000 A 
ATOM     16  C   UNL     1      -0.482   9.981  20.040  0.00  0.00    +0.000 A 
ATOM     17  C   UNL     1       0.345   9.833  18.925  0.00  0.00    +0.000 A 
ATOM     18  C   UNL     1       1.441   8.953  18.950  0.00  0.00    +0.000 A 
ATOM     19  C   UNL     1       2.315   8.832  17.733  0.00  0.00    +0.000 C 
ENDBRANCH   4  13
BRANCH   1  21
ATOM     20  C   UNL     1       6.492   4.834  18.192  0.00  0.00    +0.000 C 
ATOM     21  N   UNL     1       5.561   3.850  18.718  0.00  0.00    +0.000 N 
ATOM     22  H   UNL     1       5.939   3.365  19.527  0.00  0.00    +0.000 HD
ENDBRANCH   1  21
TORSDOF 2
ENDMDL
MODEL 9
REMARK VINA RESULT:      -6.9      2.859      5.013
REMARK  Name = 
REMARK  4 active torsions:
REMARK  status: ('A' for Active; 'I' for Inactive)
REMARK    1  A    between atoms: C_1  and  N_2
REMARK    2  A    between atoms: N_2  and  C_3
REMARK    3  A    between atoms: N_6  and  C_7
REMARK    4  A    between atoms: C_12  and  C_13
REMARK                            x       y       z     vdW  Elec       q    Type
REMARK                         _______ _______ _______ _____ _____    ______ ____
ROOT
ATOM      1  C   UNL     1       4.318   5.490  17.392  0.00  0.00    +0.000 A 
ATOM      2  N   UNL     1       4.081   6.784  17.686  0.00  0.00    +0.000 NA
ATOM      3  C   UNL     1       2.935   7.080  18.307  0.00  0.00    +0.000 A 
ATOM      4  N   UNL     1       2.723   8.408  18.686  0.00  0.00    +0.000 N 
ATOM      5  N   UNL     1       2.007   6.169  18.626  0.00  0.00    +0.000 NA
ATOM      6  C   UNL     1       2.231   4.896  18.328  0.00  0.00    +0.000 A 
ATOM      7  C   UNL     1       1.255   3.969  18.667  0.00  0.00    +0.000 A 
ATOM      8  C   UNL     1       1.421   2.606  18.425  0.00  0.00    +0.000 A 
ATOM      9  C   UNL     1       2.584   2.157  17.818  0.00  0.00    +0.000 A 
ATOM     10  C   UNL     1       3.566   3.078  17.449  0.00  0.00    +0.000 A 
ATOM     11  C   UNL     1       3.402   4.465  17.708  0.00  0.00    +0.000 A 
ATOM     12  H   UNL     1       3.447   9.004  18.315  0.00  0.00    +0.000 HD
ENDROOT
BRANCH   4  13
ATOM     13  C   UNL     1       1.469   9.018  18.882  0.00  0.00    +0.000 A 
ATOM     14  C   UNL     1       0.759   9.554  17.794  0.00  0.00    +0.000 A 
ATOM     15  C   UNL     1      -0.512  10.100  17.956  0.00  0.00    +0.000 A 
ATOM     16  C   UNL     1      -1.091  10.129  19.217  0.00  0.00    +0.000 A 
ATOM     17  C   UNL     1      -0.384   9.646  20.318  0.00  0.00    +0.000 A 
ATOM     18  C   UNL     1       0.906   9.109  20.170  0.00  0.00    +0.000 A 
ATOM     19  C   UNL     1       1.631   8.587  21.379  0.00  0.00    +0.000 C 
ENDBRANCH   4  13
BRANCH   1  21
ATOM     20  C   UNL     1       5.557   5.502  15.315  0.00  0.00    +0.000 C 
ATOM     21  N   UNL     1       5.522   5.151  16.725  0.00  0.00    +0.000 N 
ATOM     22  H   UNL     1       6.299   5.559  17.237  0.00  0.00    +0.000 HD
ENDBRANCH   1  21
TORSDOF 2
ENDMDL
