MODEL 1
REMARK VINA RESULT:      -7.9      0.000      0.000
REMARK  Name = 
REMARK  4 active torsions:
REMARK  status: ('A' for Active; 'I' for Inactive)
REMARK    1  A    between atoms: C_1  and  C_2
REMARK    2  A    between atoms: C_2  and  O_4
REMARK    3  A    between atoms: O_4  and  C_5
REMARK    4  A    between atoms: C_18  and  C_19
REMARK                            x       y       z     vdW  Elec       q    Type
REMARK                         _______ _______ _______ _____ _____    ______ ____
ROOT
ATOM      1  C   UNL     1       6.650   5.521  16.204  0.00  0.00    +0.000 C 
ATOM      2  C   UNL     1       6.244   4.723  17.431  0.00  0.00    +0.000 C 
ATOM      3  C   UNL     1       4.757   4.328  17.151  0.00  0.00    +0.000 C 
ATOM      4  C   UNL     1       4.673   2.807  17.087  0.00  0.00    +0.000 C 
ATOM      5  C   UNL     1       3.256   2.306  17.167  0.00  0.00    +0.000 C 
ATOM      6  C   UNL     1       2.533   2.852  18.384  0.00  0.00    +0.000 C 
ATOM      7  C   UNL     1       3.040   2.377  19.724  0.00  0.00    +0.000 A 
ATOM      8  C   UNL     1       4.255   1.912  20.283  0.00  0.00    +0.000 A 
ATOM      9  C   UNL     1       4.074   1.898  21.653  0.00  0.00    +0.000 A 
ATOM     10  O   UNL     1       2.850   2.394  21.983  0.00  0.00    +0.000 OA
ATOM     11  C   UNL     1       2.270   2.713  20.811  0.00  0.00    +0.000 A 
ATOM     12  C   UNL     1       1.163   3.682  20.718  0.00  0.00    +0.000 C 
ATOM     13  C   UNL     1       1.750   4.863  19.872  0.00  0.00    +0.000 C 
ATOM     14  C   UNL     1       2.396   4.433  18.443  0.00  0.00    +0.000 C 
ATOM     15  C   UNL     1       1.364   4.912  17.398  0.00  0.00    +0.000 C 
ATOM     16  C   UNL     1       3.858   5.055  18.213  0.00  0.00    +0.000 C 
ATOM     17  C   UNL     1       3.953   6.607  17.999  0.00  0.00    +0.000 C 
ATOM     18  C   UNL     1       4.688   7.156  16.732  0.00  0.00    +0.000 C 
ATOM     19  C   UNL     1       5.318   6.138  15.760  0.00  0.00    +0.000 C 
ATOM     20  C   UNL     1       4.448   4.906  15.749  0.00  0.00    +0.000 C 
ENDROOT
BRANCH   1  21
ATOM     21  O   UNL     1       7.658   6.485  16.465  0.00  0.00    +0.000 OA
BRANCH  21  23
ATOM     22  C   UNL     1       7.798   8.423  17.785  0.00  0.00    +0.000 C 
ATOM     23  C   UNL     1       7.694   6.912  17.762  0.00  0.00    +0.000 C 
ATOM     24  O   UNL     1       7.739   6.214  18.759  0.00  0.00    +0.000 OA
ENDBRANCH  21  23
ENDBRANCH   1  21
TORSDOF 2
ENDMDL
MODEL 2
REMARK VINA RESULT:      -7.5      8.656     10.588
REMARK  Name = 
REMARK  4 active torsions:
REMARK  status: ('A' for Active; 'I' for Inactive)
REMARK    1  A    between atoms: C_1  and  C_2
REMARK    2  A    between atoms: C_2  and  O_4
REMARK    3  A    between atoms: O_4  and  C_5
REMARK    4  A    between atoms: C_18  and  C_19
REMARK                            x       y       z     vdW  Elec       q    Type
REMARK                         _______ _______ _______ _____ _____    ______ ____
ROOT
ATOM      1  C   UNL     1       0.526  10.502  19.387  0.00  0.00    +0.000 C 
ATOM      2  C   UNL     1      -0.965  10.726  19.566  0.00  0.00    +0.000 C 
ATOM      3  C   UNL     1      -1.051  12.013  20.451  0.00  0.00    +0.000 C 
ATOM      4  C   UNL     1      -1.769  13.093  19.650  0.00  0.00    +0.000 C 
ATOM      5  C   UNL     1      -2.211  14.247  20.510  0.00  0.00    +0.000 C 
ATOM      6  C   UNL     1      -3.046  13.783  21.689  0.00  0.00    +0.000 C 
ATOM      7  C   UNL     1      -4.393  13.191  21.355  0.00  0.00    +0.000 A 
ATOM      8  C   UNL     1      -5.003  12.511  20.273  0.00  0.00    +0.000 A 
ATOM      9  C   UNL     1      -6.204  12.019  20.748  0.00  0.00    +0.000 A 
ATOM     10  O   UNL     1      -6.344  12.288  22.075  0.00  0.00    +0.000 OA
ATOM     11  C   UNL     1      -5.225  12.952  22.422  0.00  0.00    +0.000 A 
ATOM     12  C   UNL     1      -4.754  13.027  23.816  0.00  0.00    +0.000 C 
ATOM     13  C   UNL     1      -3.381  12.269  23.803  0.00  0.00    +0.000 C 
ATOM     14  C   UNL     1      -2.313  12.799  22.697  0.00  0.00    +0.000 C 
ATOM     15  C   UNL     1      -1.263  13.575  23.521  0.00  0.00    +0.000 C 
ATOM     16  C   UNL     1      -1.676  11.605  21.833  0.00  0.00    +0.000 C 
ATOM     17  C   UNL     1      -0.703  10.621  22.573  0.00  0.00    +0.000 C 
ATOM     18  C   UNL     1       0.725  10.379  21.984  0.00  0.00    +0.000 C 
ATOM     19  C   UNL     1       1.104  11.101  20.676  0.00  0.00    +0.000 C 
ATOM     20  C   UNL     1       0.419  12.445  20.671  0.00  0.00    +0.000 C 
ENDROOT
BRANCH   1  21
ATOM     21  O   UNL     1       0.874   9.140  19.195  0.00  0.00    +0.000 OA
BRANCH  21  23
ATOM     22  C   UNL     1       2.516   7.620  18.479  0.00  0.00    +0.000 C 
ATOM     23  C   UNL     1       1.820   8.942  18.230  0.00  0.00    +0.000 C 
ATOM     24  O   UNL     1       2.147   9.726  17.357  0.00  0.00    +0.000 OA
ENDBRANCH  21  23
ENDBRANCH   1  21
TORSDOF 2
ENDMDL
MODEL 3
REMARK VINA RESULT:      -7.0      8.909     11.392
REMARK  Name = 
REMARK  4 active torsions:
REMARK  status: ('A' for Active; 'I' for Inactive)
REMARK    1  A    between atoms: C_1  and  C_2
REMARK    2  A    between atoms: C_2  and  O_4
REMARK    3  A    between atoms: O_4  and  C_5
REMARK    4  A    between atoms: C_18  and  C_19
REMARK                            x       y       z     vdW  Elec       q    Type
REMARK                         _______ _______ _______ _____ _____    ______ ____
ROOT
ATOM      1  C   UNL     1      -4.256  13.234  22.395  0.00  0.00    +0.000 C 
ATOM      2  C   UNL     1      -3.195  12.150  22.353  0.00  0.00    +0.000 C 
ATOM      3  C   UNL     1      -2.093  12.736  21.410  0.00  0.00    +0.000 C 
ATOM      4  C   UNL     1      -0.807  12.884  22.217  0.00  0.00    +0.000 C 
ATOM      5  C   UNL     1       0.397  13.108  21.342  0.00  0.00    +0.000 C 
ATOM      6  C   UNL     1       0.530  12.034  20.279  0.00  0.00    +0.000 C 
ATOM      7  C   UNL     1       0.840  10.644  20.777  0.00  0.00    +0.000 A 
ATOM      8  C   UNL     1       0.635   9.877  21.950  0.00  0.00    +0.000 A 
ATOM      9  C   UNL     1       0.951   8.572  21.624  0.00  0.00    +0.000 A 
ATOM     10  O   UNL     1       1.269   8.468  20.304  0.00  0.00    +0.000 OA
ATOM     11  C   UNL     1       1.151   9.716  19.813  0.00  0.00    +0.000 A 
ATOM     12  C   UNL     1       0.952   9.981  18.377  0.00  0.00    +0.000 C 
ATOM     13  C   UNL     1      -0.468  10.639  18.296  0.00  0.00    +0.000 C 
ATOM     14  C   UNL     1      -0.684  11.931  19.260  0.00  0.00    +0.000 C 
ATOM     15  C   UNL     1      -0.665  13.136  18.294  0.00  0.00    +0.000 C 
ATOM     16  C   UNL     1      -2.035  11.839  20.122  0.00  0.00    +0.000 C 
ATOM     17  C   UNL     1      -3.394  11.960  19.345  0.00  0.00    +0.000 C 
ATOM     18  C   UNL     1      -4.438  13.030  19.802  0.00  0.00    +0.000 C 
ATOM     19  C   UNL     1      -4.096  13.904  21.025  0.00  0.00    +0.000 C 
ATOM     20  C   UNL     1      -2.606  14.143  21.022  0.00  0.00    +0.000 C 
ENDROOT
BRANCH   1  21
ATOM     21  O   UNL     1      -5.565  12.736  22.628  0.00  0.00    +0.000 OA
BRANCH  21  23
ATOM     22  C   UNL     1      -7.117  13.556  24.189  0.00  0.00    +0.000 C 
ATOM     23  C   UNL     1      -5.907  12.677  23.949  0.00  0.00    +0.000 C 
ATOM     24  O   UNL     1      -5.300  12.103  24.836  0.00  0.00    +0.000 OA
ENDBRANCH  21  23
ENDBRANCH   1  21
TORSDOF 2
ENDMDL
MODEL 4
REMARK VINA RESULT:      -7.0      8.283      9.919
REMARK  Name = 
REMARK  4 active torsions:
REMARK  status: ('A' for Active; 'I' for Inactive)
REMARK    1  A    between atoms: C_1  and  C_2
REMARK    2  A    between atoms: C_2  and  O_4
REMARK    3  A    between atoms: O_4  and  C_5
REMARK    4  A    between atoms: C_18  and  C_19
REMARK                            x       y       z     vdW  Elec       q    Type
REMARK                         _______ _______ _______ _____ _____    ______ ____
ROOT
ATOM      1  C   UNL     1       0.117  15.732  19.009  0.00  0.00    +0.000 C 
ATOM      2  C   UNL     1       0.636  14.345  18.673  0.00  0.00    +0.000 C 
ATOM      3  C   UNL     1      -0.341  13.383  19.425  0.00  0.00    +0.000 C 
ATOM      4  C   UNL     1      -1.055  12.524  18.387  0.00  0.00    +0.000 C 
ATOM      5  C   UNL     1      -1.753  11.341  19.003  0.00  0.00    +0.000 C 
ATOM      6  C   UNL     1      -0.811  10.512  19.856  0.00  0.00    +0.000 C 
ATOM      7  C   UNL     1       0.292   9.794  19.118  0.00  0.00    +0.000 A 
ATOM      8  C   UNL     1       1.036   9.955  17.925  0.00  0.00    +0.000 A 
ATOM      9  C   UNL     1       2.085   9.058  17.994  0.00  0.00    +0.000 A 
ATOM     10  O   UNL     1       2.081   8.402  19.187  0.00  0.00    +0.000 OA
ATOM     11  C   UNL     1       1.022   8.894  19.857  0.00  0.00    +0.000 A 
ATOM     12  C   UNL     1       0.912   8.813  21.324  0.00  0.00    +0.000 C 
ATOM     13  C   UNL     1       0.936  10.307  21.800  0.00  0.00    +0.000 C 
ATOM     14  C   UNL     1      -0.163  11.272  21.090  0.00  0.00    +0.000 C 
ATOM     15  C   UNL     1      -1.228  11.507  22.184  0.00  0.00    +0.000 C 
ATOM     16  C   UNL     1       0.480  12.636  20.537  0.00  0.00    +0.000 C 
ATOM     17  C   UNL     1       0.982  13.677  21.598  0.00  0.00    +0.000 C 
ATOM     18  C   UNL     1       0.457  15.148  21.528  0.00  0.00    +0.000 C 
ATOM     19  C   UNL     1      -0.515  15.519  20.390  0.00  0.00    +0.000 C 
ATOM     20  C   UNL     1      -1.376  14.313  20.103  0.00  0.00    +0.000 C 
ENDROOT
BRANCH   1  21
ATOM     21  O   UNL     1       1.125  16.730  19.000  0.00  0.00    +0.000 OA
BRANCH  21  23
ATOM     22  C   UNL     1      -0.270  17.799  17.440  0.00  0.00    +0.000 C 
ATOM     23  C   UNL     1       1.150  17.480  17.858  0.00  0.00    +0.000 C 
ATOM     24  O   UNL     1       2.133  17.776  17.201  0.00  0.00    +0.000 OA
ENDBRANCH  21  23
ENDBRANCH   1  21
TORSDOF 2
ENDMDL
MODEL 5
REMARK VINA RESULT:      -6.9      7.879     10.057
REMARK  Name = 
REMARK  4 active torsions:
REMARK  status: ('A' for Active; 'I' for Inactive)
REMARK    1  A    between atoms: C_1  and  C_2
REMARK    2  A    between atoms: C_2  and  O_4
REMARK    3  A    between atoms: O_4  and  C_5
REMARK    4  A    between atoms: C_18  and  C_19
REMARK                            x       y       z     vdW  Elec       q    Type
REMARK                         _______ _______ _______ _____ _____    ______ ____
ROOT
ATOM      1  C   UNL     1       1.005   8.905  20.674  0.00  0.00    +0.000 C 
ATOM      2  C   UNL     1      -0.368   9.414  20.274  0.00  0.00    +0.000 C 
ATOM      3  C   UNL     1      -0.366  10.909  20.732  0.00  0.00    +0.000 C 
ATOM      4  C   UNL     1      -0.533  11.785  19.495  0.00  0.00    +0.000 C 
ATOM      5  C   UNL     1      -0.888  13.206  19.842  0.00  0.00    +0.000 C 
ATOM      6  C   UNL     1      -2.107  13.279  20.743  0.00  0.00    +0.000 C 
ATOM      7  C   UNL     1      -3.413  12.839  20.127  0.00  0.00    +0.000 A 
ATOM      8  C   UNL     1      -3.850  11.963  19.105  0.00  0.00    +0.000 A 
ATOM      9  C   UNL     1      -5.220  11.848  19.249  0.00  0.00    +0.000 A 
ATOM     10  O   UNL     1      -5.650  12.539  20.340  0.00  0.00    +0.000 OA
ATOM     11  C   UNL     1      -4.541  13.086  20.871  0.00  0.00    +0.000 A 
ATOM     12  C   UNL     1      -4.472  13.517  22.279  0.00  0.00    +0.000 C 
ATOM     13  C   UNL     1      -3.390  12.582  22.920  0.00  0.00    +0.000 C 
ATOM     14  C   UNL     1      -1.959  12.556  22.149  0.00  0.00    +0.000 C 
ATOM     15  C   UNL     1      -1.017  13.369  23.064  0.00  0.00    +0.000 C 
ATOM     16  C   UNL     1      -1.433  11.064  21.874  0.00  0.00    +0.000 C 
ATOM     17  C   UNL     1      -0.988  10.218  23.118  0.00  0.00    +0.000 C 
ATOM     18  C   UNL     1       0.437   9.574  23.129  0.00  0.00    +0.000 C 
ATOM     19  C   UNL     1       1.335   9.775  21.892  0.00  0.00    +0.000 C 
ATOM     20  C   UNL     1       1.044  11.143  21.325  0.00  0.00    +0.000 C 
ENDROOT
BRANCH   1  21
ATOM     21  O   UNL     1       1.035   7.514  20.952  0.00  0.00    +0.000 OA
BRANCH  21  23
ATOM     22  C   UNL     1       1.891   5.357  20.586  0.00  0.00    +0.000 C 
ATOM     23  C   UNL     1       1.880   6.806  20.145  0.00  0.00    +0.000 C 
ATOM     24  O   UNL     1       2.599   7.254  19.270  0.00  0.00    +0.000 OA
ENDBRANCH  21  23
ENDBRANCH   1  21
TORSDOF 2
ENDMDL
MODEL 6
REMARK VINA RESULT:      -6.9      9.856     12.290
REMARK  Name = 
REMARK  4 active torsions:
REMARK  status: ('A' for Active; 'I' for Inactive)
REMARK    1  A    between atoms: C_1  and  C_2
REMARK    2  A    between atoms: C_2  and  O_4
REMARK    3  A    between atoms: O_4  and  C_5
REMARK    4  A    between atoms: C_18  and  C_19
REMARK                            x       y       z     vdW  Elec       q    Type
REMARK                         _______ _______ _______ _____ _____    ______ ____
ROOT
ATOM      1  C   UNL     1      -5.328  13.776  22.365  0.00  0.00    +0.000 C 
ATOM      2  C   UNL     1      -4.319  12.660  22.566  0.00  0.00    +0.000 C 
ATOM      3  C   UNL     1      -3.025  13.189  21.865  0.00  0.00    +0.000 C 
ATOM      4  C   UNL     1      -1.932  13.319  22.920  0.00  0.00    +0.000 C 
ATOM      5  C   UNL     1      -0.564  13.486  22.313  0.00  0.00    +0.000 C 
ATOM      6  C   UNL     1      -0.250  12.381  21.320  0.00  0.00    +0.000 C 
ATOM      7  C   UNL     1      -0.099  10.995  21.897  0.00  0.00    +0.000 A 
ATOM      8  C   UNL     1      -0.569  10.265  23.015  0.00  0.00    +0.000 A 
ATOM      9  C   UNL     1      -0.238   8.943  22.785  0.00  0.00    +0.000 A 
ATOM     10  O   UNL     1       0.344   8.797  21.564  0.00  0.00    +0.000 OA
ATOM     11  C   UNL     1       0.375  10.035  21.036  0.00  0.00    +0.000 A 
ATOM     12  C   UNL     1       0.489  10.270  19.586  0.00  0.00    +0.000 C 
ATOM     13  C   UNL     1      -0.859  10.969  19.197  0.00  0.00    +0.000 C 
ATOM     14  C   UNL     1      -1.226  12.290  20.071  0.00  0.00    +0.000 C 
ATOM     15  C   UNL     1      -0.965  13.469  19.109  0.00  0.00    +0.000 C 
ATOM     16  C   UNL     1      -2.731  12.260  20.633  0.00  0.00    +0.000 C 
ATOM     17  C   UNL     1      -3.892  12.401  19.587  0.00  0.00    +0.000 C 
ATOM     18  C   UNL     1      -4.971  13.513  19.796  0.00  0.00    +0.000 C 
ATOM     19  C   UNL     1      -4.862  14.407  21.047  0.00  0.00    +0.000 C 
ATOM     20  C   UNL     1      -3.397  14.601  21.352  0.00  0.00    +0.000 C 
ENDROOT
BRANCH   1  21
ATOM     21  O   UNL     1      -6.672  13.324  22.328  0.00  0.00    +0.000 OA
BRANCH  21  23
ATOM     22  C   UNL     1      -7.197  14.953  23.938  0.00  0.00    +0.000 C 
ATOM     23  C   UNL     1      -7.352  13.512  23.498  0.00  0.00    +0.000 C 
ATOM     24  O   UNL     1      -7.916  12.658  24.159  0.00  0.00    +0.000 OA
ENDBRANCH  21  23
ENDBRANCH   1  21
TORSDOF 2
ENDMDL
MODEL 7
REMARK VINA RESULT:      -6.9      8.224     10.910
REMARK  Name = 
REMARK  4 active torsions:
REMARK  status: ('A' for Active; 'I' for Inactive)
REMARK    1  A    between atoms: C_1  and  C_2
REMARK    2  A    between atoms: C_2  and  O_4
REMARK    3  A    between atoms: O_4  and  C_5
REMARK    4  A    between atoms: C_18  and  C_19
REMARK                            x       y       z     vdW  Elec       q    Type
REMARK                         _______ _______ _______ _____ _____    ______ ____
ROOT
ATOM      1  C   UNL     1       1.086  10.284  19.174  0.00  0.00    +0.000 C 
ATOM      2  C   UNL     1       1.745  11.570  18.711  0.00  0.00    +0.000 C 
ATOM      3  C   UNL     1       1.154  12.662  19.662  0.00  0.00    +0.000 C 
ATOM      4  C   UNL     1       2.303  13.270  20.459  0.00  0.00    +0.000 C 
ATOM      5  C   UNL     1       1.911  14.551  21.146  0.00  0.00    +0.000 C 
ATOM      6  C   UNL     1       1.319  15.554  20.173  0.00  0.00    +0.000 C 
ATOM      7  C   UNL     1       2.264  16.107  19.135  0.00  0.00    +0.000 A 
ATOM      8  C   UNL     1       3.442  15.700  18.463  0.00  0.00    +0.000 A 
ATOM      9  C   UNL     1       3.635  16.602  17.434  0.00  0.00    +0.000 A 
ATOM     10  O   UNL     1       2.613  17.499  17.380  0.00  0.00    +0.000 OA
ATOM     11  C   UNL     1       1.785  17.152  18.383  0.00  0.00    +0.000 A 
ATOM     12  C   UNL     1       0.365  17.546  18.404  0.00  0.00    +0.000 C 
ATOM     13  C   UNL     1      -0.417  16.190  18.315  0.00  0.00    +0.000 C 
ATOM     14  C   UNL     1      -0.004  15.083  19.432  0.00  0.00    +0.000 C 
ATOM     15  C   UNL     1      -1.190  15.079  20.422  0.00  0.00    +0.000 C 
ATOM     16  C   UNL     1       0.285  13.639  18.792  0.00  0.00    +0.000 C 
ATOM     17  C   UNL     1      -0.940  12.857  18.200  0.00  0.00    +0.000 C 
ATOM     18  C   UNL     1      -1.221  11.399  18.693  0.00  0.00    +0.000 C 
ATOM     19  C   UNL     1      -0.256  10.782  19.725  0.00  0.00    +0.000 C 
ATOM     20  C   UNL     1       0.227  11.889  20.630  0.00  0.00    +0.000 C 
ENDROOT
BRANCH   1  21
ATOM     21  O   UNL     1       0.948   9.317  18.145  0.00  0.00    +0.000 OA
BRANCH  21  23
ATOM     22  C   UNL     1       2.208   7.708  19.303  0.00  0.00    +0.000 C 
ATOM     23  C   UNL     1       2.025   8.486  18.017  0.00  0.00    +0.000 C 
ATOM     24  O   UNL     1       2.794   8.429  17.075  0.00  0.00    +0.000 OA
ENDBRANCH  21  23
ENDBRANCH   1  21
TORSDOF 2
ENDMDL
MODEL 8
REMARK VINA RESULT:      -6.8      8.380      9.815
REMARK  Name = 
REMARK  4 active torsions:
REMARK  status: ('A' for Active; 'I' for Inactive)
REMARK    1  A    between atoms: C_1  and  C_2
REMARK    2  A    between atoms: C_2  and  O_4
REMARK    3  A    between atoms: O_4  and  C_5
REMARK    4  A    between atoms: C_18  and  C_19
REMARK                            x       y       z     vdW  Elec       q    Type
REMARK                         _______ _______ _______ _____ _____    ______ ____
ROOT
ATOM      1  C   UNL     1       3.246  15.023  19.309  0.00  0.00    +0.000 C 
ATOM      2  C   UNL     1       2.879  13.761  20.069  0.00  0.00    +0.000 C 
ATOM      3  C   UNL     1       1.329  13.648  19.889  0.00  0.00    +0.000 C 
ATOM      4  C   UNL     1       1.031  12.356  19.137  0.00  0.00    +0.000 C 
ATOM      5  C   UNL     1      -0.423  11.973  19.208  0.00  0.00    +0.000 C 
ATOM      6  C   UNL     1      -0.920  11.908  20.641  0.00  0.00    +0.000 C 
ATOM      7  C   UNL     1      -0.331  10.814  21.497  0.00  0.00    +0.000 A 
ATOM      8  C   UNL     1       0.864  10.058  21.562  0.00  0.00    +0.000 A 
ATOM      9  C   UNL     1       0.842   9.397  22.775  0.00  0.00    +0.000 A 
ATOM     10  O   UNL     1      -0.256   9.750  23.497  0.00  0.00    +0.000 OA
ATOM     11  C   UNL     1      -0.918  10.633  22.726  0.00  0.00    +0.000 A 
ATOM     12  C   UNL     1      -1.885  11.595  23.283  0.00  0.00    +0.000 C 
ATOM     13  C   UNL     1      -1.242  12.998  23.003  0.00  0.00    +0.000 C 
ATOM     14  C   UNL     1      -0.831  13.270  21.454  0.00  0.00    +0.000 C 
ATOM     15  C   UNL     1      -1.900  14.260  20.943  0.00  0.00    +0.000 C 
ATOM     16  C   UNL     1       0.667  13.829  21.301  0.00  0.00    +0.000 C 
ATOM     17  C   UNL     1       0.948  15.281  21.825  0.00  0.00    +0.000 C 
ATOM     18  C   UNL     1       1.601  16.324  20.859  0.00  0.00    +0.000 C 
ATOM     19  C   UNL     1       1.969  15.864  19.435  0.00  0.00    +0.000 C 
ATOM     20  C   UNL     1       0.942  14.850  18.994  0.00  0.00    +0.000 C 
ENDROOT
BRANCH   1  21
ATOM     21  O   UNL     1       4.400  15.674  19.818  0.00  0.00    +0.000 OA
BRANCH  21  23
ATOM     22  C   UNL     1       5.783  15.153  17.992  0.00  0.00    +0.000 C 
ATOM     23  C   UNL     1       5.184  16.243  18.855  0.00  0.00    +0.000 C 
ATOM     24  O   UNL     1       5.459  17.424  18.742  0.00  0.00    +0.000 OA
ENDBRANCH  21  23
ENDBRANCH   1  21
TORSDOF 2
ENDMDL
MODEL 9
REMARK VINA RESULT:      -6.7      8.276      9.845
REMARK  Name = 
REMARK  4 active torsions:
REMARK  status: ('A' for Active; 'I' for Inactive)
REMARK    1  A    between atoms: C_1  and  C_2
REMARK    2  A    between atoms: C_2  and  O_4
REMARK    3  A    between atoms: O_4  and  C_5
REMARK    4  A    between atoms: C_18  and  C_19
REMARK                            x       y       z     vdW  Elec       q    Type
REMARK                         _______ _______ _______ _____ _____    ______ ____
ROOT
ATOM      1  C   UNL     1       1.105  16.009  18.816  0.00  0.00    +0.000 C 
ATOM      2  C   UNL     1       1.361  14.515  18.731  0.00  0.00    +0.000 C 
ATOM      3  C   UNL     1       0.045  13.873  19.282  0.00  0.00    +0.000 C 
ATOM      4  C   UNL     1      -0.583  13.046  18.166  0.00  0.00    +0.000 C 
ATOM      5  C   UNL     1      -1.653  12.116  18.673  0.00  0.00    +0.000 C 
ATOM      6  C   UNL     1      -1.146  11.235  19.800  0.00  0.00    +0.000 C 
ATOM      7  C   UNL     1      -0.092  10.221  19.425  0.00  0.00    +0.000 A 
ATOM      8  C   UNL     1       0.924  10.073  18.451  0.00  0.00    +0.000 A 
ATOM      9  C   UNL     1       1.699   9.002  18.854  0.00  0.00    +0.000 A 
ATOM     10  O   UNL     1       1.270   8.522  20.054  0.00  0.00    +0.000 OA
ATOM     11  C   UNL     1       0.225   9.299  20.393  0.00  0.00    +0.000 A 
ATOM     12  C   UNL     1      -0.238   9.434  21.785  0.00  0.00    +0.000 C 
ATOM     13  C   UNL     1       0.011  10.941  22.134  0.00  0.00    +0.000 C 
ATOM     14  C   UNL     1      -0.647  12.006  21.096  0.00  0.00    +0.000 C 
ATOM     15  C   UNL     1      -1.856  12.588  21.860  0.00  0.00    +0.000 C 
ATOM     16  C   UNL     1       0.396  13.130  20.620  0.00  0.00    +0.000 C 
ATOM     17  C   UNL     1       0.861  14.179  21.691  0.00  0.00    +0.000 C 
ATOM     18  C   UNL     1       0.711  15.703  21.375  0.00  0.00    +0.000 C 
ATOM     19  C   UNL     1       0.138  16.109  20.003  0.00  0.00    +0.000 C 
ATOM     20  C   UNL     1      -0.881  15.072  19.600  0.00  0.00    +0.000 C 
ENDROOT
BRANCH   1  21
ATOM     21  O   UNL     1       2.286  16.777  18.986  0.00  0.00    +0.000 OA
BRANCH  21  23
ATOM     22  C   UNL     1       4.409  16.088  18.254  0.00  0.00    +0.000 C 
ATOM     23  C   UNL     1       3.108  16.776  17.895  0.00  0.00    +0.000 C 
ATOM     24  O   UNL     1       2.902  17.319  16.825  0.00  0.00    +0.000 OA
ENDBRANCH  21  23
ENDBRANCH   1  21
TORSDOF 2
ENDMDL
