MODEL 1
REMARK VINA RESULT:      -7.7      0.000      0.000
REMARK  Name = 
REMARK  6 active torsions:
REMARK  status: ('A' for Active; 'I' for Inactive)
REMARK    1  A    between atoms: C_1  and  C_2
REMARK    2  A    between atoms: C_2  and  C_3
REMARK    3  A    between atoms: C_11  and  O_12
REMARK    4  A    between atoms: O_12  and  C_13
REMARK    5  A    between atoms: C_13  and  C_14
REMARK    6  A    between atoms: C_14  and  O_16
REMARK                            x       y       z     vdW  Elec       q    Type
REMARK                         _______ _______ _______ _____ _____    ______ ____
ROOT
ATOM      1  C   UNL     1       6.088   4.359  14.560  0.00  0.00    +0.000 C 
ATOM      2  C   UNL     1       5.885   4.805  16.019  0.00  0.00    +0.000 C 
ATOM      3  C   UNL     1       5.036   3.745  16.764  0.00  0.00    +0.000 C 
ATOM      4  C   UNL     1       4.190   4.586  17.673  0.00  0.00    +0.000 A 
ATOM      5  C   UNL     1       3.571   4.178  18.838  0.00  0.00    +0.000 A 
ATOM      6  C   UNL     1       2.835   5.114  19.575  0.00  0.00    +0.000 A 
ATOM      7  C   UNL     1       2.759   6.464  19.140  0.00  0.00    +0.000 A 
ATOM      8 CL   UNL     1       1.914   7.612  20.136  0.00  0.00    +0.000 Cl
ATOM      9  C   UNL     1       3.380   6.870  17.943  0.00  0.00    +0.000 A 
ATOM     10 CL   UNL     1       3.350   8.511  17.410  0.00  0.00    +0.000 Cl
ATOM     11  C   UNL     1       4.085   5.907  17.236  0.00  0.00    +0.000 A 
ATOM     12  C   UNL     1       4.961   6.024  16.068  0.00  0.00    +0.000 C 
ATOM     13  O   UNL     1       4.947   6.951  15.279  0.00  0.00    +0.000 OA
ENDROOT
BRANCH   2  14
ATOM     14  C   UNL     1       7.279   5.052  16.700  0.00  0.00    +0.000 C 
ATOM     15  C   UNL     1       7.520   4.499  18.115  0.00  0.00    +0.000 C 
ATOM     16  C   UNL     1       7.073   5.585  19.084  0.00  0.00    +0.000 C 
ATOM     17  C   UNL     1       7.146   6.893  18.303  0.00  0.00    +0.000 C 
ATOM     18  C   UNL     1       7.643   6.530  16.903  0.00  0.00    +0.000 C 
ENDBRANCH   2  14
BRANCH   6  19
ATOM     19  O   UNL     1       2.183   4.786  20.743  0.00  0.00    +0.000 OA
BRANCH  19  20
ATOM     20  C   UNL     1       1.413   3.582  20.696  0.00  0.00    +0.000 C 
BRANCH  20  21
ATOM     21  C   UNL     1       1.814   2.632  21.805  0.00  0.00    +0.000 C 
ATOM     22  O   UNL     1       1.031   2.200  22.640  0.00  0.00    +0.000 OA
BRANCH  21  23
ATOM     23  O   UNL     1       3.126   2.294  21.791  0.00  0.00    +0.000 OA
ATOM     24  H   UNL     1       3.671   3.021  22.167  0.00  0.00    +0.000 HD
ENDBRANCH  21  23
ENDBRANCH  20  21
ENDBRANCH  19  20
ENDBRANCH   6  19
TORSDOF 5
ENDMDL
MODEL 2
REMARK VINA RESULT:      -7.7      1.247      1.493
REMARK  Name = 
REMARK  6 active torsions:
REMARK  status: ('A' for Active; 'I' for Inactive)
REMARK    1  A    between atoms: C_1  and  C_2
REMARK    2  A    between atoms: C_2  and  C_3
REMARK    3  A    between atoms: C_11  and  O_12
REMARK    4  A    between atoms: O_12  and  C_13
REMARK    5  A    between atoms: C_13  and  C_14
REMARK    6  A    between atoms: C_14  and  O_16
REMARK                            x       y       z     vdW  Elec       q    Type
REMARK                         _______ _______ _______ _____ _____    ______ ____
ROOT
ATOM      1  C   UNL     1       6.310   4.710  14.174  0.00  0.00    +0.000 C 
ATOM      2  C   UNL     1       6.129   4.887  15.691  0.00  0.00    +0.000 C 
ATOM      3  C   UNL     1       5.495   3.604  16.284  0.00  0.00    +0.000 C 
ATOM      4  C   UNL     1       4.588   4.151  17.346  0.00  0.00    +0.000 A 
ATOM      5  C   UNL     1       4.107   3.475  18.450  0.00  0.00    +0.000 A 
ATOM      6  C   UNL     1       3.284   4.157  19.354  0.00  0.00    +0.000 A 
ATOM      7  C   UNL     1       2.981   5.530  19.146  0.00  0.00    +0.000 A 
ATOM      8 CL   UNL     1       2.034   6.362  20.344  0.00  0.00    +0.000 Cl
ATOM      9  C   UNL     1       3.461   6.208  18.011  0.00  0.00    +0.000 A 
ATOM     10 CL   UNL     1       3.154   7.887  17.753  0.00  0.00    +0.000 Cl
ATOM     11  C   UNL     1       4.260   5.490  17.133  0.00  0.00    +0.000 A 
ATOM     12  C   UNL     1       5.037   5.923  15.970  0.00  0.00    +0.000 C 
ATOM     13  O   UNL     1       4.837   6.947  15.342  0.00  0.00    +0.000 OA
ENDROOT
BRANCH   2  14
ATOM     14  C   UNL     1       7.508   5.242  16.355  0.00  0.00    +0.000 C 
ATOM     15  C   UNL     1       7.910   4.527  17.656  0.00  0.00    +0.000 C 
ATOM     16  C   UNL     1       7.364   5.373  18.799  0.00  0.00    +0.000 C 
ATOM     17  C   UNL     1       7.198   6.779  18.231  0.00  0.00    +0.000 C 
ATOM     18  C   UNL     1       7.660   6.711  16.775  0.00  0.00    +0.000 C 
ENDBRANCH   2  14
BRANCH   6  19
ATOM     19  O   UNL     1       2.759   3.554  20.476  0.00  0.00    +0.000 OA
BRANCH  19  20
ATOM     20  C   UNL     1       1.999   2.367  20.233  0.00  0.00    +0.000 C 
BRANCH  20  21
ATOM     21  C   UNL     1       0.718   2.681  19.488  0.00  0.00    +0.000 C 
ATOM     22  O   UNL     1       0.369   2.097  18.471  0.00  0.00    +0.000 OA
BRANCH  21  23
ATOM     23  O   UNL     1      -0.016   3.669  20.052  0.00  0.00    +0.000 OA
ATOM     24  H   UNL     1       0.459   4.528  19.990  0.00  0.00    +0.000 HD
ENDBRANCH  21  23
ENDBRANCH  20  21
ENDBRANCH  19  20
ENDBRANCH   6  19
TORSDOF 5
ENDMDL
MODEL 3
REMARK VINA RESULT:      -7.2      1.923      5.992
REMARK  Name = 
REMARK  6 active torsions:
REMARK  status: ('A' for Active; 'I' for Inactive)
REMARK    1  A    between atoms: C_1  and  C_2
REMARK    2  A    between atoms: C_2  and  C_3
REMARK    3  A    between atoms: C_11  and  O_12
REMARK    4  A    between atoms: O_12  and  C_13
REMARK    5  A    between atoms: C_13  and  C_14
REMARK    6  A    between atoms: C_14  and  O_16
REMARK                            x       y       z     vdW  Elec       q    Type
REMARK                         _______ _______ _______ _____ _____    ______ ____
ROOT
ATOM      1  C   UNL     1       1.984   2.863  21.969  0.00  0.00    +0.000 C 
ATOM      2  C   UNL     1       2.492   3.194  20.555  0.00  0.00    +0.000 C 
ATOM      3  C   UNL     1       4.017   2.935  20.486  0.00  0.00    +0.000 C 
ATOM      4  C   UNL     1       4.494   4.040  19.592  0.00  0.00    +0.000 A 
ATOM      5  C   UNL     1       5.662   4.061  18.854  0.00  0.00    +0.000 A 
ATOM      6  C   UNL     1       5.934   5.176  18.052  0.00  0.00    +0.000 A 
ATOM      7  C   UNL     1       5.004   6.247  17.981  0.00  0.00    +0.000 A 
ATOM      8 CL   UNL     1       5.338   7.568  16.900  0.00  0.00    +0.000 Cl
ATOM      9  C   UNL     1       3.824   6.227  18.748  0.00  0.00    +0.000 A 
ATOM     10 CL   UNL     1       2.650   7.488  18.650  0.00  0.00    +0.000 Cl
ATOM     11  C   UNL     1       3.601   5.111  19.541  0.00  0.00    +0.000 A 
ATOM     12  C   UNL     1       2.429   4.705  20.318  0.00  0.00    +0.000 C 
ATOM     13  O   UNL     1       1.553   5.458  20.700  0.00  0.00    +0.000 OA
ENDROOT
BRANCH   2  14
ATOM     14  C   UNL     1       1.688   2.362  19.492  0.00  0.00    +0.000 C 
ATOM     15  C   UNL     1       2.454   1.714  18.326  0.00  0.00    +0.000 C 
ATOM     16  C   UNL     1       2.487   2.746  17.206  0.00  0.00    +0.000 C 
ATOM     17  C   UNL     1       1.310   3.680  17.467  0.00  0.00    +0.000 C 
ATOM     18  C   UNL     1       0.619   3.158  18.728  0.00  0.00    +0.000 C 
ENDBRANCH   2  14
BRANCH   6  19
ATOM     19  O   UNL     1       7.078   5.276  17.291  0.00  0.00    +0.000 OA
BRANCH  19  20
ATOM     20  C   UNL     1       7.204   4.308  16.246  0.00  0.00    +0.000 C 
BRANCH  20  21
ATOM     21  C   UNL     1       6.787   4.886  14.910  0.00  0.00    +0.000 C 
ATOM     22  O   UNL     1       5.652   4.798  14.462  0.00  0.00    +0.000 OA
BRANCH  21  23
ATOM     23  O   UNL     1       7.786   5.520  14.250  0.00  0.00    +0.000 OA
ATOM     24  H   UNL     1       8.618   5.483  14.772  0.00  0.00    +0.000 HD
ENDBRANCH  21  23
ENDBRANCH  20  21
ENDBRANCH  19  20
ENDBRANCH   6  19
TORSDOF 5
ENDMDL
MODEL 4
REMARK VINA RESULT:      -7.1      2.474      6.469
REMARK  Name = 
REMARK  6 active torsions:
REMARK  status: ('A' for Active; 'I' for Inactive)
REMARK    1  A    between atoms: C_1  and  C_2
REMARK    2  A    between atoms: C_2  and  C_3
REMARK    3  A    between atoms: C_11  and  O_12
REMARK    4  A    between atoms: O_12  and  C_13
REMARK    5  A    between atoms: C_13  and  C_14
REMARK    6  A    between atoms: C_14  and  O_16
REMARK                            x       y       z     vdW  Elec       q    Type
REMARK                         _______ _______ _______ _____ _____    ______ ____
ROOT
ATOM      1  C   UNL     1       2.208   1.704  19.228  0.00  0.00    +0.000 C 
ATOM      2  C   UNL     1       2.661   3.028  18.589  0.00  0.00    +0.000 C 
ATOM      3  C   UNL     1       3.050   2.776  17.111  0.00  0.00    +0.000 C 
ATOM      4  C   UNL     1       4.217   3.697  16.920  0.00  0.00    +0.000 A 
ATOM      5  C   UNL     1       4.686   4.199  15.721  0.00  0.00    +0.000 A 
ATOM      6  C   UNL     1       5.782   5.072  15.737  0.00  0.00    +0.000 A 
ATOM      7  C   UNL     1       6.372   5.452  16.972  0.00  0.00    +0.000 A 
ATOM      8 CL   UNL     1       7.669   6.611  16.950  0.00  0.00    +0.000 Cl
ATOM      9  C   UNL     1       5.899   4.925  18.188  0.00  0.00    +0.000 A 
ATOM     10 CL   UNL     1       6.561   5.402  19.709  0.00  0.00    +0.000 Cl
ATOM     11  C   UNL     1       4.823   4.051  18.126  0.00  0.00    +0.000 A 
ATOM     12  C   UNL     1       4.002   3.464  19.185  0.00  0.00    +0.000 C 
ATOM     13  O   UNL     1       4.343   3.353  20.349  0.00  0.00    +0.000 OA
ENDROOT
BRANCH   2  14
ATOM     14  C   UNL     1       1.531   4.109  18.741  0.00  0.00    +0.000 C 
ATOM     15  C   UNL     1       1.871   5.581  18.454  0.00  0.00    +0.000 C 
ATOM     16  C   UNL     1       2.349   6.177  19.771  0.00  0.00    +0.000 C 
ATOM     17  C   UNL     1       1.751   5.299  20.865  0.00  0.00    +0.000 C 
ATOM     18  C   UNL     1       0.935   4.220  20.152  0.00  0.00    +0.000 C 
ENDBRANCH   2  14
BRANCH   6  19
ATOM     19  O   UNL     1       6.313   5.610  14.586  0.00  0.00    +0.000 OA
BRANCH  19  20
ATOM     20  C   UNL     1       7.401   4.879  14.015  0.00  0.00    +0.000 C 
BRANCH  20  21
ATOM     21  C   UNL     1       6.985   4.193  12.731  0.00  0.00    +0.000 C 
ATOM     22  O   UNL     1       7.256   4.621  11.618  0.00  0.00    +0.000 OA
BRANCH  21  23
ATOM     23  O   UNL     1       6.283   3.050  12.923  0.00  0.00    +0.000 OA
ATOM     24  H   UNL     1       6.822   2.269  12.665  0.00  0.00    +0.000 HD
ENDBRANCH  21  23
ENDBRANCH  20  21
ENDBRANCH  19  20
ENDBRANCH   6  19
TORSDOF 5
ENDMDL
MODEL 5
REMARK VINA RESULT:      -7.0      2.352      5.836
REMARK  Name = 
REMARK  6 active torsions:
REMARK  status: ('A' for Active; 'I' for Inactive)
REMARK    1  A    between atoms: C_1  and  C_2
REMARK    2  A    between atoms: C_2  and  C_3
REMARK    3  A    between atoms: C_11  and  O_12
REMARK    4  A    between atoms: O_12  and  C_13
REMARK    5  A    between atoms: C_13  and  C_14
REMARK    6  A    between atoms: C_14  and  O_16
REMARK                            x       y       z     vdW  Elec       q    Type
REMARK                         _______ _______ _______ _____ _____    ______ ____
ROOT
ATOM      1  C   UNL     1       1.525   2.860  22.136  0.00  0.00    +0.000 C 
ATOM      2  C   UNL     1       2.038   3.161  20.717  0.00  0.00    +0.000 C 
ATOM      3  C   UNL     1       3.541   2.798  20.628  0.00  0.00    +0.000 C 
ATOM      4  C   UNL     1       4.083   3.872  19.732  0.00  0.00    +0.000 A 
ATOM      5  C   UNL     1       5.240   3.815  18.980  0.00  0.00    +0.000 A 
ATOM      6  C   UNL     1       5.579   4.912  18.178  0.00  0.00    +0.000 A 
ATOM      7  C   UNL     1       4.724   6.045  18.123  0.00  0.00    +0.000 A 
ATOM      8 CL   UNL     1       5.135   7.344  17.041  0.00  0.00    +0.000 Cl
ATOM      9  C   UNL     1       3.554   6.103  18.903  0.00  0.00    +0.000 A 
ATOM     10 CL   UNL     1       2.468   7.443  18.823  0.00  0.00    +0.000 Cl
ATOM     11  C   UNL     1       3.265   5.002  19.696  0.00  0.00    +0.000 A 
ATOM     12  C   UNL     1       2.076   4.674  20.485  0.00  0.00    +0.000 C 
ATOM     13  O   UNL     1       1.258   5.485  20.880  0.00  0.00    +0.000 OA
ENDROOT
BRANCH   2  14
ATOM     14  C   UNL     1       1.166   2.391  19.660  0.00  0.00    +0.000 C 
ATOM     15  C   UNL     1       1.864   1.427  18.686  0.00  0.00    +0.000 C 
ATOM     16  C   UNL     1       2.258   2.254  17.470  0.00  0.00    +0.000 C 
ATOM     17  C   UNL     1       1.322   3.458  17.465  0.00  0.00    +0.000 C 
ATOM     18  C   UNL     1       0.404   3.292  18.677  0.00  0.00    +0.000 C 
ENDBRANCH   2  14
BRANCH   6  19
ATOM     19  O   UNL     1       6.718   4.937  17.404  0.00  0.00    +0.000 OA
BRANCH  19  20
ATOM     20  C   UNL     1       7.947   4.800  18.121  0.00  0.00    +0.000 C 
BRANCH  20  21
ATOM     21  C   UNL     1       8.128   5.925  19.118  0.00  0.00    +0.000 C 
ATOM     22  O   UNL     1       8.292   7.093  18.794  0.00  0.00    +0.000 OA
BRANCH  21  23
ATOM     23  O   UNL     1       8.089   5.523  20.411  0.00  0.00    +0.000 OA
ATOM     24  H   UNL     1       7.331   4.914  20.558  0.00  0.00    +0.000 HD
ENDBRANCH  21  23
ENDBRANCH  20  21
ENDBRANCH  19  20
ENDBRANCH   6  19
TORSDOF 5
ENDMDL
MODEL 6
REMARK VINA RESULT:      -6.9      2.090      6.166
REMARK  Name = 
REMARK  6 active torsions:
REMARK  status: ('A' for Active; 'I' for Inactive)
REMARK    1  A    between atoms: C_1  and  C_2
REMARK    2  A    between atoms: C_2  and  C_3
REMARK    3  A    between atoms: C_11  and  O_12
REMARK    4  A    between atoms: O_12  and  C_13
REMARK    5  A    between atoms: C_13  and  C_14
REMARK    6  A    between atoms: C_14  and  O_16
REMARK                            x       y       z     vdW  Elec       q    Type
REMARK                         _______ _______ _______ _____ _____    ______ ____
ROOT
ATOM      1  C   UNL     1       2.291   3.878  21.934  0.00  0.00    +0.000 C 
ATOM      2  C   UNL     1       2.585   3.910  20.424  0.00  0.00    +0.000 C 
ATOM      3  C   UNL     1       4.044   3.451  20.178  0.00  0.00    +0.000 C 
ATOM      4  C   UNL     1       4.473   4.328  19.040  0.00  0.00    +0.000 A 
ATOM      5  C   UNL     1       5.497   4.081  18.146  0.00  0.00    +0.000 A 
ATOM      6  C   UNL     1       5.741   5.009  17.126  0.00  0.00    +0.000 A 
ATOM      7  C   UNL     1       4.925   6.164  17.003  0.00  0.00    +0.000 A 
ATOM      8 CL   UNL     1       5.204   7.240  15.665  0.00  0.00    +0.000 Cl
ATOM      9  C   UNL     1       3.893   6.419  17.927  0.00  0.00    +0.000 A 
ATOM     10 CL   UNL     1       2.852   7.787  17.778  0.00  0.00    +0.000 Cl
ATOM     11  C   UNL     1       3.696   5.482  18.931  0.00  0.00    +0.000 A 
ATOM     12  C   UNL     1       2.636   5.359  19.932  0.00  0.00    +0.000 C 
ATOM     13  O   UNL     1       1.915   6.270  20.299  0.00  0.00    +0.000 OA
ENDROOT
BRANCH   2  14
ATOM     14  C   UNL     1       1.536   3.028  19.658  0.00  0.00    +0.000 C 
ATOM     15  C   UNL     1       1.977   1.658  19.113  0.00  0.00    +0.000 C 
ATOM     16  C   UNL     1       2.506   1.905  17.706  0.00  0.00    +0.000 C 
ATOM     17  C   UNL     1       1.856   3.204  17.240  0.00  0.00    +0.000 C 
ATOM     18  C   UNL     1       0.960   3.672  18.388  0.00  0.00    +0.000 C 
ENDBRANCH   2  14
BRANCH   6  19
ATOM     19  O   UNL     1       6.746   4.839  16.198  0.00  0.00    +0.000 OA
BRANCH  19  20
ATOM     20  C   UNL     1       6.429   3.972  15.106  0.00  0.00    +0.000 C 
BRANCH  20  21
ATOM     21  C   UNL     1       6.981   4.510  13.803  0.00  0.00    +0.000 C 
ATOM     22  O   UNL     1       6.727   4.022  12.710  0.00  0.00    +0.000 OA
BRANCH  21  23
ATOM     23  O   UNL     1       7.784   5.591  13.952  0.00  0.00    +0.000 OA
ATOM     24  H   UNL     1       8.351   5.489  14.749  0.00  0.00    +0.000 HD
ENDBRANCH  21  23
ENDBRANCH  20  21
ENDBRANCH  19  20
ENDBRANCH   6  19
TORSDOF 5
ENDMDL
MODEL 7
REMARK VINA RESULT:      -6.9      2.498      6.574
REMARK  Name = 
REMARK  6 active torsions:
REMARK  status: ('A' for Active; 'I' for Inactive)
REMARK    1  A    between atoms: C_1  and  C_2
REMARK    2  A    between atoms: C_2  and  C_3
REMARK    3  A    between atoms: C_11  and  O_12
REMARK    4  A    between atoms: O_12  and  C_13
REMARK    5  A    between atoms: C_13  and  C_14
REMARK    6  A    between atoms: C_14  and  O_16
REMARK                            x       y       z     vdW  Elec       q    Type
REMARK                         _______ _______ _______ _____ _____    ______ ____
ROOT
ATOM      1  C   UNL     1       2.565   1.573  19.410  0.00  0.00    +0.000 C 
ATOM      2  C   UNL     1       2.945   2.913  18.757  0.00  0.00    +0.000 C 
ATOM      3  C   UNL     1       3.292   2.675  17.266  0.00  0.00    +0.000 C 
ATOM      4  C   UNL     1       4.416   3.640  17.035  0.00  0.00    +0.000 A 
ATOM      5  C   UNL     1       4.824   4.159  15.822  0.00  0.00    +0.000 A 
ATOM      6  C   UNL     1       5.886   5.072  15.800  0.00  0.00    +0.000 A 
ATOM      7  C   UNL     1       6.504   5.474  17.014  0.00  0.00    +0.000 A 
ATOM      8 CL   UNL     1       7.755   6.681  16.949  0.00  0.00    +0.000 Cl
ATOM      9  C   UNL     1       6.094   4.930  18.246  0.00  0.00    +0.000 A 
ATOM     10 CL   UNL     1       6.790   5.432  19.743  0.00  0.00    +0.000 Cl
ATOM     11  C   UNL     1       5.050   4.017  18.220  0.00  0.00    +0.000 A 
ATOM     12  C   UNL     1       4.289   3.399  19.307  0.00  0.00    +0.000 C 
ATOM     13  O   UNL     1       4.675   3.301  20.458  0.00  0.00    +0.000 OA
ENDROOT
BRANCH   2  14
ATOM     14  C   UNL     1       1.782   3.951  18.949  0.00  0.00    +0.000 C 
ATOM     15  C   UNL     1       1.540   5.004  17.855  0.00  0.00    +0.000 C 
ATOM     16  C   UNL     1       2.407   6.204  18.214  0.00  0.00    +0.000 C 
ATOM     17  C   UNL     1       2.656   6.102  19.715  0.00  0.00    +0.000 C 
ATOM     18  C   UNL     1       1.919   4.848  20.188  0.00  0.00    +0.000 C 
ENDBRANCH   2  14
BRANCH   6  19
ATOM     19  O   UNL     1       6.356   5.630  14.632  0.00  0.00    +0.000 OA
BRANCH  19  20
ATOM     20  C   UNL     1       6.921   4.706  13.697  0.00  0.00    +0.000 C 
BRANCH  20  21
ATOM     21  C   UNL     1       7.852   5.406  12.731  0.00  0.00    +0.000 C 
ATOM     22  O   UNL     1       7.678   5.426  11.520  0.00  0.00    +0.000 OA
BRANCH  21  23
ATOM     23  O   UNL     1       8.903   6.018  13.328  0.00  0.00    +0.000 OA
ATOM     24  H   UNL     1       9.405   6.554  12.673  0.00  0.00    +0.000 HD
ENDBRANCH  21  23
ENDBRANCH  20  21
ENDBRANCH  19  20
ENDBRANCH   6  19
TORSDOF 5
ENDMDL
MODEL 8
REMARK VINA RESULT:      -6.7      3.460      6.222
REMARK  Name = 
REMARK  6 active torsions:
REMARK  status: ('A' for Active; 'I' for Inactive)
REMARK    1  A    between atoms: C_1  and  C_2
REMARK    2  A    between atoms: C_2  and  C_3
REMARK    3  A    between atoms: C_11  and  O_12
REMARK    4  A    between atoms: O_12  and  C_13
REMARK    5  A    between atoms: C_13  and  C_14
REMARK    6  A    between atoms: C_14  and  O_16
REMARK                            x       y       z     vdW  Elec       q    Type
REMARK                         _______ _______ _______ _____ _____    ______ ____
ROOT
ATOM      1  C   UNL     1       5.013   4.010  18.637  0.00  0.00    +0.000 C 
ATOM      2  C   UNL     1       3.789   4.873  18.285  0.00  0.00    +0.000 C 
ATOM      3  C   UNL     1       4.262   6.159  17.561  0.00  0.00    +0.000 C 
ATOM      4  C   UNL     1       3.312   7.194  18.084  0.00  0.00    +0.000 A 
ATOM      5  C   UNL     1       2.990   8.398  17.487  0.00  0.00    +0.000 A 
ATOM      6  C   UNL     1       2.059   9.235  18.114  0.00  0.00    +0.000 A 
ATOM      7  C   UNL     1       1.438   8.829  19.326  0.00  0.00    +0.000 A 
ATOM      8 CL   UNL     1       0.218   9.857  20.018  0.00  0.00    +0.000 Cl
ATOM      9  C   UNL     1       1.782   7.609  19.937  0.00  0.00    +0.000 A 
ATOM     10 CL   UNL     1       1.013   7.063  21.383  0.00  0.00    +0.000 Cl
ATOM     11  C   UNL     1       2.721   6.818  19.291  0.00  0.00    +0.000 A 
ATOM     12  C   UNL     1       3.174   5.452  19.561  0.00  0.00    +0.000 C 
ATOM     13  O   UNL     1       3.064   4.882  20.632  0.00  0.00    +0.000 OA
ENDROOT
BRANCH   2  14
ATOM     14  C   UNL     1       2.774   4.035  17.428  0.00  0.00    +0.000 C 
ATOM     15  C   UNL     1       1.278   4.096  17.782  0.00  0.00    +0.000 C 
ATOM     16  C   UNL     1       1.032   2.991  18.800  0.00  0.00    +0.000 C 
ATOM     17  C   UNL     1       2.151   1.977  18.591  0.00  0.00    +0.000 C 
ATOM     18  C   UNL     1       3.014   2.518  17.450  0.00  0.00    +0.000 C 
ENDBRANCH   2  14
BRANCH   6  19
ATOM     19  O   UNL     1       1.689  10.453  17.587  0.00  0.00    +0.000 OA
BRANCH  19  20
ATOM     20  C   UNL     1       2.536  11.551  17.933  0.00  0.00    +0.000 C 
BRANCH  20  21
ATOM     21  C   UNL     1       1.725  12.792  18.244  0.00  0.00    +0.000 C 
ATOM     22  O   UNL     1       2.220  13.846  18.618  0.00  0.00    +0.000 OA
BRANCH  21  23
ATOM     23  O   UNL     1       0.391  12.634  18.065  0.00  0.00    +0.000 OA
ATOM     24  H   UNL     1      -0.099  12.939  18.861  0.00  0.00    +0.000 HD
ENDBRANCH  21  23
ENDBRANCH  20  21
ENDBRANCH  19  20
ENDBRANCH   6  19
TORSDOF 5
ENDMDL
MODEL 9
REMARK VINA RESULT:      -6.6      3.006      6.628
REMARK  Name = 
REMARK  6 active torsions:
REMARK  status: ('A' for Active; 'I' for Inactive)
REMARK    1  A    between atoms: C_1  and  C_2
REMARK    2  A    between atoms: C_2  and  C_3
REMARK    3  A    between atoms: C_11  and  O_12
REMARK    4  A    between atoms: O_12  and  C_13
REMARK    5  A    between atoms: C_13  and  C_14
REMARK    6  A    between atoms: C_14  and  O_16
REMARK                            x       y       z     vdW  Elec       q    Type
REMARK                         _______ _______ _______ _____ _____    ______ ____
ROOT
ATOM      1  C   UNL     1       4.122   2.728  20.373  0.00  0.00    +0.000 C 
ATOM      2  C   UNL     1       4.067   3.631  19.129  0.00  0.00    +0.000 C 
ATOM      3  C   UNL     1       3.961   2.749  17.860  0.00  0.00    +0.000 C 
ATOM      4  C   UNL     1       4.793   3.505  16.868  0.00  0.00    +0.000 A 
ATOM      5  C   UNL     1       4.715   3.423  15.491  0.00  0.00    +0.000 A 
ATOM      6  C   UNL     1       5.562   4.227  14.718  0.00  0.00    +0.000 A 
ATOM      7  C   UNL     1       6.460   5.130  15.349  0.00  0.00    +0.000 A 
ATOM      8 CL   UNL     1       7.425   6.176  14.349  0.00  0.00    +0.000 Cl
ATOM      9  C   UNL     1       6.545   5.196  16.752  0.00  0.00    +0.000 A 
ATOM     10 CL   UNL     1       7.589   6.315  17.550  0.00  0.00    +0.000 Cl
ATOM     11  C   UNL     1       5.700   4.371  17.479  0.00  0.00    +0.000 A 
ATOM     12  C   UNL     1       5.423   4.309  18.915  0.00  0.00    +0.000 C 
ATOM     13  O   UNL     1       6.160   4.736  19.785  0.00  0.00    +0.000 OA
ENDROOT
BRANCH   2  14
ATOM     14  C   UNL     1       2.876   4.648  19.260  0.00  0.00    +0.000 C 
ATOM     15  C   UNL     1       2.206   4.830  20.632  0.00  0.00    +0.000 C 
ATOM     16  C   UNL     1       1.082   3.805  20.701  0.00  0.00    +0.000 C 
ATOM     17  C   UNL     1       0.731   3.475  19.254  0.00  0.00    +0.000 C 
ATOM     18  C   UNL     1       1.657   4.326  18.383  0.00  0.00    +0.000 C 
ENDBRANCH   2  14
BRANCH   6  19
ATOM     19  O   UNL     1       5.551   4.201  13.340  0.00  0.00    +0.000 OA
BRANCH  19  20
ATOM     20  C   UNL     1       6.323   3.157  12.743  0.00  0.00    +0.000 C 
BRANCH  20  21
ATOM     21  C   UNL     1       5.513   2.397  11.714  0.00  0.00    +0.000 C 
ATOM     22  O   UNL     1       4.432   2.781  11.288  0.00  0.00    +0.000 OA
BRANCH  21  23
ATOM     23  O   UNL     1       6.095   1.246  11.298  0.00  0.00    +0.000 OA
ATOM     24  H   UNL     1       6.062   1.181  10.317  0.00  0.00    +0.000 HD
ENDBRANCH  21  23
ENDBRANCH  20  21
ENDBRANCH  19  20
ENDBRANCH   6  19
TORSDOF 5
ENDMDL
