MODEL 1
REMARK VINA RESULT:      -6.7      0.000      0.000
REMARK  Name = 
REMARK  6 active torsions:
REMARK  status: ('A' for Active; 'I' for Inactive)
REMARK    1  A    between atoms: C_1  and  C_2
REMARK    2  A    between atoms: C_2  and  C_3
REMARK    3  A    between atoms: C_3  and  C_4
REMARK    4  A    between atoms: N_6  and  C_7
REMARK    5  A    between atoms: C_7  and  C_8
REMARK    6  A    between atoms: C_11  and  C_12
REMARK                            x       y       z     vdW  Elec       q    Type
REMARK                         _______ _______ _______ _____ _____    ______ ____
ROOT
ATOM      1  C   UNL     1       4.621   3.644  16.654  0.00  0.00    +0.000 C 
ENDROOT
BRANCH   1   2
ATOM      2  C   UNL     1       5.504   4.844  16.898  0.00  0.00    +0.000 A 
ATOM      3  C   UNL     1       6.703   4.717  17.613  0.00  0.00    +0.000 A 
ATOM      4  C   UNL     1       7.475   5.843  17.904  0.00  0.00    +0.000 A 
ATOM      5  C   UNL     1       7.060   7.109  17.481  0.00  0.00    +0.000 A 
ATOM      6  C   UNL     1       5.878   7.242  16.745  0.00  0.00    +0.000 A 
ATOM      7  C   UNL     1       5.104   6.116  16.457  0.00  0.00    +0.000 A 
BRANCH   5   8
ATOM      8  C   UNL     1       7.829   8.268  17.819  0.00  0.00    +0.000 C 
ATOM      9  N   UNL     1       8.462   9.204  18.089  0.00  0.00    +0.000 NA
ENDBRANCH   5   8
ENDBRANCH   1   2
BRANCH   1  12
ATOM     10  C   UNL     1       1.919   3.952  18.990  0.00  0.00    +0.000 A 
ATOM     11  C   UNL     1       3.253   4.164  18.718  0.00  0.00    +0.000 A 
ATOM     12  N   UNL     1       3.400   3.726  17.434  0.00  0.00    +0.000 N 
ATOM     13  N   UNL     1       2.235   3.276  16.935  0.00  0.00    +0.000 NA
ATOM     14  N   UNL     1       1.315   3.420  17.879  0.00  0.00    +0.000 NA
BRANCH  10  15
ATOM     15  C   UNL     1       1.154   4.213  20.236  0.00  0.00    +0.000 C 
BRANCH  15  17
ATOM     16  C   UNL     1       2.386   2.627  21.761  0.00  0.00    +0.000 C 
ATOM     17  C   UNL     1       1.047   2.974  21.126  0.00  0.00    +0.000 C 
ENDBRANCH  15  17
ENDBRANCH  10  15
ENDBRANCH   1  12
TORSDOF 5
ENDMDL
MODEL 2
REMARK VINA RESULT:      -6.6      3.066      6.826
REMARK  Name = 
REMARK  6 active torsions:
REMARK  status: ('A' for Active; 'I' for Inactive)
REMARK    1  A    between atoms: C_1  and  C_2
REMARK    2  A    between atoms: C_2  and  C_3
REMARK    3  A    between atoms: C_3  and  C_4
REMARK    4  A    between atoms: N_6  and  C_7
REMARK    5  A    between atoms: C_7  and  C_8
REMARK    6  A    between atoms: C_11  and  C_12
REMARK                            x       y       z     vdW  Elec       q    Type
REMARK                         _______ _______ _______ _____ _____    ______ ____
ROOT
ATOM      1  C   UNL     1       6.098   5.372  17.496  0.00  0.00    +0.000 C 
ENDROOT
BRANCH   1   2
ATOM      2  C   UNL     1       4.790   4.666  17.755  0.00  0.00    +0.000 A 
ATOM      3  C   UNL     1       3.568   5.311  17.514  0.00  0.00    +0.000 A 
ATOM      4  C   UNL     1       2.363   4.681  17.831  0.00  0.00    +0.000 A 
ATOM      5  C   UNL     1       2.364   3.399  18.389  0.00  0.00    +0.000 A 
ATOM      6  C   UNL     1       3.576   2.740  18.609  0.00  0.00    +0.000 A 
ATOM      7  C   UNL     1       4.782   3.370  18.295  0.00  0.00    +0.000 A 
BRANCH   5   8
ATOM      8  C   UNL     1       1.130   2.774  18.755  0.00  0.00    +0.000 C 
ATOM      9  N   UNL     1       0.132   2.263  19.061  0.00  0.00    +0.000 NA
ENDBRANCH   5   8
ENDBRANCH   1   2
BRANCH   1  12
ATOM     10  C   UNL     1       6.826   4.537  14.086  0.00  0.00    +0.000 A 
ATOM     11  C   UNL     1       6.022   4.340  15.188  0.00  0.00    +0.000 A 
ATOM     12  N   UNL     1       6.518   5.207  16.117  0.00  0.00    +0.000 N 
ATOM     13  N   UNL     1       7.560   5.903  15.628  0.00  0.00    +0.000 NA
ATOM     14  N   UNL     1       7.750   5.507  14.376  0.00  0.00    +0.000 NA
BRANCH  10  15
ATOM     15  C   UNL     1       6.794   3.871  12.759  0.00  0.00    +0.000 C 
BRANCH  15  17
ATOM     16  C   UNL     1       5.431   2.187  11.469  0.00  0.00    +0.000 C 
ATOM     17  C   UNL     1       5.388   3.412  12.370  0.00  0.00    +0.000 C 
ENDBRANCH  15  17
ENDBRANCH  10  15
ENDBRANCH   1  12
TORSDOF 5
ENDMDL
MODEL 3
REMARK VINA RESULT:      -6.6      2.157      6.523
REMARK  Name = 
REMARK  6 active torsions:
REMARK  status: ('A' for Active; 'I' for Inactive)
REMARK    1  A    between atoms: C_1  and  C_2
REMARK    2  A    between atoms: C_2  and  C_3
REMARK    3  A    between atoms: C_3  and  C_4
REMARK    4  A    between atoms: N_6  and  C_7
REMARK    5  A    between atoms: C_7  and  C_8
REMARK    6  A    between atoms: C_11  and  C_12
REMARK                            x       y       z     vdW  Elec       q    Type
REMARK                         _______ _______ _______ _____ _____    ______ ____
ROOT
ATOM      1  C   UNL     1       4.458   4.954  16.313  0.00  0.00    +0.000 C 
ENDROOT
BRANCH   1   2
ATOM      2  C   UNL     1       3.798   4.397  17.551  0.00  0.00    +0.000 A 
ATOM      3  C   UNL     1       2.585   4.927  18.015  0.00  0.00    +0.000 A 
ATOM      4  C   UNL     1       2.021   4.461  19.204  0.00  0.00    +0.000 A 
ATOM      5  C   UNL     1       2.659   3.460  19.942  0.00  0.00    +0.000 A 
ATOM      6  C   UNL     1       3.855   2.909  19.473  0.00  0.00    +0.000 A 
ATOM      7  C   UNL     1       4.422   3.376  18.285  0.00  0.00    +0.000 A 
BRANCH   5   8
ATOM      8  C   UNL     1       2.103   3.016  21.183  0.00  0.00    +0.000 C 
ATOM      9  N   UNL     1       1.647   2.666  22.193  0.00  0.00    +0.000 NA
ENDBRANCH   5   8
ENDBRANCH   1   2
BRANCH   1  12
ATOM     10  C   UNL     1       7.270   6.808  17.541  0.00  0.00    +0.000 A 
ATOM     11  C   UNL     1       6.015   6.296  17.787  0.00  0.00    +0.000 A 
ATOM     12  N   UNL     1       5.700   5.628  16.640  0.00  0.00    +0.000 N 
ATOM     13  N   UNL     1       6.695   5.711  15.739  0.00  0.00    +0.000 NA
ATOM     14  N   UNL     1       7.669   6.425  16.286  0.00  0.00    +0.000 NA
BRANCH  10  15
ATOM     15  C   UNL     1       8.138   7.646  18.407  0.00  0.00    +0.000 C 
BRANCH  15  17
ATOM     16  C   UNL     1       9.011   9.960  18.896  0.00  0.00    +0.000 C 
ATOM     17  C   UNL     1       8.207   9.098  17.934  0.00  0.00    +0.000 C 
ENDBRANCH  15  17
ENDBRANCH  10  15
ENDBRANCH   1  12
TORSDOF 5
ENDMDL
MODEL 4
REMARK VINA RESULT:      -6.6      0.651      1.491
REMARK  Name = 
REMARK  6 active torsions:
REMARK  status: ('A' for Active; 'I' for Inactive)
REMARK    1  A    between atoms: C_1  and  C_2
REMARK    2  A    between atoms: C_2  and  C_3
REMARK    3  A    between atoms: C_3  and  C_4
REMARK    4  A    between atoms: N_6  and  C_7
REMARK    5  A    between atoms: C_7  and  C_8
REMARK    6  A    between atoms: C_11  and  C_12
REMARK                            x       y       z     vdW  Elec       q    Type
REMARK                         _______ _______ _______ _____ _____    ______ ____
ROOT
ATOM      1  C   UNL     1       4.733   3.535  16.510  0.00  0.00    +0.000 C 
ENDROOT
BRANCH   1   2
ATOM      2  C   UNL     1       5.501   4.769  16.917  0.00  0.00    +0.000 A 
ATOM      3  C   UNL     1       4.983   6.049  16.670  0.00  0.00    +0.000 A 
ATOM      4  C   UNL     1       5.734   7.186  16.976  0.00  0.00    +0.000 A 
ATOM      5  C   UNL     1       7.009   7.058  17.534  0.00  0.00    +0.000 A 
ATOM      6  C   UNL     1       7.523   5.787  17.806  0.00  0.00    +0.000 A 
ATOM      7  C   UNL     1       6.774   4.649  17.498  0.00  0.00    +0.000 A 
BRANCH   5   8
ATOM      8  C   UNL     1       7.795   8.223  17.804  0.00  0.00    +0.000 C 
ATOM      9  N   UNL     1       8.442   9.163  18.020  0.00  0.00    +0.000 NA
ENDBRANCH   5   8
ENDBRANCH   1   2
BRANCH   1  12
ATOM     10  C   UNL     1       2.308   2.835  19.056  0.00  0.00    +0.000 A 
ATOM     11  C   UNL     1       3.629   3.058  18.736  0.00  0.00    +0.000 A 
ATOM     12  N   UNL     1       3.606   3.306  17.394  0.00  0.00    +0.000 N 
ATOM     13  N   UNL     1       2.353   3.247  16.909  0.00  0.00    +0.000 NA
ATOM     14  N   UNL     1       1.545   2.970  17.923  0.00  0.00    +0.000 NA
BRANCH  10  15
ATOM     15  C   UNL     1       1.694   2.497  20.365  0.00  0.00    +0.000 C 
BRANCH  15  17
ATOM     16  C   UNL     1       1.721   4.959  20.910  0.00  0.00    +0.000 C 
ATOM     17  C   UNL     1       1.979   3.554  21.433  0.00  0.00    +0.000 C 
ENDBRANCH  15  17
ENDBRANCH  10  15
ENDBRANCH   1  12
TORSDOF 5
ENDMDL
MODEL 5
REMARK VINA RESULT:      -6.6      3.196      6.733
REMARK  Name = 
REMARK  6 active torsions:
REMARK  status: ('A' for Active; 'I' for Inactive)
REMARK    1  A    between atoms: C_1  and  C_2
REMARK    2  A    between atoms: C_2  and  C_3
REMARK    3  A    between atoms: C_3  and  C_4
REMARK    4  A    between atoms: N_6  and  C_7
REMARK    5  A    between atoms: C_7  and  C_8
REMARK    6  A    between atoms: C_11  and  C_12
REMARK                            x       y       z     vdW  Elec       q    Type
REMARK                         _______ _______ _______ _____ _____    ______ ____
ROOT
ATOM      1  C   UNL     1       6.653   4.560  17.287  0.00  0.00    +0.000 C 
ENDROOT
BRANCH   1   2
ATOM      2  C   UNL     1       5.253   4.159  17.683  0.00  0.00    +0.000 A 
ATOM      3  C   UNL     1       4.991   3.637  18.959  0.00  0.00    +0.000 A 
ATOM      4  C   UNL     1       3.710   3.195  19.292  0.00  0.00    +0.000 A 
ATOM      5  C   UNL     1       2.674   3.271  18.356  0.00  0.00    +0.000 A 
ATOM      6  C   UNL     1       2.920   3.813  17.092  0.00  0.00    +0.000 A 
ATOM      7  C   UNL     1       4.202   4.253  16.757  0.00  0.00    +0.000 A 
BRANCH   5   8
ATOM      8  C   UNL     1       1.372   2.774  18.684  0.00  0.00    +0.000 C 
ATOM      9  N   UNL     1       0.317   2.362  18.944  0.00  0.00    +0.000 NA
ENDBRANCH   5   8
ENDBRANCH   1   2
BRANCH   1  12
ATOM     10  C   UNL     1       6.809   4.292  13.715  0.00  0.00    +0.000 A 
ATOM     11  C   UNL     1       6.370   3.755  14.905  0.00  0.00    +0.000 A 
ATOM     12  N   UNL     1       6.781   4.655  15.845  0.00  0.00    +0.000 N 
ATOM     13  N   UNL     1       7.428   5.689  15.279  0.00  0.00    +0.000 NA
ATOM     14  N   UNL     1       7.441   5.483  13.969  0.00  0.00    +0.000 NA
BRANCH  10  15
ATOM     15  C   UNL     1       6.679   3.765  12.333  0.00  0.00    +0.000 C 
BRANCH  15  17
ATOM     16  C   UNL     1       4.363   3.438  11.392  0.00  0.00    +0.000 C 
ATOM     17  C   UNL     1       5.499   2.805  12.182  0.00  0.00    +0.000 C 
ENDBRANCH  15  17
ENDBRANCH  10  15
ENDBRANCH   1  12
TORSDOF 5
ENDMDL
MODEL 6
REMARK VINA RESULT:      -6.5      2.581      3.653
REMARK  Name = 
REMARK  6 active torsions:
REMARK  status: ('A' for Active; 'I' for Inactive)
REMARK    1  A    between atoms: C_1  and  C_2
REMARK    2  A    between atoms: C_2  and  C_3
REMARK    3  A    between atoms: C_3  and  C_4
REMARK    4  A    between atoms: N_6  and  C_7
REMARK    5  A    between atoms: C_7  and  C_8
REMARK    6  A    between atoms: C_11  and  C_12
REMARK                            x       y       z     vdW  Elec       q    Type
REMARK                         _______ _______ _______ _____ _____    ______ ____
ROOT
ATOM      1  C   UNL     1       5.606   5.267  18.911  0.00  0.00    +0.000 C 
ENDROOT
BRANCH   1   2
ATOM      2  C   UNL     1       5.824   4.995  17.442  0.00  0.00    +0.000 A 
ATOM      3  C   UNL     1       4.737   4.918  16.559  0.00  0.00    +0.000 A 
ATOM      4  C   UNL     1       4.939   4.588  15.218  0.00  0.00    +0.000 A 
ATOM      5  C   UNL     1       6.229   4.334  14.742  0.00  0.00    +0.000 A 
ATOM      6  C   UNL     1       7.320   4.434  15.610  0.00  0.00    +0.000 A 
ATOM      7  C   UNL     1       7.118   4.761  16.952  0.00  0.00    +0.000 A 
BRANCH   5   8
ATOM      8  C   UNL     1       6.429   3.951  13.378  0.00  0.00    +0.000 C 
ATOM      9  N   UNL     1       6.601   3.644  12.270  0.00  0.00    +0.000 NA
ENDBRANCH   5   8
ENDBRANCH   1   2
BRANCH   1  12
ATOM     10  C   UNL     1       2.997   3.354  20.456  0.00  0.00    +0.000 A 
ATOM     11  C   UNL     1       3.408   4.568  19.950  0.00  0.00    +0.000 A 
ATOM     12  N   UNL     1       4.666   4.322  19.484  0.00  0.00    +0.000 N 
ATOM     13  N   UNL     1       5.017   3.038  19.680  0.00  0.00    +0.000 NA
ATOM     14  N   UNL     1       3.994   2.431  20.266  0.00  0.00    +0.000 NA
BRANCH  10  15
ATOM     15  C   UNL     1       1.719   2.987  21.116  0.00  0.00    +0.000 C 
BRANCH  15  17
ATOM     16  C   UNL     1       0.722   2.402  18.875  0.00  0.00    +0.000 C 
ATOM     17  C   UNL     1       0.514   3.145  20.186  0.00  0.00    +0.000 C 
ENDBRANCH  15  17
ENDBRANCH  10  15
ENDBRANCH   1  12
TORSDOF 5
ENDMDL
MODEL 7
REMARK VINA RESULT:      -6.5      3.020      6.682
REMARK  Name = 
REMARK  6 active torsions:
REMARK  status: ('A' for Active; 'I' for Inactive)
REMARK    1  A    between atoms: C_1  and  C_2
REMARK    2  A    between atoms: C_2  and  C_3
REMARK    3  A    between atoms: C_3  and  C_4
REMARK    4  A    between atoms: N_6  and  C_7
REMARK    5  A    between atoms: C_7  and  C_8
REMARK    6  A    between atoms: C_11  and  C_12
REMARK                            x       y       z     vdW  Elec       q    Type
REMARK                         _______ _______ _______ _____ _____    ______ ____
ROOT
ATOM      1  C   UNL     1       5.488   6.158  17.295  0.00  0.00    +0.000 C 
ENDROOT
BRANCH   1   2
ATOM      2  C   UNL     1       4.345   5.276  17.735  0.00  0.00    +0.000 A 
ATOM      3  C   UNL     1       4.568   3.933  18.075  0.00  0.00    +0.000 A 
ATOM      4  C   UNL     1       3.496   3.102  18.405  0.00  0.00    +0.000 A 
ATOM      5  C   UNL     1       2.190   3.601  18.401  0.00  0.00    +0.000 A 
ATOM      6  C   UNL     1       1.963   4.944  18.088  0.00  0.00    +0.000 A 
ATOM      7  C   UNL     1       3.034   5.776  17.755  0.00  0.00    +0.000 A 
BRANCH   5   8
ATOM      8  C   UNL     1       1.089   2.736  18.694  0.00  0.00    +0.000 C 
ATOM      9  N   UNL     1       0.200   2.029  18.941  0.00  0.00    +0.000 NA
ENDBRANCH   5   8
ENDBRANCH   1   2
BRANCH   1  12
ATOM     10  C   UNL     1       6.666   4.729  14.225  0.00  0.00    +0.000 A 
ATOM     11  C   UNL     1       5.619   5.294  14.921  0.00  0.00    +0.000 A 
ATOM     12  N   UNL     1       6.160   5.604  16.134  0.00  0.00    +0.000 N 
ATOM     13  N   UNL     1       7.459   5.261  16.192  0.00  0.00    +0.000 NA
ATOM     14  N   UNL     1       7.784   4.733  15.020  0.00  0.00    +0.000 NA
BRANCH  10  15
ATOM     15  C   UNL     1       6.698   4.175  12.848  0.00  0.00    +0.000 C 
BRANCH  15  17
ATOM     16  C   UNL     1       5.685   2.256  11.564  0.00  0.00    +0.000 C 
ATOM     17  C   UNL     1       5.410   3.433  12.487  0.00  0.00    +0.000 C 
ENDBRANCH  15  17
ENDBRANCH  10  15
ENDBRANCH   1  12
TORSDOF 5
ENDMDL
MODEL 8
REMARK VINA RESULT:      -6.5      2.943      6.445
REMARK  Name = 
REMARK  6 active torsions:
REMARK  status: ('A' for Active; 'I' for Inactive)
REMARK    1  A    between atoms: C_1  and  C_2
REMARK    2  A    between atoms: C_2  and  C_3
REMARK    3  A    between atoms: C_3  and  C_4
REMARK    4  A    between atoms: N_6  and  C_7
REMARK    5  A    between atoms: C_7  and  C_8
REMARK    6  A    between atoms: C_11  and  C_12
REMARK                            x       y       z     vdW  Elec       q    Type
REMARK                         _______ _______ _______ _____ _____    ______ ____
ROOT
ATOM      1  C   UNL     1       4.903   6.874  17.386  0.00  0.00    +0.000 C 
ENDROOT
BRANCH   1   2
ATOM      2  C   UNL     1       4.184   5.932  18.321  0.00  0.00    +0.000 A 
ATOM      3  C   UNL     1       2.845   6.154  18.672  0.00  0.00    +0.000 A 
ATOM      4  C   UNL     1       2.210   5.324  19.599  0.00  0.00    +0.000 A 
ATOM      5  C   UNL     1       2.905   4.262  20.183  0.00  0.00    +0.000 A 
ATOM      6  C   UNL     1       4.233   4.018  19.820  0.00  0.00    +0.000 A 
ATOM      7  C   UNL     1       4.869   4.849  18.896  0.00  0.00    +0.000 A 
BRANCH   5   8
ATOM      8  C   UNL     1       2.267   3.441  21.167  0.00  0.00    +0.000 C 
ATOM      9  N   UNL     1       1.740   2.780  21.964  0.00  0.00    +0.000 NA
ENDBRANCH   5   8
ENDBRANCH   1   2
BRANCH   1  12
ATOM     10  C   UNL     1       6.259   4.785  14.807  0.00  0.00    +0.000 A 
ATOM     11  C   UNL     1       5.142   5.222  15.485  0.00  0.00    +0.000 A 
ATOM     12  N   UNL     1       5.630   6.144  16.365  0.00  0.00    +0.000 N 
ATOM     13  N   UNL     1       6.962   6.279  16.241  0.00  0.00    +0.000 NA
ATOM     14  N   UNL     1       7.358   5.457  15.279  0.00  0.00    +0.000 NA
BRANCH  10  15
ATOM     15  C   UNL     1       6.377   3.768  13.732  0.00  0.00    +0.000 C 
BRANCH  15  17
ATOM     16  C   UNL     1       5.300   2.715  11.710  0.00  0.00    +0.000 C 
ATOM     17  C   UNL     1       5.227   3.843  12.727  0.00  0.00    +0.000 C 
ENDBRANCH  15  17
ENDBRANCH  10  15
ENDBRANCH   1  12
TORSDOF 5
ENDMDL
MODEL 9
REMARK VINA RESULT:      -6.5      3.179      6.460
REMARK  Name = 
REMARK  6 active torsions:
REMARK  status: ('A' for Active; 'I' for Inactive)
REMARK    1  A    between atoms: C_1  and  C_2
REMARK    2  A    between atoms: C_2  and  C_3
REMARK    3  A    between atoms: C_3  and  C_4
REMARK    4  A    between atoms: N_6  and  C_7
REMARK    5  A    between atoms: C_7  and  C_8
REMARK    6  A    between atoms: C_11  and  C_12
REMARK                            x       y       z     vdW  Elec       q    Type
REMARK                         _______ _______ _______ _____ _____    ______ ____
ROOT
ATOM      1  C   UNL     1       7.014   4.386  17.393  0.00  0.00    +0.000 C 
ENDROOT
BRANCH   1   2
ATOM      2  C   UNL     1       5.622   4.412  17.976  0.00  0.00    +0.000 A 
ATOM      3  C   UNL     1       5.248   5.406  18.892  0.00  0.00    +0.000 A 
ATOM      4  C   UNL     1       3.985   5.379  19.488  0.00  0.00    +0.000 A 
ATOM      5  C   UNL     1       3.081   4.360  19.174  0.00  0.00    +0.000 A 
ATOM      6  C   UNL     1       3.437   3.380  18.243  0.00  0.00    +0.000 A 
ATOM      7  C   UNL     1       4.700   3.405  17.649  0.00  0.00    +0.000 A 
BRANCH   5   8
ATOM      8  C   UNL     1       1.805   4.308  19.820  0.00  0.00    +0.000 C 
ATOM      9  N   UNL     1       0.765   4.271  20.336  0.00  0.00    +0.000 NA
ENDBRANCH   5   8
ENDBRANCH   1   2
BRANCH   1  12
ATOM     10  C   UNL     1       6.761   4.324  13.817  0.00  0.00    +0.000 A 
ATOM     11  C   UNL     1       6.446   3.725  15.017  0.00  0.00    +0.000 A 
ATOM     12  N   UNL     1       6.981   4.562  15.953  0.00  0.00    +0.000 N 
ATOM     13  N   UNL     1       7.585   5.616  15.376  0.00  0.00    +0.000 NA
ATOM     14  N   UNL     1       7.446   5.486  14.064  0.00  0.00    +0.000 NA
BRANCH  10  15
ATOM     15  C   UNL     1       6.464   3.880  12.432  0.00  0.00    +0.000 C 
BRANCH  15  17
ATOM     16  C   UNL     1       4.237   3.393  11.354  0.00  0.00    +0.000 C 
ATOM     17  C   UNL     1       5.271   2.925  12.367  0.00  0.00    +0.000 C 
ENDBRANCH  15  17
ENDBRANCH  10  15
ENDBRANCH   1  12
TORSDOF 5
ENDMDL
