MODEL 1
REMARK VINA RESULT:      -8.2      0.000      0.000
REMARK  Name = 
REMARK  4 active torsions:
REMARK  status: ('A' for Active; 'I' for Inactive)
REMARK    1  A    between atoms: C_1  and  C_2
REMARK    2  A    between atoms: C_3  and  C_4
REMARK    3  A    between atoms: N_6  and  C_7
REMARK    4  A    between atoms: N_15  and  C_16
REMARK                            x       y       z     vdW  Elec       q    Type
REMARK                         _______ _______ _______ _____ _____    ______ ____
ROOT
ATOM      1  C   UNL     1       3.639   3.582  16.915  0.00  0.00    +0.000 C 
ATOM      2  C   UNL     1       4.674   3.916  17.928  0.00  0.00    +0.000 A 
ATOM      3  C   UNL     1       6.000   4.314  17.781  0.00  0.00    +0.000 A 
ATOM      4  N   UNL     1       6.484   4.714  18.999  0.00  0.00    +0.000 NA
ATOM      5  N   UNL     1       5.507   4.614  19.886  0.00  0.00    +0.000 NA
ATOM      6  N   UNL     1       4.439   4.015  19.293  0.00  0.00    +0.000 N 
ENDROOT
BRANCH   6   7
ATOM      7  C   UNL     1       3.310   3.659  20.067  0.00  0.00    +0.000 A 
ATOM      8  C   UNL     1       2.146   4.439  19.977  0.00  0.00    +0.000 A 
ATOM      9  C   UNL     1       1.012   4.099  20.723  0.00  0.00    +0.000 A 
ATOM     10  C   UNL     1       1.040   2.999  21.578  0.00  0.00    +0.000 A 
ATOM     11  C   UNL     1       2.206   2.248  21.702  0.00  0.00    +0.000 A 
ATOM     12  C   UNL     1       3.334   2.583  20.952  0.00  0.00    +0.000 A 
ATOM     13  F   UNL     1       4.460   1.907  21.206  0.00  0.00    +0.000 F 
ENDBRANCH   6   7
BRANCH   3  14
ATOM     14  C   UNL     1       6.797   4.390  16.555  0.00  0.00    +0.000 C 
ATOM     15  O   UNL     1       8.017   4.514  16.607  0.00  0.00    +0.000 OA
ATOM     16  N   UNL     1       6.048   4.353  15.389  0.00  0.00    +0.000 N 
ATOM     17  H   UNL     1       5.038   4.385  15.507  0.00  0.00    +0.000 HD
BRANCH  16  18
ATOM     18  C   UNL     1       6.554   4.402  14.069  0.00  0.00    +0.000 A 
ATOM     19  C   UNL     1       7.489   5.356  13.651  0.00  0.00    +0.000 A 
ATOM     20  C   UNL     1       7.931   5.400  12.325  0.00  0.00    +0.000 A 
ATOM     21  C   UNL     1       7.445   4.485  11.397  0.00  0.00    +0.000 A 
ATOM     22  C   UNL     1       6.537   3.511  11.804  0.00  0.00    +0.000 A 
ATOM     23  C   UNL     1       6.102   3.460  13.136  0.00  0.00    +0.000 A 
ENDBRANCH  16  18
ENDBRANCH   3  14
TORSDOF 3
ENDMDL
MODEL 2
REMARK VINA RESULT:      -8.2      1.035      1.458
REMARK  Name = 
REMARK  4 active torsions:
REMARK  status: ('A' for Active; 'I' for Inactive)
REMARK    1  A    between atoms: C_1  and  C_2
REMARK    2  A    between atoms: C_3  and  C_4
REMARK    3  A    between atoms: N_6  and  C_7
REMARK    4  A    between atoms: N_15  and  C_16
REMARK                            x       y       z     vdW  Elec       q    Type
REMARK                         _______ _______ _______ _____ _____    ______ ____
ROOT
ATOM      1  C   UNL     1       3.649   3.550  16.888  0.00  0.00    +0.000 C 
ATOM      2  C   UNL     1       4.670   3.937  17.897  0.00  0.00    +0.000 A 
ATOM      3  C   UNL     1       5.991   4.349  17.747  0.00  0.00    +0.000 A 
ATOM      4  N   UNL     1       6.459   4.801  18.954  0.00  0.00    +0.000 NA
ATOM      5  N   UNL     1       5.475   4.718  19.835  0.00  0.00    +0.000 NA
ATOM      6  N   UNL     1       4.422   4.082  19.255  0.00  0.00    +0.000 N 
ENDROOT
BRANCH   6   7
ATOM      7  C   UNL     1       3.291   3.737  20.032  0.00  0.00    +0.000 A 
ATOM      8  C   UNL     1       3.346   2.598  20.853  0.00  0.00    +0.000 A 
ATOM      9  C   UNL     1       2.244   2.246  21.640  0.00  0.00    +0.000 A 
ATOM     10  C   UNL     1       1.078   3.007  21.595  0.00  0.00    +0.000 A 
ATOM     11  C   UNL     1       1.005   4.112  20.751  0.00  0.00    +0.000 A 
ATOM     12  C   UNL     1       2.106   4.468  19.971  0.00  0.00    +0.000 A 
ATOM     13  F   UNL     1       1.936   5.458  19.088  0.00  0.00    +0.000 F 
ENDBRANCH   6   7
BRANCH   3  14
ATOM     14  C   UNL     1       6.798   4.393  16.525  0.00  0.00    +0.000 C 
ATOM     15  O   UNL     1       8.023   4.445  16.584  0.00  0.00    +0.000 OA
ATOM     16  N   UNL     1       6.055   4.413  15.356  0.00  0.00    +0.000 N 
ATOM     17  H   UNL     1       5.047   4.502  15.469  0.00  0.00    +0.000 HD
BRANCH  16  18
ATOM     18  C   UNL     1       6.570   4.448  14.038  0.00  0.00    +0.000 A 
ATOM     19  C   UNL     1       7.494   5.408  13.611  0.00  0.00    +0.000 A 
ATOM     20  C   UNL     1       7.945   5.437  12.289  0.00  0.00    +0.000 A 
ATOM     21  C   UNL     1       7.479   4.500  11.373  0.00  0.00    +0.000 A 
ATOM     22  C   UNL     1       6.582   3.519  11.789  0.00  0.00    +0.000 A 
ATOM     23  C   UNL     1       6.139   3.484  13.118  0.00  0.00    +0.000 A 
ENDBRANCH  16  18
ENDBRANCH   3  14
TORSDOF 3
ENDMDL
MODEL 3
REMARK VINA RESULT:      -8.0      0.073      1.027
REMARK  Name = 
REMARK  4 active torsions:
REMARK  status: ('A' for Active; 'I' for Inactive)
REMARK    1  A    between atoms: C_1  and  C_2
REMARK    2  A    between atoms: C_3  and  C_4
REMARK    3  A    between atoms: N_6  and  C_7
REMARK    4  A    between atoms: N_15  and  C_16
REMARK                            x       y       z     vdW  Elec       q    Type
REMARK                         _______ _______ _______ _____ _____    ______ ____
ROOT
ATOM      1  C   UNL     1       3.619   3.581  16.915  0.00  0.00    +0.000 C 
ATOM      2  C   UNL     1       4.674   3.912  17.908  0.00  0.00    +0.000 A 
ATOM      3  C   UNL     1       5.998   4.306  17.737  0.00  0.00    +0.000 A 
ATOM      4  N   UNL     1       6.507   4.705  18.945  0.00  0.00    +0.000 NA
ATOM      5  N   UNL     1       5.546   4.609  19.850  0.00  0.00    +0.000 NA
ATOM      6  N   UNL     1       4.465   4.013  19.277  0.00  0.00    +0.000 N 
ENDROOT
BRANCH   6   7
ATOM      7  C   UNL     1       3.349   3.661  20.072  0.00  0.00    +0.000 A 
ATOM      8  C   UNL     1       2.198   4.465  20.030  0.00  0.00    +0.000 A 
ATOM      9  C   UNL     1       1.078   4.129  20.797  0.00  0.00    +0.000 A 
ATOM     10  C   UNL     1       1.106   3.011  21.628  0.00  0.00    +0.000 A 
ATOM     11  C   UNL     1       2.261   2.235  21.705  0.00  0.00    +0.000 A 
ATOM     12  C   UNL     1       3.375   2.566  20.933  0.00  0.00    +0.000 A 
ATOM     13  F   UNL     1       4.494   1.864  21.144  0.00  0.00    +0.000 F 
ENDBRANCH   6   7
BRANCH   3  14
ATOM     14  C   UNL     1       6.772   4.379  16.495  0.00  0.00    +0.000 C 
ATOM     15  O   UNL     1       7.993   4.507  16.524  0.00  0.00    +0.000 OA
ATOM     16  N   UNL     1       6.003   4.332  15.344  0.00  0.00    +0.000 N 
ATOM     17  H   UNL     1       4.994   4.361  15.480  0.00  0.00    +0.000 HD
BRANCH  16  18
ATOM     18  C   UNL     1       6.484   4.377  14.014  0.00  0.00    +0.000 A 
ATOM     19  C   UNL     1       6.069   3.476  13.028  0.00  0.00    +0.000 A 
ATOM     20  C   UNL     1       6.602   3.524  11.736  0.00  0.00    +0.000 A 
ATOM     21  C   UNL     1       7.557   4.481  11.412  0.00  0.00    +0.000 A 
ATOM     22  C   UNL     1       7.959   5.405  12.374  0.00  0.00    +0.000 A 
ATOM     23  C   UNL     1       7.416   5.363  13.665  0.00  0.00    +0.000 A 
ENDBRANCH  16  18
ENDBRANCH   3  14
TORSDOF 3
ENDMDL
MODEL 4
REMARK VINA RESULT:      -7.7      1.082      1.806
REMARK  Name = 
REMARK  4 active torsions:
REMARK  status: ('A' for Active; 'I' for Inactive)
REMARK    1  A    between atoms: C_1  and  C_2
REMARK    2  A    between atoms: C_3  and  C_4
REMARK    3  A    between atoms: N_6  and  C_7
REMARK    4  A    between atoms: N_15  and  C_16
REMARK                            x       y       z     vdW  Elec       q    Type
REMARK                         _______ _______ _______ _____ _____    ______ ____
ROOT
ATOM      1  C   UNL     1       3.801   2.989  17.019  0.00  0.00    +0.000 C 
ATOM      2  C   UNL     1       4.644   3.817  17.922  0.00  0.00    +0.000 A 
ATOM      3  C   UNL     1       5.838   4.493  17.690  0.00  0.00    +0.000 A 
ATOM      4  N   UNL     1       6.118   5.291  18.768  0.00  0.00    +0.000 NA
ATOM      5  N   UNL     1       5.133   5.164  19.643  0.00  0.00    +0.000 NA
ATOM      6  N   UNL     1       4.292   4.184  19.214  0.00  0.00    +0.000 N 
ENDROOT
BRANCH   6   7
ATOM      7  C   UNL     1       3.231   3.751  20.043  0.00  0.00    +0.000 A 
ATOM      8  C   UNL     1       3.456   2.704  20.952  0.00  0.00    +0.000 A 
ATOM      9  C   UNL     1       2.426   2.269  21.792  0.00  0.00    +0.000 A 
ATOM     10  C   UNL     1       1.163   2.853  21.714  0.00  0.00    +0.000 A 
ATOM     11  C   UNL     1       0.924   3.862  20.785  0.00  0.00    +0.000 A 
ATOM     12  C   UNL     1       1.954   4.302  19.952  0.00  0.00    +0.000 A 
ATOM     13  F   UNL     1       1.635   5.181  18.996  0.00  0.00    +0.000 F 
ENDBRANCH   6   7
BRANCH   3  14
ATOM     14  C   UNL     1       6.680   4.468  16.491  0.00  0.00    +0.000 C 
ATOM     15  O   UNL     1       7.903   4.421  16.585  0.00  0.00    +0.000 OA
ATOM     16  N   UNL     1       5.974   4.544  15.301  0.00  0.00    +0.000 N 
ATOM     17  H   UNL     1       4.975   4.715  15.385  0.00  0.00    +0.000 HD
BRANCH  16  18
ATOM     18  C   UNL     1       6.528   4.534  13.999  0.00  0.00    +0.000 A 
ATOM     19  C   UNL     1       6.151   3.605  13.023  0.00  0.00    +0.000 A 
ATOM     20  C   UNL     1       6.753   3.598  11.762  0.00  0.00    +0.000 A 
ATOM     21  C   UNL     1       7.741   4.528  11.457  0.00  0.00    +0.000 A 
ATOM     22  C   UNL     1       8.106   5.480  12.406  0.00  0.00    +0.000 A 
ATOM     23  C   UNL     1       7.494   5.492  13.667  0.00  0.00    +0.000 A 
ENDBRANCH  16  18
ENDBRANCH   3  14
TORSDOF 3
ENDMDL
MODEL 5
REMARK VINA RESULT:      -7.6      1.212      1.217
REMARK  Name = 
REMARK  4 active torsions:
REMARK  status: ('A' for Active; 'I' for Inactive)
REMARK    1  A    between atoms: C_1  and  C_2
REMARK    2  A    between atoms: C_3  and  C_4
REMARK    3  A    between atoms: N_6  and  C_7
REMARK    4  A    between atoms: N_15  and  C_16
REMARK                            x       y       z     vdW  Elec       q    Type
REMARK                         _______ _______ _______ _____ _____    ______ ____
ROOT
ATOM      1  C   UNL     1       2.953   3.463  16.840  0.00  0.00    +0.000 C 
ATOM      2  C   UNL     1       3.819   4.360  17.650  0.00  0.00    +0.000 A 
ATOM      3  C   UNL     1       4.780   5.291  17.266  0.00  0.00    +0.000 A 
ATOM      4  N   UNL     1       5.155   6.025  18.361  0.00  0.00    +0.000 NA
ATOM      5  N   UNL     1       4.445   5.612  19.398  0.00  0.00    +0.000 NA
ATOM      6  N   UNL     1       3.721   4.522  19.025  0.00  0.00    +0.000 N 
ENDROOT
BRANCH   6   7
ATOM      7  C   UNL     1       2.984   3.800  19.993  0.00  0.00    +0.000 A 
ATOM      8  C   UNL     1       1.695   4.238  20.339  0.00  0.00    +0.000 A 
ATOM      9  C   UNL     1       0.943   3.532  21.283  0.00  0.00    +0.000 A 
ATOM     10  C   UNL     1       1.476   2.405  21.904  0.00  0.00    +0.000 A 
ATOM     11  C   UNL     1       2.770   1.991  21.595  0.00  0.00    +0.000 A 
ATOM     12  C   UNL     1       3.517   2.691  20.647  0.00  0.00    +0.000 A 
ATOM     13  F   UNL     1       4.794   2.326  20.485  0.00  0.00    +0.000 F 
ENDBRANCH   6   7
BRANCH   3  14
ATOM     14  C   UNL     1       5.305   5.557  15.924  0.00  0.00    +0.000 C 
ATOM     15  O   UNL     1       5.198   6.670  15.418  0.00  0.00    +0.000 OA
ATOM     16  N   UNL     1       5.868   4.452  15.307  0.00  0.00    +0.000 N 
ATOM     17  H   UNL     1       5.764   3.565  15.796  0.00  0.00    +0.000 HD
BRANCH  16  18
ATOM     18  C   UNL     1       6.455   4.421  14.020  0.00  0.00    +0.000 A 
ATOM     19  C   UNL     1       7.493   5.279  13.639  0.00  0.00    +0.000 A 
ATOM     20  C   UNL     1       8.016   5.249  12.344  0.00  0.00    +0.000 A 
ATOM     21  C   UNL     1       7.508   4.353  11.408  0.00  0.00    +0.000 A 
ATOM     22  C   UNL     1       6.495   3.472  11.779  0.00  0.00    +0.000 A 
ATOM     23  C   UNL     1       5.979   3.496  13.082  0.00  0.00    +0.000 A 
ENDBRANCH  16  18
ENDBRANCH   3  14
TORSDOF 3
ENDMDL
MODEL 6
REMARK VINA RESULT:      -7.5      5.392      6.468
REMARK  Name = 
REMARK  4 active torsions:
REMARK  status: ('A' for Active; 'I' for Inactive)
REMARK    1  A    between atoms: C_1  and  C_2
REMARK    2  A    between atoms: C_3  and  C_4
REMARK    3  A    between atoms: N_6  and  C_7
REMARK    4  A    between atoms: N_15  and  C_16
REMARK                            x       y       z     vdW  Elec       q    Type
REMARK                         _______ _______ _______ _____ _____    ______ ____
ROOT
ATOM      1  C   UNL     1       2.122   9.398  17.623  0.00  0.00    +0.000 C 
ATOM      2  C   UNL     1       1.820   8.561  18.815  0.00  0.00    +0.000 A 
ATOM      3  C   UNL     1       2.236   7.278  19.157  0.00  0.00    +0.000 A 
ATOM      4  N   UNL     1       1.869   7.019  20.452  0.00  0.00    +0.000 NA
ATOM      5  N   UNL     1       1.275   8.098  20.937  0.00  0.00    +0.000 NA
ATOM      6  N   UNL     1       1.119   9.000  19.930  0.00  0.00    +0.000 N 
ENDROOT
BRANCH   6   7
ATOM      7  C   UNL     1       0.380  10.185  20.152  0.00  0.00    +0.000 A 
ATOM      8  C   UNL     1       0.749  11.034  21.208  0.00  0.00    +0.000 A 
ATOM      9  C   UNL     1       0.041  12.218  21.438  0.00  0.00    +0.000 A 
ATOM     10  C   UNL     1      -1.051  12.550  20.638  0.00  0.00    +0.000 A 
ATOM     11  C   UNL     1      -1.447  11.690  19.616  0.00  0.00    +0.000 A 
ATOM     12  C   UNL     1      -0.735  10.512  19.381  0.00  0.00    +0.000 A 
ATOM     13  F   UNL     1      -1.235   9.666  18.475  0.00  0.00    +0.000 F 
ENDBRANCH   6   7
BRANCH   3  14
ATOM     14  C   UNL     1       3.004   6.324  18.353  0.00  0.00    +0.000 C 
ATOM     15  O   UNL     1       2.541   5.222  18.076  0.00  0.00    +0.000 OA
ATOM     16  N   UNL     1       4.265   6.772  17.996  0.00  0.00    +0.000 N 
ATOM     17  H   UNL     1       4.562   7.652  18.412  0.00  0.00    +0.000 HD
BRANCH  16  18
ATOM     18  C   UNL     1       5.215   6.065  17.220  0.00  0.00    +0.000 A 
ATOM     19  C   UNL     1       5.157   6.005  15.823  0.00  0.00    +0.000 A 
ATOM     20  C   UNL     1       6.088   5.260  15.094  0.00  0.00    +0.000 A 
ATOM     21  C   UNL     1       7.095   4.564  15.754  0.00  0.00    +0.000 A 
ATOM     22  C   UNL     1       7.184   4.638  17.142  0.00  0.00    +0.000 A 
ATOM     23  C   UNL     1       6.257   5.394  17.872  0.00  0.00    +0.000 A 
ENDBRANCH  16  18
ENDBRANCH   3  14
TORSDOF 3
ENDMDL
MODEL 7
REMARK VINA RESULT:      -7.5      5.659      7.512
REMARK  Name = 
REMARK  4 active torsions:
REMARK  status: ('A' for Active; 'I' for Inactive)
REMARK    1  A    between atoms: C_1  and  C_2
REMARK    2  A    between atoms: C_3  and  C_4
REMARK    3  A    between atoms: N_6  and  C_7
REMARK    4  A    between atoms: N_15  and  C_16
REMARK                            x       y       z     vdW  Elec       q    Type
REMARK                         _______ _______ _______ _____ _____    ______ ____
ROOT
ATOM      1  C   UNL     1       1.236   7.949  20.881  0.00  0.00    +0.000 C 
ATOM      2  C   UNL     1       1.602   8.546  19.569  0.00  0.00    +0.000 A 
ATOM      3  C   UNL     1       2.304   8.017  18.490  0.00  0.00    +0.000 A 
ATOM      4  N   UNL     1       2.199   8.873  17.425  0.00  0.00    +0.000 NA
ATOM      5  N   UNL     1       1.435   9.891  17.786  0.00  0.00    +0.000 NA
ATOM      6  N   UNL     1       1.164   9.783  19.115  0.00  0.00    +0.000 N 
ENDROOT
BRANCH   6   7
ATOM      7  C   UNL     1       0.481  10.826  19.783  0.00  0.00    +0.000 A 
ATOM      8  C   UNL     1       1.211  11.718  20.585  0.00  0.00    +0.000 A 
ATOM      9  C   UNL     1       0.559  12.766  21.244  0.00  0.00    +0.000 A 
ATOM     10  C   UNL     1      -0.822  12.914  21.130  0.00  0.00    +0.000 A 
ATOM     11  C   UNL     1      -1.556  12.006  20.370  0.00  0.00    +0.000 A 
ATOM     12  C   UNL     1      -0.904  10.966  19.706  0.00  0.00    +0.000 A 
ATOM     13  F   UNL     1      -1.670  10.053  19.099  0.00  0.00    +0.000 F 
ENDBRANCH   6   7
BRANCH   3  14
ATOM     14  C   UNL     1       3.006   6.734  18.401  0.00  0.00    +0.000 C 
ATOM     15  O   UNL     1       4.173   6.683  18.026  0.00  0.00    +0.000 OA
ATOM     16  N   UNL     1       2.226   5.638  18.732  0.00  0.00    +0.000 N 
ATOM     17  H   UNL     1       1.238   5.824  18.892  0.00  0.00    +0.000 HD
BRANCH  16  18
ATOM     18  C   UNL     1       2.644   4.286  18.740  0.00  0.00    +0.000 A 
ATOM     19  C   UNL     1       3.454   3.749  19.746  0.00  0.00    +0.000 A 
ATOM     20  C   UNL     1       3.883   2.420  19.696  0.00  0.00    +0.000 A 
ATOM     21  C   UNL     1       3.503   1.605  18.635  0.00  0.00    +0.000 A 
ATOM     22  C   UNL     1       2.672   2.115  17.640  0.00  0.00    +0.000 A 
ATOM     23  C   UNL     1       2.233   3.445  17.698  0.00  0.00    +0.000 A 
ENDBRANCH  16  18
ENDBRANCH   3  14
TORSDOF 3
ENDMDL
MODEL 8
REMARK VINA RESULT:      -7.5      4.767      6.071
REMARK  Name = 
REMARK  4 active torsions:
REMARK  status: ('A' for Active; 'I' for Inactive)
REMARK    1  A    between atoms: C_1  and  C_2
REMARK    2  A    between atoms: C_3  and  C_4
REMARK    3  A    between atoms: N_6  and  C_7
REMARK    4  A    between atoms: N_15  and  C_16
REMARK                            x       y       z     vdW  Elec       q    Type
REMARK                         _______ _______ _______ _____ _____    ______ ____
ROOT
ATOM      1  C   UNL     1       4.836   7.072  17.399  0.00  0.00    +0.000 C 
ATOM      2  C   UNL     1       6.012   6.344  17.944  0.00  0.00    +0.000 A 
ATOM      3  C   UNL     1       7.304   6.778  18.226  0.00  0.00    +0.000 A 
ATOM      4  N   UNL     1       7.966   5.795  18.915  0.00  0.00    +0.000 NA
ATOM      5  N   UNL     1       7.131   4.786  19.100  0.00  0.00    +0.000 NA
ATOM      6  N   UNL     1       5.983   5.038  18.415  0.00  0.00    +0.000 N 
ENDROOT
BRANCH   6   7
ATOM      7  C   UNL     1       4.978   4.045  18.331  0.00  0.00    +0.000 A 
ATOM      8  C   UNL     1       4.565   3.390  19.502  0.00  0.00    +0.000 A 
ATOM      9  C   UNL     1       3.563   2.415  19.446  0.00  0.00    +0.000 A 
ATOM     10  C   UNL     1       2.989   2.070  18.224  0.00  0.00    +0.000 A 
ATOM     11  C   UNL     1       3.426   2.687  17.055  0.00  0.00    +0.000 A 
ATOM     12  C   UNL     1       4.419   3.665  17.112  0.00  0.00    +0.000 A 
ATOM     13  F   UNL     1       4.888   4.130  15.949  0.00  0.00    +0.000 F 
ENDBRANCH   6   7
BRANCH   3  14
ATOM     14  C   UNL     1       7.911   8.079  17.935  0.00  0.00    +0.000 C 
ATOM     15  O   UNL     1       7.873   8.549  16.802  0.00  0.00    +0.000 OA
ATOM     16  N   UNL     1       8.538   8.667  19.021  0.00  0.00    +0.000 N 
ATOM     17  H   UNL     1       8.604   8.097  19.862  0.00  0.00    +0.000 HD
BRANCH  16  18
ATOM     18  C   UNL     1       9.198   9.920  19.029  0.00  0.00    +0.000 A 
ATOM     19  C   UNL     1       9.513  10.617  17.857  0.00  0.00    +0.000 A 
ATOM     20  C   UNL     1      10.205  11.830  17.904  0.00  0.00    +0.000 A 
ATOM     21  C   UNL     1      10.589  12.367  19.128  0.00  0.00    +0.000 A 
ATOM     22  C   UNL     1      10.257  11.700  20.305  0.00  0.00    +0.000 A 
ATOM     23  C   UNL     1       9.554  10.489  20.258  0.00  0.00    +0.000 A 
ENDBRANCH  16  18
ENDBRANCH   3  14
TORSDOF 3
ENDMDL
MODEL 9
REMARK VINA RESULT:      -7.5      6.041      9.104
REMARK  Name = 
REMARK  4 active torsions:
REMARK  status: ('A' for Active; 'I' for Inactive)
REMARK    1  A    between atoms: C_1  and  C_2
REMARK    2  A    between atoms: C_3  and  C_4
REMARK    3  A    between atoms: N_6  and  C_7
REMARK    4  A    between atoms: N_15  and  C_16
REMARK                            x       y       z     vdW  Elec       q    Type
REMARK                         _______ _______ _______ _____ _____    ______ ____
ROOT
ATOM      1  C   UNL     1       1.497   7.216  20.755  0.00  0.00    +0.000 C 
ATOM      2  C   UNL     1       1.854   7.747  19.412  0.00  0.00    +0.000 A 
ATOM      3  C   UNL     1       1.567   8.967  18.807  0.00  0.00    +0.000 A 
ATOM      4  N   UNL     1       2.294   9.075  17.650  0.00  0.00    +0.000 NA
ATOM      5  N   UNL     1       3.043   7.991  17.530  0.00  0.00    +0.000 NA
ATOM      6  N   UNL     1       2.704   7.115  18.514  0.00  0.00    +0.000 N 
ENDROOT
BRANCH   6   7
ATOM      7  C   UNL     1       3.259   5.814  18.523  0.00  0.00    +0.000 A 
ATOM      8  C   UNL     1       4.575   5.634  18.981  0.00  0.00    +0.000 A 
ATOM      9  C   UNL     1       5.140   4.355  19.011  0.00  0.00    +0.000 A 
ATOM     10  C   UNL     1       4.411   3.255  18.563  0.00  0.00    +0.000 A 
ATOM     11  C   UNL     1       3.121   3.435  18.069  0.00  0.00    +0.000 A 
ATOM     12  C   UNL     1       2.554   4.710  18.046  0.00  0.00    +0.000 A 
ATOM     13  F   UNL     1       1.367   4.841  17.445  0.00  0.00    +0.000 F 
ENDBRANCH   6   7
BRANCH   3  14
ATOM     14  C   UNL     1       0.701  10.043  19.295  0.00  0.00    +0.000 C 
ATOM     15  O   UNL     1      -0.158  10.534  18.568  0.00  0.00    +0.000 OA
ATOM     16  N   UNL     1       0.978  10.451  20.589  0.00  0.00    +0.000 N 
ATOM     17  H   UNL     1       1.807  10.044  21.018  0.00  0.00    +0.000 HD
BRANCH  16  18
ATOM     18  C   UNL     1       0.298  11.461  21.312  0.00  0.00    +0.000 A 
ATOM     19  C   UNL     1       0.561  12.824  21.137  0.00  0.00    +0.000 A 
ATOM     20  C   UNL     1      -0.100  13.790  21.902  0.00  0.00    +0.000 A 
ATOM     21  C   UNL     1      -1.039  13.403  22.852  0.00  0.00    +0.000 A 
ATOM     22  C   UNL     1      -1.333  12.052  23.017  0.00  0.00    +0.000 A 
ATOM     23  C   UNL     1      -0.678  11.085  22.243  0.00  0.00    +0.000 A 
ENDBRANCH  16  18
ENDBRANCH   3  14
TORSDOF 3
ENDMDL
