MODEL 1
REMARK VINA RESULT:      -8.7      0.000      0.000
REMARK  Name = 
REMARK  5 active torsions:
REMARK  status: ('A' for Active; 'I' for Inactive)
REMARK    1  A    between atoms: C_1  and  O_2
REMARK    2  A    between atoms: O_2  and  C_3
REMARK    3  A    between atoms: N_5  and  C_6
REMARK    4  A    between atoms: C_9  and  S_10
REMARK    5  A    between atoms: S_10  and  N_13
REMARK                            x       y       z     vdW  Elec       q    Type
REMARK                         _______ _______ _______ _____ _____    ______ ____
ROOT
ATOM      1  C   UNL     1       1.703   7.857  19.958  0.00  0.00    +0.000 A 
ATOM      2  C   UNL     1       2.347   8.005  18.724  0.00  0.00    +0.000 A 
ATOM      3  C   UNL     1       3.205   6.986  18.136  0.00  0.00    +0.000 A 
ATOM      4  C   UNL     1       3.489   5.769  18.765  0.00  0.00    +0.000 A 
ATOM      5  C   UNL     1       2.754   5.552  19.976  0.00  0.00    +0.000 A 
ATOM      6  C   UNL     1       1.891   6.595  20.553  0.00  0.00    +0.000 A 
ENDROOT
BRANCH   1   9
ATOM      7  C   UNL     1       1.136   9.494  21.804  0.00  0.00    +0.000 C 
ATOM      8  O   UNL     1       2.082   9.246  22.539  0.00  0.00    +0.000 OA
ATOM      9  N   UNL     1       0.885   8.891  20.571  0.00  0.00    +0.000 N 
ATOM     10  H   UNL     1       0.096   9.280  20.064  0.00  0.00    +0.000 HD
BRANCH   7  12
ATOM     11  C   UNL     1      -0.482  10.996  20.978  0.00  0.00    +0.000 C 
ATOM     12  O   UNL     1       0.212  10.457  22.132  0.00  0.00    +0.000 OA
ENDBRANCH   7  12
ENDBRANCH   1   9
BRANCH   4  13
ATOM     13  S   UNL     1       4.755   4.399  17.975  0.00  0.00    +0.000 S 
ATOM     14  O   UNL     1       5.871   4.396  18.909  0.00  0.00    +0.000 OA
ATOM     15  O   UNL     1       3.968   3.215  17.707  0.00  0.00    +0.000 OA
BRANCH  13  16
ATOM     16  N   UNL     1       5.658   4.820  16.254  0.00  0.00    +0.000 N 
ATOM     17  C   UNL     1       6.981   4.607  16.519  0.00  0.00    +0.000 A 
ATOM     18  N   UNL     1       7.549   5.432  15.703  0.00  0.00    +0.000 NA
ATOM     19  C   UNL     1       6.893   5.023  14.583  0.00  0.00    +0.000 A 
ATOM     20  C   UNL     1       7.622   5.158  13.334  0.00  0.00    +0.000 A 
ATOM     21  C   UNL     1       7.382   4.471  12.177  0.00  0.00    +0.000 A 
ATOM     22  C   UNL     1       6.309   3.646  12.274  0.00  0.00    +0.000 A 
ATOM     23  C   UNL     1       5.500   3.587  13.524  0.00  0.00    +0.000 A 
ATOM     24  C   UNL     1       5.557   4.191  14.910  0.00  0.00    +0.000 A 
ENDBRANCH  13  16
ENDBRANCH   4  13
TORSDOF 4
ENDMDL
MODEL 2
REMARK VINA RESULT:      -8.6      1.243      1.442
REMARK  Name = 
REMARK  5 active torsions:
REMARK  status: ('A' for Active; 'I' for Inactive)
REMARK    1  A    between atoms: C_1  and  O_2
REMARK    2  A    between atoms: O_2  and  C_3
REMARK    3  A    between atoms: N_5  and  C_6
REMARK    4  A    between atoms: C_9  and  S_10
REMARK    5  A    between atoms: S_10  and  N_13
REMARK                            x       y       z     vdW  Elec       q    Type
REMARK                         _______ _______ _______ _____ _____    ______ ____
ROOT
ATOM      1  C   UNL     1       1.784   8.491  19.377  0.00  0.00    +0.000 A 
ATOM      2  C   UNL     1       2.470   8.523  18.158  0.00  0.00    +0.000 A 
ATOM      3  C   UNL     1       3.301   7.430  17.672  0.00  0.00    +0.000 A 
ATOM      4  C   UNL     1       3.513   6.251  18.396  0.00  0.00    +0.000 A 
ATOM      5  C   UNL     1       2.734   6.153  19.595  0.00  0.00    +0.000 A 
ATOM      6  C   UNL     1       1.899   7.269  20.067  0.00  0.00    +0.000 A 
ENDROOT
BRANCH   1   9
ATOM      7  C   UNL     1      -0.025  10.253  19.191  0.00  0.00    +0.000 C 
ATOM      8  O   UNL     1      -0.402   9.982  18.059  0.00  0.00    +0.000 OA
ATOM      9  N   UNL     1       0.993   9.599  19.887  0.00  0.00    +0.000 N 
ATOM     10  H   UNL     1       1.115   9.910  20.847  0.00  0.00    +0.000 HD
BRANCH   7  12
ATOM     11  C   UNL     1      -0.055  11.406  21.247  0.00  0.00    +0.000 C 
ATOM     12  O   UNL     1      -0.623  11.253  19.921  0.00  0.00    +0.000 OA
ENDBRANCH   7  12
ENDBRANCH   1   9
BRANCH   4  13
ATOM     13  S   UNL     1       4.743   4.777  17.749  0.00  0.00    +0.000 S 
ATOM     14  O   UNL     1       5.859   4.838  18.681  0.00  0.00    +0.000 OA
ATOM     15  O   UNL     1       3.925   3.592  17.599  0.00  0.00    +0.000 OA
BRANCH  13  16
ATOM     16  N   UNL     1       5.656   5.001  15.997  0.00  0.00    +0.000 N 
ATOM     17  C   UNL     1       6.966   4.729  16.274  0.00  0.00    +0.000 A 
ATOM     18  N   UNL     1       7.576   5.449  15.392  0.00  0.00    +0.000 NA
ATOM     19  C   UNL     1       6.887   4.991  14.311  0.00  0.00    +0.000 A 
ATOM     20  C   UNL     1       7.613   4.981  13.053  0.00  0.00    +0.000 A 
ATOM     21  C   UNL     1       7.322   4.218  11.956  0.00  0.00    +0.000 A 
ATOM     22  C   UNL     1       6.201   3.471  12.123  0.00  0.00    +0.000 A 
ATOM     23  C   UNL     1       5.401   3.564  13.376  0.00  0.00    +0.000 A 
ATOM     24  C   UNL     1       5.506   4.273  14.709  0.00  0.00    +0.000 A 
ENDBRANCH  13  16
ENDBRANCH   4  13
TORSDOF 4
ENDMDL
MODEL 3
REMARK VINA RESULT:      -8.4      0.461      1.089
REMARK  Name = 
REMARK  5 active torsions:
REMARK  status: ('A' for Active; 'I' for Inactive)
REMARK    1  A    between atoms: C_1  and  O_2
REMARK    2  A    between atoms: O_2  and  C_3
REMARK    3  A    between atoms: N_5  and  C_6
REMARK    4  A    between atoms: C_9  and  S_10
REMARK    5  A    between atoms: S_10  and  N_13
REMARK                            x       y       z     vdW  Elec       q    Type
REMARK                         _______ _______ _______ _____ _____    ______ ____
ROOT
ATOM      1  C   UNL     1       1.687   8.254  19.792  0.00  0.00    +0.000 A 
ATOM      2  C   UNL     1       1.917   7.013  20.398  0.00  0.00    +0.000 A 
ATOM      3  C   UNL     1       2.674   5.939  19.772  0.00  0.00    +0.000 A 
ATOM      4  C   UNL     1       3.220   6.036  18.487  0.00  0.00    +0.000 A 
ATOM      5  C   UNL     1       3.089   7.334  17.893  0.00  0.00    +0.000 A 
ATOM      6  C   UNL     1       2.322   8.407  18.545  0.00  0.00    +0.000 A 
ENDROOT
BRANCH   1   9
ATOM      7  C   UNL     1       1.018   9.770  21.706  0.00  0.00    +0.000 C 
ATOM      8  O   UNL     1       1.819   9.354  22.532  0.00  0.00    +0.000 OA
ATOM      9  N   UNL     1       0.892   9.311  20.394  0.00  0.00    +0.000 N 
ATOM     10  H   UNL     1       0.225   9.829  19.829  0.00  0.00    +0.000 HD
BRANCH   7  12
ATOM     11  C   UNL     1      -0.335  11.489  20.830  0.00  0.00    +0.000 C 
ATOM     12  O   UNL     1       0.152  10.795  22.006  0.00  0.00    +0.000 OA
ENDBRANCH   7  12
ENDBRANCH   1   9
BRANCH   4  13
ATOM     13  S   UNL     1       4.193   4.501  17.593  0.00  0.00    +0.000 S 
ATOM     14  O   UNL     1       5.195   4.119  18.578  0.00  0.00    +0.000 OA
ATOM     15  O   UNL     1       3.176   3.581  17.129  0.00  0.00    +0.000 OA
BRANCH  13  16
ATOM     16  N   UNL     1       5.312   4.885  15.995  0.00  0.00    +0.000 N 
ATOM     17  C   UNL     1       6.589   4.672  16.431  0.00  0.00    +0.000 A 
ATOM     18  N   UNL     1       7.262   5.479  15.679  0.00  0.00    +0.000 NA
ATOM     19  C   UNL     1       6.751   5.050  14.492  0.00  0.00    +0.000 A 
ATOM     20  C   UNL     1       7.635   5.159  13.344  0.00  0.00    +0.000 A 
ATOM     21  C   UNL     1       7.541   4.450  12.179  0.00  0.00    +0.000 A 
ATOM     22  C   UNL     1       6.458   3.631  12.153  0.00  0.00    +0.000 A 
ATOM     23  C   UNL     1       5.497   3.600  13.290  0.00  0.00    +0.000 A 
ATOM     24  C   UNL     1       5.379   4.230  14.661  0.00  0.00    +0.000 A 
ENDBRANCH  13  16
ENDBRANCH   4  13
TORSDOF 4
ENDMDL
MODEL 4
REMARK VINA RESULT:      -8.3      5.032      6.816
REMARK  Name = 
REMARK  5 active torsions:
REMARK  status: ('A' for Active; 'I' for Inactive)
REMARK    1  A    between atoms: C_1  and  O_2
REMARK    2  A    between atoms: O_2  and  C_3
REMARK    3  A    between atoms: N_5  and  C_6
REMARK    4  A    between atoms: C_9  and  S_10
REMARK    5  A    between atoms: S_10  and  N_13
REMARK                            x       y       z     vdW  Elec       q    Type
REMARK                         _______ _______ _______ _____ _____    ______ ____
ROOT
ATOM      1  C   UNL     1       8.708   9.186  18.835  0.00  0.00    +0.000 A 
ATOM      2  C   UNL     1       7.850   9.368  17.744  0.00  0.00    +0.000 A 
ATOM      3  C   UNL     1       7.154   8.278  17.075  0.00  0.00    +0.000 A 
ATOM      4  C   UNL     1       7.300   6.936  17.445  0.00  0.00    +0.000 A 
ATOM      5  C   UNL     1       8.087   6.738  18.627  0.00  0.00    +0.000 A 
ATOM      6  C   UNL     1       8.780   7.854  19.289  0.00  0.00    +0.000 A 
ENDROOT
BRANCH   1   9
ATOM      7  C   UNL     1      10.232  11.206  18.814  0.00  0.00    +0.000 C 
ATOM      8  O   UNL     1      10.414  11.262  17.605  0.00  0.00    +0.000 OA
ATOM      9  N   UNL     1       9.442  10.265  19.474  0.00  0.00    +0.000 N 
ATOM     10  H   UNL     1       9.345  10.422  20.474  0.00  0.00    +0.000 HD
BRANCH   7  12
ATOM     11  C   UNL     1      10.166  12.159  20.969  0.00  0.00    +0.000 C 
ATOM     12  O   UNL     1      10.795  12.130  19.663  0.00  0.00    +0.000 OA
ENDBRANCH   7  12
ENDBRANCH   1   9
BRANCH   4  13
ATOM     13  S   UNL     1       6.395   5.423  16.448  0.00  0.00    +0.000 S 
ATOM     14  O   UNL     1       5.479   6.112  15.551  0.00  0.00    +0.000 OA
ATOM     15  O   UNL     1       7.450   4.559  15.962  0.00  0.00    +0.000 OA
BRANCH  13  16
ATOM     16  N   UNL     1       5.165   4.224  17.451  0.00  0.00    +0.000 N 
ATOM     17  C   UNL     1       5.408   4.528  18.761  0.00  0.00    +0.000 A 
ATOM     18  N   UNL     1       5.135   3.409  19.345  0.00  0.00    +0.000 NA
ATOM     19  C   UNL     1       3.903   3.238  18.790  0.00  0.00    +0.000 A 
ATOM     20  C   UNL     1       2.936   2.516  19.598  0.00  0.00    +0.000 A 
ATOM     21  C   UNL     1       1.576   2.569  19.474  0.00  0.00    +0.000 A 
ATOM     22  C   UNL     1       1.177   3.348  18.436  0.00  0.00    +0.000 A 
ATOM     23  C   UNL     1       2.175   4.003  17.545  0.00  0.00    +0.000 A 
ATOM     24  C   UNL     1       3.681   4.135  17.475  0.00  0.00    +0.000 A 
ENDBRANCH  13  16
ENDBRANCH   4  13
TORSDOF 4
ENDMDL
MODEL 5
REMARK VINA RESULT:      -8.3      4.133      9.265
REMARK  Name = 
REMARK  5 active torsions:
REMARK  status: ('A' for Active; 'I' for Inactive)
REMARK    1  A    between atoms: C_1  and  O_2
REMARK    2  A    between atoms: O_2  and  C_3
REMARK    3  A    between atoms: N_5  and  C_6
REMARK    4  A    between atoms: C_9  and  S_10
REMARK    5  A    between atoms: S_10  and  N_13
REMARK                            x       y       z     vdW  Elec       q    Type
REMARK                         _______ _______ _______ _____ _____    ______ ____
ROOT
ATOM      1  C   UNL     1       2.876   6.276  19.048  0.00  0.00    +0.000 A 
ATOM      2  C   UNL     1       2.118   6.763  20.120  0.00  0.00    +0.000 A 
ATOM      3  C   UNL     1       1.503   8.083  20.138  0.00  0.00    +0.000 A 
ATOM      4  C   UNL     1       1.636   9.003  19.092  0.00  0.00    +0.000 A 
ATOM      5  C   UNL     1       2.315   8.485  17.941  0.00  0.00    +0.000 A 
ATOM      6  C   UNL     1       2.928   7.147  17.943  0.00  0.00    +0.000 A 
ENDROOT
BRANCH   1   9
ATOM      7  C   UNL     1       4.886   4.758  19.298  0.00  0.00    +0.000 C 
ATOM      8  O   UNL     1       5.712   5.621  19.563  0.00  0.00    +0.000 OA
ATOM      9  N   UNL     1       3.531   4.979  19.046  0.00  0.00    +0.000 N 
ATOM     10  H   UNL     1       2.982   4.133  18.922  0.00  0.00    +0.000 HD
BRANCH   7  12
ATOM     11  C   UNL     1       4.261   2.564  19.892  0.00  0.00    +0.000 C 
ATOM     12  O   UNL     1       5.234   3.429  19.253  0.00  0.00    +0.000 OA
ENDBRANCH   7  12
ENDBRANCH   1   9
BRANCH   4  13
ATOM     13  S   UNL     1       0.850  10.868  19.170  0.00  0.00    +0.000 S 
ATOM     14  O   UNL     1       0.504  11.028  20.575  0.00  0.00    +0.000 OA
ATOM     15  O   UNL     1       1.790  11.742  18.501  0.00  0.00    +0.000 OA
BRANCH  13  16
ATOM     16  N   UNL     1      -0.894  11.204  18.276  0.00  0.00    +0.000 N 
ATOM     17  C   UNL     1      -1.252   9.979  17.787  0.00  0.00    +0.000 A 
ATOM     18  N   UNL     1      -1.959  10.304  16.755  0.00  0.00    +0.000 NA
ATOM     19  C   UNL     1      -2.789  11.170  17.399  0.00  0.00    +0.000 A 
ATOM     20  C   UNL     1      -4.131  11.285  16.858  0.00  0.00    +0.000 A 
ATOM     21  C   UNL     1      -5.238  11.734  17.524  0.00  0.00    +0.000 A 
ATOM     22  C   UNL     1      -4.956  12.143  18.787  0.00  0.00    +0.000 A 
ATOM     23  C   UNL     1      -3.559  12.121  19.303  0.00  0.00    +0.000 A 
ATOM     24  C   UNL     1      -2.202  11.663  18.812  0.00  0.00    +0.000 A 
ENDBRANCH  13  16
ENDBRANCH   4  13
TORSDOF 4
ENDMDL
MODEL 6
REMARK VINA RESULT:      -8.2      4.256      9.340
REMARK  Name = 
REMARK  5 active torsions:
REMARK  status: ('A' for Active; 'I' for Inactive)
REMARK    1  A    between atoms: C_1  and  O_2
REMARK    2  A    between atoms: O_2  and  C_3
REMARK    3  A    between atoms: N_5  and  C_6
REMARK    4  A    between atoms: C_9  and  S_10
REMARK    5  A    between atoms: S_10  and  N_13
REMARK                            x       y       z     vdW  Elec       q    Type
REMARK                         _______ _______ _______ _____ _____    ______ ____
ROOT
ATOM      1  C   UNL     1       2.663   6.333  18.893  0.00  0.00    +0.000 A 
ATOM      2  C   UNL     1       2.731   7.269  17.854  0.00  0.00    +0.000 A 
ATOM      3  C   UNL     1       2.197   8.620  17.950  0.00  0.00    +0.000 A 
ATOM      4  C   UNL     1       1.538   9.103  19.087  0.00  0.00    +0.000 A 
ATOM      5  C   UNL     1       1.554   8.199  20.199  0.00  0.00    +0.000 A 
ATOM      6  C   UNL     1       2.101   6.838  20.081  0.00  0.00    +0.000 A 
ENDROOT
BRANCH   1   9
ATOM      7  C   UNL     1       2.524   3.940  18.080  0.00  0.00    +0.000 C 
ATOM      8  O   UNL     1       1.480   4.041  17.450  0.00  0.00    +0.000 OA
ATOM      9  N   UNL     1       3.152   4.969  18.783  0.00  0.00    +0.000 N 
ATOM     10  H   UNL     1       4.053   4.719  19.181  0.00  0.00    +0.000 HD
BRANCH   7  12
ATOM     11  C   UNL     1       4.067   2.636  19.294  0.00  0.00    +0.000 C 
ATOM     12  O   UNL     1       3.217   2.753  18.125  0.00  0.00    +0.000 OA
ENDBRANCH   7  12
ENDBRANCH   1   9
BRANCH   4  13
ATOM     13  S   UNL     1       0.722  10.954  19.173  0.00  0.00    +0.000 S 
ATOM     14  O   UNL     1       0.357  11.095  20.575  0.00  0.00    +0.000 OA
ATOM     15  O   UNL     1       1.655  11.849  18.523  0.00  0.00    +0.000 OA
BRANCH  13  16
ATOM     16  N   UNL     1      -1.017  11.271  18.262  0.00  0.00    +0.000 N 
ATOM     17  C   UNL     1      -1.345  10.048  17.749  0.00  0.00    +0.000 A 
ATOM     18  N   UNL     1      -2.045  10.376  16.714  0.00  0.00    +0.000 NA
ATOM     19  C   UNL     1      -2.900  11.215  17.361  0.00  0.00    +0.000 A 
ATOM     20  C   UNL     1      -4.238  11.313  16.804  0.00  0.00    +0.000 A 
ATOM     21  C   UNL     1      -5.361  11.728  17.463  0.00  0.00    +0.000 A 
ATOM     22  C   UNL     1      -5.103  12.122  18.736  0.00  0.00    +0.000 A 
ATOM     23  C   UNL     1      -3.712  12.118  19.270  0.00  0.00    +0.000 A 
ATOM     24  C   UNL     1      -2.341  11.696  18.789  0.00  0.00    +0.000 A 
ENDBRANCH  13  16
ENDBRANCH   4  13
TORSDOF 4
ENDMDL
MODEL 7
REMARK VINA RESULT:      -8.2      1.431      1.773
REMARK  Name = 
REMARK  5 active torsions:
REMARK  status: ('A' for Active; 'I' for Inactive)
REMARK    1  A    between atoms: C_1  and  O_2
REMARK    2  A    between atoms: O_2  and  C_3
REMARK    3  A    between atoms: N_5  and  C_6
REMARK    4  A    between atoms: C_9  and  S_10
REMARK    5  A    between atoms: S_10  and  N_13
REMARK                            x       y       z     vdW  Elec       q    Type
REMARK                         _______ _______ _______ _____ _____    ______ ____
ROOT
ATOM      1  C   UNL     1       1.559   8.695  19.134  0.00  0.00    +0.000 A 
ATOM      2  C   UNL     1       1.907   7.628  19.970  0.00  0.00    +0.000 A 
ATOM      3  C   UNL     1       2.840   6.577  19.590  0.00  0.00    +0.000 A 
ATOM      4  C   UNL     1       3.457   6.520  18.335  0.00  0.00    +0.000 A 
ATOM      5  C   UNL     1       3.199   7.659  17.504  0.00  0.00    +0.000 A 
ATOM      6  C   UNL     1       2.254   8.712  17.909  0.00  0.00    +0.000 A 
ENDROOT
BRANCH   1   9
ATOM      7  C   UNL     1       0.791  11.095  19.374  0.00  0.00    +0.000 C 
ATOM      8  O   UNL     1       1.803  11.634  18.946  0.00  0.00    +0.000 OA
ATOM      9  N   UNL     1       0.592   9.719  19.492  0.00  0.00    +0.000 N 
ATOM     10  H   UNL     1      -0.341   9.453  19.793  0.00  0.00    +0.000 HD
BRANCH   7  12
ATOM     11  C   UNL     1       0.055  12.977  20.586  0.00  0.00    +0.000 C 
ATOM     12  O   UNL     1      -0.299  11.835  19.766  0.00  0.00    +0.000 OA
ENDBRANCH   7  12
ENDBRANCH   1   9
BRANCH   4  13
ATOM     13  S   UNL     1       4.683   5.003  17.788  0.00  0.00    +0.000 S 
ATOM     14  O   UNL     1       5.786   5.105  18.732  0.00  0.00    +0.000 OA
ATOM     15  O   UNL     1       3.857   3.819  17.689  0.00  0.00    +0.000 OA
BRANCH  13  16
ATOM     16  N   UNL     1       5.625   5.124  16.041  0.00  0.00    +0.000 N 
ATOM     17  C   UNL     1       6.908   4.758  16.335  0.00  0.00    +0.000 A 
ATOM     18  N   UNL     1       7.579   5.413  15.446  0.00  0.00    +0.000 NA
ATOM     19  C   UNL     1       6.865   4.989  14.367  0.00  0.00    +0.000 A 
ATOM     20  C   UNL     1       7.598   4.899  13.116  0.00  0.00    +0.000 A 
ATOM     21  C   UNL     1       7.259   4.141  12.031  0.00  0.00    +0.000 A 
ATOM     22  C   UNL     1       6.083   3.485  12.201  0.00  0.00    +0.000 A 
ATOM     23  C   UNL     1       5.282   3.661  13.444  0.00  0.00    +0.000 A 
ATOM     24  C   UNL     1       5.430   4.385  14.765  0.00  0.00    +0.000 A 
ENDBRANCH  13  16
ENDBRANCH   4  13
TORSDOF 4
ENDMDL
MODEL 8
REMARK VINA RESULT:      -8.2      4.089      9.114
REMARK  Name = 
REMARK  5 active torsions:
REMARK  status: ('A' for Active; 'I' for Inactive)
REMARK    1  A    between atoms: C_1  and  O_2
REMARK    2  A    between atoms: O_2  and  C_3
REMARK    3  A    between atoms: N_5  and  C_6
REMARK    4  A    between atoms: C_9  and  S_10
REMARK    5  A    between atoms: S_10  and  N_13
REMARK                            x       y       z     vdW  Elec       q    Type
REMARK                         _______ _______ _______ _____ _____    ______ ____
ROOT
ATOM      1  C   UNL     1       2.919   6.075  19.213  0.00  0.00    +0.000 A 
ATOM      2  C   UNL     1       2.223   6.547  20.332  0.00  0.00    +0.000 A 
ATOM      3  C   UNL     1       1.592   7.858  20.394  0.00  0.00    +0.000 A 
ATOM      4  C   UNL     1       1.647   8.784  19.346  0.00  0.00    +0.000 A 
ATOM      5  C   UNL     1       2.260   8.280  18.152  0.00  0.00    +0.000 A 
ATOM      6  C   UNL     1       2.890   6.950  18.110  0.00  0.00    +0.000 A 
ENDROOT
BRANCH   1   9
ATOM      7  C   UNL     1       4.955   4.579  19.368  0.00  0.00    +0.000 C 
ATOM      8  O   UNL     1       5.777   5.447  19.624  0.00  0.00    +0.000 OA
ATOM      9  N   UNL     1       3.590   4.786  19.164  0.00  0.00    +0.000 N 
ATOM     10  H   UNL     1       3.048   3.936  19.040  0.00  0.00    +0.000 HD
BRANCH   7  12
ATOM     11  C   UNL     1       4.351   2.361  19.892  0.00  0.00    +0.000 C 
ATOM     12  O   UNL     1       5.318   3.255  19.286  0.00  0.00    +0.000 OA
ENDBRANCH   7  12
ENDBRANCH   1   9
BRANCH   4  13
ATOM     13  S   UNL     1       0.842  10.637  19.481  0.00  0.00    +0.000 S 
ATOM     14  O   UNL     1       0.843  10.900  20.913  0.00  0.00    +0.000 OA
ATOM     15  O   UNL     1       1.562  11.471  18.542  0.00  0.00    +0.000 OA
BRANCH  13  16
ATOM     16  N   UNL     1      -1.077  10.877  19.020  0.00  0.00    +0.000 N 
ATOM     17  C   UNL     1      -1.287  12.217  19.183  0.00  0.00    +0.000 A 
ATOM     18  N   UNL     1      -2.539  12.250  19.501  0.00  0.00    +0.000 NA
ATOM     19  C   UNL     1      -2.987  11.503  18.455  0.00  0.00    +0.000 A 
ATOM     20  C   UNL     1      -4.331  11.799  17.991  0.00  0.00    +0.000 A 
ATOM     21  C   UNL     1      -4.844  11.512  16.756  0.00  0.00    +0.000 A 
ATOM     22  C   UNL     1      -3.967  10.835  15.972  0.00  0.00    +0.000 A 
ATOM     23  C   UNL     1      -2.627  10.441  16.489  0.00  0.00    +0.000 A 
ATOM     24  C   UNL     1      -1.821  10.649  17.753  0.00  0.00    +0.000 A 
ENDBRANCH  13  16
ENDBRANCH   4  13
TORSDOF 4
ENDMDL
MODEL 9
REMARK VINA RESULT:      -8.2      2.661      8.839
REMARK  Name = 
REMARK  5 active torsions:
REMARK  status: ('A' for Active; 'I' for Inactive)
REMARK    1  A    between atoms: C_1  and  O_2
REMARK    2  A    between atoms: O_2  and  C_3
REMARK    3  A    between atoms: N_5  and  C_6
REMARK    4  A    between atoms: C_9  and  S_10
REMARK    5  A    between atoms: S_10  and  N_13
REMARK                            x       y       z     vdW  Elec       q    Type
REMARK                         _______ _______ _______ _____ _____    ______ ____
ROOT
ATOM      1  C   UNL     1       5.975   4.509  14.906  0.00  0.00    +0.000 A 
ATOM      2  C   UNL     1       5.635   5.834  15.201  0.00  0.00    +0.000 A 
ATOM      3  C   UNL     1       4.819   6.221  16.342  0.00  0.00    +0.000 A 
ATOM      4  C   UNL     1       4.271   5.298  17.240  0.00  0.00    +0.000 A 
ATOM      5  C   UNL     1       4.695   3.947  17.019  0.00  0.00    +0.000 A 
ATOM      6  C   UNL     1       5.523   3.577  15.860  0.00  0.00    +0.000 A 
ENDROOT
BRANCH   1   9
ATOM      7  C   UNL     1       6.225   3.565  12.570  0.00  0.00    +0.000 C 
ATOM      8  O   UNL     1       5.040   3.345  12.355  0.00  0.00    +0.000 OA
ATOM      9  N   UNL     1       6.749   4.114  13.741  0.00  0.00    +0.000 N 
ATOM     10  H   UNL     1       7.748   4.297  13.710  0.00  0.00    +0.000 HD
BRANCH   7  12
ATOM     11  C   UNL     1       7.154   1.934  11.145  0.00  0.00    +0.000 C 
ATOM     12  O   UNL     1       7.182   3.304  11.619  0.00  0.00    +0.000 OA
ENDBRANCH   7  12
ENDBRANCH   1   9
BRANCH   4  13
ATOM     13  S   UNL     1       3.063   5.845  18.771  0.00  0.00    +0.000 S 
ATOM     14  O   UNL     1       1.810   5.168  18.468  0.00  0.00    +0.000 OA
ATOM     15  O   UNL     1       3.802   5.596  19.990  0.00  0.00    +0.000 OA
BRANCH  13  16
ATOM     16  N   UNL     1       2.486   7.744  18.895  0.00  0.00    +0.000 N 
ATOM     17  C   UNL     1       1.918   7.993  17.678  0.00  0.00    +0.000 A 
ATOM     18  N   UNL     1       2.133   9.260  17.542  0.00  0.00    +0.000 NA
ATOM     19  C   UNL     1       1.618   9.637  18.745  0.00  0.00    +0.000 A 
ATOM     20  C   UNL     1       1.027  10.962  18.796  0.00  0.00    +0.000 A 
ATOM     21  C   UNL     1       0.109  11.405  19.707  0.00  0.00    +0.000 A 
ATOM     22  C   UNL     1      -0.179  10.474  20.652  0.00  0.00    +0.000 A 
ATOM     23  C   UNL     1       0.508   9.153  20.656  0.00  0.00    +0.000 A 
ATOM     24  C   UNL     1       1.502   8.417  19.784  0.00  0.00    +0.000 A 
ENDBRANCH  13  16
ENDBRANCH   4  13
TORSDOF 4
ENDMDL
