MODEL 1
REMARK VINA RESULT:      -7.0      0.000      0.000
REMARK  Name = 
REMARK  4 active torsions:
REMARK  status: ('A' for Active; 'I' for Inactive)
REMARK    1  A    between atoms: C_1  and  O_2
REMARK    2  A    between atoms: O_2  and  C_3
REMARK    3  A    between atoms: C_6  and  C_7
REMARK    4  A    between atoms: C_9  and  N_10
REMARK                            x       y       z     vdW  Elec       q    Type
REMARK                         _______ _______ _______ _____ _____    ______ ____
ROOT
ATOM      1  C   UNL     1       5.020   4.707  16.888  0.00  0.00    +0.000 A 
ATOM      2  C   UNL     1       5.228   4.013  15.714  0.00  0.00    +0.000 A 
ATOM      3  C   UNL     1       6.297   4.406  14.944  0.00  0.00    +0.000 A 
ATOM      4  N   UNL     1       7.121   5.393  15.302  0.00  0.00    +0.000 NA
ATOM      5  C   UNL     1       6.849   6.014  16.449  0.00  0.00    +0.000 A 
ATOM      6  N   UNL     1       7.705   7.017  16.861  0.00  0.00    +0.000 N 
ATOM      7  N   UNL     1       5.842   5.710  17.268  0.00  0.00    +0.000 NA
ATOM      8  H   UNL     1       8.617   6.865  16.454  0.00  0.00    +0.000 HD
ATOM      9  H   UNL     1       7.656   7.098  17.866  0.00  0.00    +0.000 HD
ENDROOT
BRANCH   1  13
ATOM     10  C   UNL     1       1.807   3.813  19.618  0.00  0.00    +0.000 A 
ATOM     11  C   UNL     1       3.041   4.240  20.097  0.00  0.00    +0.000 A 
ATOM     12  C   UNL     1       4.077   4.545  19.206  0.00  0.00    +0.000 A 
ATOM     13  C   UNL     1       3.915   4.402  17.817  0.00  0.00    +0.000 A 
ATOM     14  C   UNL     1       2.661   3.961  17.358  0.00  0.00    +0.000 A 
ATOM     15  C   UNL     1       1.622   3.666  18.248  0.00  0.00    +0.000 A 
BRANCH  10  17
ATOM     16  C   UNL     1       1.334   2.745  21.668  0.00  0.00    +0.000 C 
ATOM     17  O   UNL     1       0.870   3.526  20.573  0.00  0.00    +0.000 OA
ENDBRANCH  10  17
ENDBRANCH   1  13
BRANCH   3  18
ATOM     18  N   UNL     1       6.596   3.727  13.762  0.00  0.00    +0.000 N 
ATOM     19  H   UNL     1       6.774   2.742  13.920  0.00  0.00    +0.000 HD
ATOM     20  H   UNL     1       5.819   3.875  13.120  0.00  0.00    +0.000 HD
ENDBRANCH   3  18
TORSDOF 3
ENDMDL
MODEL 2
REMARK VINA RESULT:      -7.0      0.756      2.044
REMARK  Name = 
REMARK  4 active torsions:
REMARK  status: ('A' for Active; 'I' for Inactive)
REMARK    1  A    between atoms: C_1  and  O_2
REMARK    2  A    between atoms: O_2  and  C_3
REMARK    3  A    between atoms: C_6  and  C_7
REMARK    4  A    between atoms: C_9  and  N_10
REMARK                            x       y       z     vdW  Elec       q    Type
REMARK                         _______ _______ _______ _____ _____    ______ ____
ROOT
ATOM      1  C   UNL     1       5.104   4.643  17.039  0.00  0.00    +0.000 A 
ATOM      2  C   UNL     1       5.905   5.717  17.367  0.00  0.00    +0.000 A 
ATOM      3  C   UNL     1       6.910   6.032  16.483  0.00  0.00    +0.000 A 
ATOM      4  N   UNL     1       7.109   5.362  15.346  0.00  0.00    +0.000 NA
ATOM      5  C   UNL     1       6.292   4.336  15.105  0.00  0.00    +0.000 A 
ATOM      6  N   UNL     1       6.453   3.646  13.920  0.00  0.00    +0.000 N 
ATOM      7  N   UNL     1       5.289   3.951  15.893  0.00  0.00    +0.000 NA
ATOM      8  H   UNL     1       6.884   4.252  13.236  0.00  0.00    +0.000 HD
ATOM      9  H   UNL     1       5.574   3.218  13.666  0.00  0.00    +0.000 HD
ENDROOT
BRANCH   1  13
ATOM     10  C   UNL     1       1.859   3.297  19.536  0.00  0.00    +0.000 A 
ATOM     11  C   UNL     1       3.132   3.471  20.067  0.00  0.00    +0.000 A 
ATOM     12  C   UNL     1       4.180   3.924  19.256  0.00  0.00    +0.000 A 
ATOM     13  C   UNL     1       3.987   4.185  17.888  0.00  0.00    +0.000 A 
ATOM     14  C   UNL     1       2.694   3.994  17.373  0.00  0.00    +0.000 A 
ATOM     15  C   UNL     1       1.644   3.552  18.186  0.00  0.00    +0.000 A 
BRANCH  10  17
ATOM     16  C   UNL     1       1.365   2.620  21.741  0.00  0.00    +0.000 C 
ATOM     17  O   UNL     1       0.912   2.837  20.409  0.00  0.00    +0.000 OA
ENDBRANCH  10  17
ENDBRANCH   1  13
BRANCH   3  18
ATOM     18  N   UNL     1       7.737   7.129  16.725  0.00  0.00    +0.000 N 
ATOM     19  H   UNL     1       8.221   7.057  17.612  0.00  0.00    +0.000 HD
ATOM     20  H   UNL     1       8.386   7.201  15.943  0.00  0.00    +0.000 HD
ENDBRANCH   3  18
TORSDOF 3
ENDMDL
MODEL 3
REMARK VINA RESULT:      -7.0      0.515      1.294
REMARK  Name = 
REMARK  4 active torsions:
REMARK  status: ('A' for Active; 'I' for Inactive)
REMARK    1  A    between atoms: C_1  and  O_2
REMARK    2  A    between atoms: O_2  and  C_3
REMARK    3  A    between atoms: C_6  and  C_7
REMARK    4  A    between atoms: C_9  and  N_10
REMARK                            x       y       z     vdW  Elec       q    Type
REMARK                         _______ _______ _______ _____ _____    ______ ____
ROOT
ATOM      1  C   UNL     1       5.164   4.387  16.739  0.00  0.00    +0.000 A 
ATOM      2  C   UNL     1       5.356   3.786  15.511  0.00  0.00    +0.000 A 
ATOM      3  C   UNL     1       6.356   4.302  14.720  0.00  0.00    +0.000 A 
ATOM      4  N   UNL     1       7.130   5.319  15.105  0.00  0.00    +0.000 NA
ATOM      5  C   UNL     1       6.876   5.844  16.303  0.00  0.00    +0.000 A 
ATOM      6  N   UNL     1       7.684   6.875  16.741  0.00  0.00    +0.000 N 
ATOM      7  N   UNL     1       5.936   5.418  17.146  0.00  0.00    +0.000 NA
ATOM      8  H   UNL     1       8.582   6.814  16.283  0.00  0.00    +0.000 HD
ATOM      9  H   UNL     1       7.683   6.888  17.751  0.00  0.00    +0.000 HD
ENDROOT
BRANCH   1  13
ATOM     10  C   UNL     1       2.128   3.104  19.517  0.00  0.00    +0.000 A 
ATOM     11  C   UNL     1       1.829   3.261  18.167  0.00  0.00    +0.000 A 
ATOM     12  C   UNL     1       2.822   3.662  17.265  0.00  0.00    +0.000 A 
ATOM     13  C   UNL     1       4.131   3.946  17.695  0.00  0.00    +0.000 A 
ATOM     14  C   UNL     1       4.406   3.788  19.064  0.00  0.00    +0.000 A 
ATOM     15  C   UNL     1       3.417   3.377  19.964  0.00  0.00    +0.000 A 
BRANCH  10  17
ATOM     16  C   UNL     1       1.383   2.617  21.701  0.00  0.00    +0.000 C 
ATOM     17  O   UNL     1       1.084   2.725  20.314  0.00  0.00    +0.000 OA
ENDBRANCH  10  17
ENDBRANCH   1  13
BRANCH   3  18
ATOM     18  N   UNL     1       6.637   3.723  13.482  0.00  0.00    +0.000 N 
ATOM     19  H   UNL     1       6.033   4.073  12.748  0.00  0.00    +0.000 HD
ATOM     20  H   UNL     1       7.621   3.897  13.280  0.00  0.00    +0.000 HD
ENDBRANCH   3  18
TORSDOF 3
ENDMDL
MODEL 4
REMARK VINA RESULT:      -6.9      0.887      2.335
REMARK  Name = 
REMARK  4 active torsions:
REMARK  status: ('A' for Active; 'I' for Inactive)
REMARK    1  A    between atoms: C_1  and  O_2
REMARK    2  A    between atoms: O_2  and  C_3
REMARK    3  A    between atoms: C_6  and  C_7
REMARK    4  A    between atoms: C_9  and  N_10
REMARK                            x       y       z     vdW  Elec       q    Type
REMARK                         _______ _______ _______ _____ _____    ______ ____
ROOT
ATOM      1  C   UNL     1       5.214   4.612  17.080  0.00  0.00    +0.000 A 
ATOM      2  C   UNL     1       5.999   5.704  17.388  0.00  0.00    +0.000 A 
ATOM      3  C   UNL     1       6.963   6.053  16.472  0.00  0.00    +0.000 A 
ATOM      4  N   UNL     1       7.137   5.396  15.323  0.00  0.00    +0.000 NA
ATOM      5  C   UNL     1       6.339   4.351  15.102  0.00  0.00    +0.000 A 
ATOM      6  N   UNL     1       6.475   3.675  13.906  0.00  0.00    +0.000 N 
ATOM      7  N   UNL     1       5.375   3.934  15.923  0.00  0.00    +0.000 NA
ATOM      8  H   UNL     1       6.866   4.297  13.213  0.00  0.00    +0.000 HD
ATOM      9  H   UNL     1       5.599   3.226  13.681  0.00  0.00    +0.000 HD
ENDROOT
BRANCH   1  13
ATOM     10  C   UNL     1       2.064   3.189  19.656  0.00  0.00    +0.000 A 
ATOM     11  C   UNL     1       1.770   3.987  18.555  0.00  0.00    +0.000 A 
ATOM     12  C   UNL     1       2.794   4.434  17.712  0.00  0.00    +0.000 A 
ATOM     13  C   UNL     1       4.141   4.119  17.965  0.00  0.00    +0.000 A 
ATOM     14  C   UNL     1       4.414   3.318  19.086  0.00  0.00    +0.000 A 
ATOM     15  C   UNL     1       3.389   2.862  19.923  0.00  0.00    +0.000 A 
BRANCH  10  17
ATOM     16  C   UNL     1       1.279   2.588  21.797  0.00  0.00    +0.000 C 
ATOM     17  O   UNL     1       0.993   2.820  20.422  0.00  0.00    +0.000 OA
ENDBRANCH  10  17
ENDBRANCH   1  13
BRANCH   3  18
ATOM     18  N   UNL     1       7.769   7.169  16.694  0.00  0.00    +0.000 N 
ATOM     19  H   UNL     1       7.370   8.015  16.306  0.00  0.00    +0.000 HD
ATOM     20  H   UNL     1       7.917   7.244  17.699  0.00  0.00    +0.000 HD
ENDBRANCH   3  18
TORSDOF 3
ENDMDL
MODEL 5
REMARK VINA RESULT:      -6.7      3.764      6.132
REMARK  Name = 
REMARK  4 active torsions:
REMARK  status: ('A' for Active; 'I' for Inactive)
REMARK    1  A    between atoms: C_1  and  O_2
REMARK    2  A    between atoms: O_2  and  C_3
REMARK    3  A    between atoms: C_6  and  C_7
REMARK    4  A    between atoms: C_9  and  N_10
REMARK                            x       y       z     vdW  Elec       q    Type
REMARK                         _______ _______ _______ _____ _____    ______ ____
ROOT
ATOM      1  C   UNL     1       2.954   5.215  18.640  0.00  0.00    +0.000 A 
ATOM      2  C   UNL     1       2.223   4.088  18.953  0.00  0.00    +0.000 A 
ATOM      3  C   UNL     1       1.371   4.180  20.028  0.00  0.00    +0.000 A 
ATOM      4  N   UNL     1       1.224   5.301  20.739  0.00  0.00    +0.000 NA
ATOM      5  C   UNL     1       1.970   6.344  20.374  0.00  0.00    +0.000 A 
ATOM      6  N   UNL     1       1.814   7.526  21.070  0.00  0.00    +0.000 N 
ATOM      7  N   UNL     1       2.821   6.358  19.348  0.00  0.00    +0.000 NA
ATOM      8  H   UNL     1       0.891   7.553  21.479  0.00  0.00    +0.000 HD
ATOM      9  H   UNL     1       2.075   8.297  20.473  0.00  0.00    +0.000 HD
ENDROOT
BRANCH   1  13
ATOM     10  C   UNL     1       5.746   5.345  15.359  0.00  0.00    +0.000 A 
ATOM     11  C   UNL     1       5.216   4.132  15.788  0.00  0.00    +0.000 A 
ATOM     12  C   UNL     1       4.297   4.096  16.843  0.00  0.00    +0.000 A 
ATOM     13  C   UNL     1       3.908   5.268  17.516  0.00  0.00    +0.000 A 
ATOM     14  C   UNL     1       4.463   6.479  17.070  0.00  0.00    +0.000 A 
ATOM     15  C   UNL     1       5.374   6.517  16.008  0.00  0.00    +0.000 A 
BRANCH  10  17
ATOM     16  C   UNL     1       6.558   4.093  13.532  0.00  0.00    +0.000 C 
ATOM     17  O   UNL     1       6.646   5.267  14.332  0.00  0.00    +0.000 OA
ENDBRANCH  10  17
ENDBRANCH   1  13
BRANCH   3  18
ATOM     18  N   UNL     1       0.569   3.095  20.382  0.00  0.00    +0.000 N 
ATOM     19  H   UNL     1       0.745   2.283  19.802  0.00  0.00    +0.000 HD
ATOM     20  H   UNL     1       0.734   2.902  21.368  0.00  0.00    +0.000 HD
ENDBRANCH   3  18
TORSDOF 3
ENDMDL
MODEL 6
REMARK VINA RESULT:      -6.7      3.819      6.162
REMARK  Name = 
REMARK  4 active torsions:
REMARK  status: ('A' for Active; 'I' for Inactive)
REMARK    1  A    between atoms: C_1  and  O_2
REMARK    2  A    between atoms: O_2  and  C_3
REMARK    3  A    between atoms: C_6  and  C_7
REMARK    4  A    between atoms: C_9  and  N_10
REMARK                            x       y       z     vdW  Elec       q    Type
REMARK                         _______ _______ _______ _____ _____    ______ ____
ROOT
ATOM      1  C   UNL     1       4.031   4.186  18.699  0.00  0.00    +0.000 A 
ATOM      2  C   UNL     1       2.829   4.530  19.283  0.00  0.00    +0.000 A 
ATOM      3  C   UNL     1       1.974   3.500  19.594  0.00  0.00    +0.000 A 
ATOM      4  N   UNL     1       2.275   2.218  19.371  0.00  0.00    +0.000 NA
ATOM      5  C   UNL     1       3.455   1.971  18.801  0.00  0.00    +0.000 A 
ATOM      6  N   UNL     1       3.808   0.653  18.590  0.00  0.00    +0.000 N 
ATOM      7  N   UNL     1       4.355   2.896  18.464  0.00  0.00    +0.000 NA
ATOM      8  H   UNL     1       3.318   0.067  19.251  0.00  0.00    +0.000 HD
ATOM      9  H   UNL     1       4.815   0.581  18.569  0.00  0.00    +0.000 HD
ENDROOT
BRANCH   1  13
ATOM     10  C   UNL     1       6.991   7.096  17.540  0.00  0.00    +0.000 A 
ATOM     11  C   UNL     1       5.723   7.114  16.969  0.00  0.00    +0.000 A 
ATOM     12  C   UNL     1       4.759   6.177  17.360  0.00  0.00    +0.000 A 
ATOM     13  C   UNL     1       5.048   5.181  18.309  0.00  0.00    +0.000 A 
ATOM     14  C   UNL     1       6.339   5.179  18.866  0.00  0.00    +0.000 A 
ATOM     15  C   UNL     1       7.299   6.122  18.483  0.00  0.00    +0.000 A 
BRANCH  10  17
ATOM     16  C   UNL     1       8.193   9.073  18.003  0.00  0.00    +0.000 C 
ATOM     17  O   UNL     1       7.861   8.044  17.076  0.00  0.00    +0.000 OA
ENDBRANCH  10  17
ENDBRANCH   1  13
BRANCH   3  18
ATOM     18  N   UNL     1       0.757   3.765  20.223  0.00  0.00    +0.000 N 
ATOM     19  H   UNL     1       0.826   3.710  21.232  0.00  0.00    +0.000 HD
ATOM     20  H   UNL     1       0.446   4.684  19.912  0.00  0.00    +0.000 HD
ENDBRANCH   3  18
TORSDOF 3
ENDMDL
MODEL 7
REMARK VINA RESULT:      -6.7      2.340      2.974
REMARK  Name = 
REMARK  4 active torsions:
REMARK  status: ('A' for Active; 'I' for Inactive)
REMARK    1  A    between atoms: C_1  and  O_2
REMARK    2  A    between atoms: O_2  and  C_3
REMARK    3  A    between atoms: C_6  and  C_7
REMARK    4  A    between atoms: C_9  and  N_10
REMARK                            x       y       z     vdW  Elec       q    Type
REMARK                         _______ _______ _______ _____ _____    ______ ____
ROOT
ATOM      1  C   UNL     1       5.812   5.621  18.365  0.00  0.00    +0.000 A 
ATOM      2  C   UNL     1       6.172   6.712  17.599  0.00  0.00    +0.000 A 
ATOM      3  C   UNL     1       7.410   7.259  17.844  0.00  0.00    +0.000 A 
ATOM      4  N   UNL     1       8.250   6.766  18.757  0.00  0.00    +0.000 NA
ATOM      5  C   UNL     1       7.825   5.713  19.455  0.00  0.00    +0.000 A 
ATOM      6  N   UNL     1       8.687   5.161  20.382  0.00  0.00    +0.000 N 
ATOM      7  N   UNL     1       6.648   5.107  19.294  0.00  0.00    +0.000 NA
ATOM      8  H   UNL     1       9.639   5.370  20.119  0.00  0.00    +0.000 HD
ATOM      9  H   UNL     1       8.449   4.188  20.514  0.00  0.00    +0.000 HD
ENDROOT
BRANCH   1  13
ATOM     10  C   UNL     1       2.025   3.603  17.958  0.00  0.00    +0.000 A 
ATOM     11  C   UNL     1       2.238   4.503  18.997  0.00  0.00    +0.000 A 
ATOM     12  C   UNL     1       3.464   5.169  19.117  0.00  0.00    +0.000 A 
ATOM     13  C   UNL     1       4.518   4.929  18.218  0.00  0.00    +0.000 A 
ATOM     14  C   UNL     1       4.282   4.010  17.181  0.00  0.00    +0.000 A 
ATOM     15  C   UNL     1       3.053   3.352  17.055  0.00  0.00    +0.000 A 
BRANCH  10  17
ATOM     16  C   UNL     1       0.486   2.226  19.097  0.00  0.00    +0.000 C 
ATOM     17  O   UNL     1       0.800   2.997  17.942  0.00  0.00    +0.000 OA
ENDBRANCH  10  17
ENDBRANCH   1  13
BRANCH   3  18
ATOM     18  N   UNL     1       7.861   8.339  17.085  0.00  0.00    +0.000 N 
ATOM     19  H   UNL     1       7.642   8.234  16.101  0.00  0.00    +0.000 HD
ATOM     20  H   UNL     1       7.448   9.183  17.478  0.00  0.00    +0.000 HD
ENDBRANCH   3  18
TORSDOF 3
ENDMDL
MODEL 8
REMARK VINA RESULT:      -6.6      3.739      6.102
REMARK  Name = 
REMARK  4 active torsions:
REMARK  status: ('A' for Active; 'I' for Inactive)
REMARK    1  A    between atoms: C_1  and  O_2
REMARK    2  A    between atoms: O_2  and  C_3
REMARK    3  A    between atoms: C_6  and  C_7
REMARK    4  A    between atoms: C_9  and  N_10
REMARK                            x       y       z     vdW  Elec       q    Type
REMARK                         _______ _______ _______ _____ _____    ______ ____
ROOT
ATOM      1  C   UNL     1       2.991   5.144  18.637  0.00  0.00    +0.000 A 
ATOM      2  C   UNL     1       2.223   4.043  18.954  0.00  0.00    +0.000 A 
ATOM      3  C   UNL     1       1.350   4.179  20.008  0.00  0.00    +0.000 A 
ATOM      4  N   UNL     1       1.218   5.317  20.693  0.00  0.00    +0.000 NA
ATOM      5  C   UNL     1       1.999   6.333  20.325  0.00  0.00    +0.000 A 
ATOM      6  N   UNL     1       1.858   7.532  20.994  0.00  0.00    +0.000 N 
ATOM      7  N   UNL     1       2.873   6.305  19.318  0.00  0.00    +0.000 NA
ATOM      8  H   UNL     1       0.927   7.592  21.381  0.00  0.00    +0.000 HD
ATOM      9  H   UNL     1       2.153   8.284  20.388  0.00  0.00    +0.000 HD
ENDROOT
BRANCH   1  13
ATOM     10  C   UNL     1       5.848   5.182  15.410  0.00  0.00    +0.000 A 
ATOM     11  C   UNL     1       5.382   6.374  15.954  0.00  0.00    +0.000 A 
ATOM     12  C   UNL     1       4.466   6.358  17.013  0.00  0.00    +0.000 A 
ATOM     13  C   UNL     1       3.971   5.149  17.534  0.00  0.00    +0.000 A 
ATOM     14  C   UNL     1       4.451   3.958  16.963  0.00  0.00    +0.000 A 
ATOM     15  C   UNL     1       5.374   3.974  15.912  0.00  0.00    +0.000 A 
BRANCH  10  17
ATOM     16  C   UNL     1       6.694   4.259  13.410  0.00  0.00    +0.000 C 
ATOM     17  O   UNL     1       6.727   5.310  14.370  0.00  0.00    +0.000 OA
ENDBRANCH  10  17
ENDBRANCH   1  13
BRANCH   3  18
ATOM     18  N   UNL     1       0.512   3.123  20.364  0.00  0.00    +0.000 N 
ATOM     19  H   UNL     1       0.550   2.361  19.697  0.00  0.00    +0.000 HD
ATOM     20  H   UNL     1       0.779   2.823  21.300  0.00  0.00    +0.000 HD
ENDBRANCH   3  18
TORSDOF 3
ENDMDL
MODEL 9
REMARK VINA RESULT:      -6.6      2.024      3.030
REMARK  Name = 
REMARK  4 active torsions:
REMARK  status: ('A' for Active; 'I' for Inactive)
REMARK    1  A    between atoms: C_1  and  O_2
REMARK    2  A    between atoms: O_2  and  C_3
REMARK    3  A    between atoms: C_6  and  C_7
REMARK    4  A    between atoms: C_9  and  N_10
REMARK                            x       y       z     vdW  Elec       q    Type
REMARK                         _______ _______ _______ _____ _____    ______ ____
ROOT
ATOM      1  C   UNL     1       5.892   4.750  14.637  0.00  0.00    +0.000 A 
ATOM      2  C   UNL     1       5.509   3.717  13.806  0.00  0.00    +0.000 A 
ATOM      3  C   UNL     1       6.282   3.502  12.690  0.00  0.00    +0.000 A 
ATOM      4  N   UNL     1       7.367   4.227  12.411  0.00  0.00    +0.000 NA
ATOM      5  C   UNL     1       7.667   5.208  13.263  0.00  0.00    +0.000 A 
ATOM      6  N   UNL     1       8.804   5.952  13.018  0.00  0.00    +0.000 N 
ATOM      7  N   UNL     1       6.987   5.497  14.373  0.00  0.00    +0.000 NA
ATOM      8  H   UNL     1       9.452   5.402  12.473  0.00  0.00    +0.000 HD
ATOM      9  H   UNL     1       9.142   6.333  13.890  0.00  0.00    +0.000 HD
ENDROOT
BRANCH   1  13
ATOM     10  C   UNL     1       3.771   5.800  18.240  0.00  0.00    +0.000 A 
ATOM     11  C   UNL     1       4.387   6.782  17.471  0.00  0.00    +0.000 A 
ATOM     12  C   UNL     1       5.061   6.439  16.293  0.00  0.00    +0.000 A 
ATOM     13  C   UNL     1       5.162   5.102  15.870  0.00  0.00    +0.000 A 
ATOM     14  C   UNL     1       4.539   4.127  16.667  0.00  0.00    +0.000 A 
ATOM     15  C   UNL     1       3.856   4.470  17.839  0.00  0.00    +0.000 A 
BRANCH  10  17
ATOM     16  C   UNL     1       2.532   5.229  20.164  0.00  0.00    +0.000 C 
ATOM     17  O   UNL     1       3.154   6.240  19.378  0.00  0.00    +0.000 OA
ENDBRANCH  10  17
ENDBRANCH   1  13
BRANCH   3  18
ATOM     18  N   UNL     1       5.981   2.451  11.822  0.00  0.00    +0.000 N 
ATOM     19  H   UNL     1       6.811   1.955  11.518  0.00  0.00    +0.000 HD
ATOM     20  H   UNL     1       5.325   1.837  12.302  0.00  0.00    +0.000 HD
ENDBRANCH   3  18
TORSDOF 3
ENDMDL
