MODEL 1
REMARK VINA RESULT:      -7.9      0.000      0.000
REMARK  Name = 
REMARK  6 active torsions:
REMARK  status: ('A' for Active; 'I' for Inactive)
REMARK    1  A    between atoms: C_1  and  O_2
REMARK    2  A    between atoms: O_2  and  C_3
REMARK    3  A    between atoms: N_10  and  O_11
REMARK    4  A    between atoms: O_11  and  C_12
REMARK    5  A    between atoms: C_12  and  C_13
REMARK    6  A    between atoms: C_21  and  N_22
REMARK                            x       y       z     vdW  Elec       q    Type
REMARK                         _______ _______ _______ _____ _____    ______ ____
ROOT
ATOM      1  C   UNL     1      -3.652  10.653  16.097  0.00  0.00    +0.000 A 
ATOM      2  C   UNL     1      -2.419  10.075  16.387  0.00  0.00    +0.000 A 
ATOM      3  C   UNL     1      -1.814  10.288  17.623  0.00  0.00    +0.000 A 
ATOM      4  C   UNL     1      -2.334  11.203  18.518  0.00  0.00    +0.000 A 
ATOM      5  C   UNL     1      -3.610  11.711  18.261  0.00  0.00    +0.000 A 
ATOM      6  C   UNL     1      -4.279  11.446  17.063  0.00  0.00    +0.000 A 
ATOM      7  C   UNL     1      -3.992  12.528  19.447  0.00  0.00    +0.000 C 
ATOM      8  N   UNL     1      -5.092  13.177  19.682  0.00  0.00    +0.000 NA
ATOM      9  C   UNL     1      -2.811  12.515  20.378  0.00  0.00    +0.000 A 
ATOM     10  C   UNL     1      -1.784  11.759  19.752  0.00  0.00    +0.000 A 
ATOM     11  C   UNL     1      -0.531  11.709  20.359  0.00  0.00    +0.000 A 
ATOM     12  N   UNL     1      -0.354  12.363  21.538  0.00  0.00    +0.000 NA
ATOM     13  C   UNL     1      -1.345  13.036  22.142  0.00  0.00    +0.000 A 
ATOM     14  C   UNL     1      -1.031  13.683  23.330  0.00  0.00    +0.000 A 
ATOM     15  C   UNL     1      -1.990  14.382  24.066  0.00  0.00    +0.000 A 
ATOM     16  C   UNL     1      -3.302  14.412  23.619  0.00  0.00    +0.000 A 
ATOM     17  C   UNL     1      -3.631  13.797  22.406  0.00  0.00    +0.000 A 
ATOM     18  C   UNL     1      -2.645  13.128  21.632  0.00  0.00    +0.000 A 
ENDROOT
BRANCH  11  19
ATOM     19  N   UNL     1       0.608  11.094  19.897  0.00  0.00    +0.000 N 
ATOM     20  C   UNL     1       0.962   9.686  20.043  0.00  0.00    +0.000 C 
ATOM     21  C   UNL     1       1.508   9.056  18.748  0.00  0.00    +0.000 C 
ATOM     22  N   UNL     1       2.613   9.832  18.165  0.00  0.00    +0.000 NA
ATOM     23  C   UNL     1       2.136  11.209  17.927  0.00  0.00    +0.000 C 
ATOM     24  C   UNL     1       1.620  11.913  19.204  0.00  0.00    +0.000 C 
ATOM     25  H   UNL     1       2.884   9.411  17.278  0.00  0.00    +0.000 HD
ENDBRANCH  11  19
BRANCH   1  27
ATOM     26  C   UNL     1      -3.557   9.979  13.826  0.00  0.00    +0.000 C 
ATOM     27  O   UNL     1      -4.329  10.474  14.920  0.00  0.00    +0.000 OA
ENDBRANCH   1  27
BRANCH   8  28
ATOM     28  O   UNL     1      -6.066  12.903  18.708  0.00  0.00    +0.000 OA
BRANCH  28  29
ATOM     29  C   UNL     1      -7.336  12.637  19.301  0.00  0.00    +0.000 C 
BRANCH  29  30
ATOM     30  C   UNL     1      -7.339  11.196  19.763  0.00  0.00    +0.000 A 
ATOM     31  C   UNL     1      -6.868  10.184  18.914  0.00  0.00    +0.000 A 
ATOM     32  C   UNL     1      -6.907   8.846  19.308  0.00  0.00    +0.000 A 
ATOM     33  C   UNL     1      -7.434   8.501  20.553  0.00  0.00    +0.000 A 
ATOM     34  C   UNL     1      -7.917   9.494  21.402  0.00  0.00    +0.000 A 
ATOM     35  C   UNL     1      -7.869  10.838  21.011  0.00  0.00    +0.000 A 
ENDBRANCH  29  30
ENDBRANCH  28  29
ENDBRANCH   8  28
TORSDOF 5
ENDMDL
MODEL 2
REMARK VINA RESULT:      -7.3      4.869      8.281
REMARK  Name = 
REMARK  6 active torsions:
REMARK  status: ('A' for Active; 'I' for Inactive)
REMARK    1  A    between atoms: C_1  and  O_2
REMARK    2  A    between atoms: O_2  and  C_3
REMARK    3  A    between atoms: N_10  and  O_11
REMARK    4  A    between atoms: O_11  and  C_12
REMARK    5  A    between atoms: C_12  and  C_13
REMARK    6  A    between atoms: C_21  and  N_22
REMARK                            x       y       z     vdW  Elec       q    Type
REMARK                         _______ _______ _______ _____ _____    ______ ____
ROOT
ATOM      1  C   UNL     1       1.762  10.502  18.396  0.00  0.00    +0.000 A 
ATOM      2  C   UNL     1       2.602  10.000  17.406  0.00  0.00    +0.000 A 
ATOM      3  C   UNL     1       2.958   8.654  17.400  0.00  0.00    +0.000 A 
ATOM      4  C   UNL     1       2.629   7.829  18.459  0.00  0.00    +0.000 A 
ATOM      5  C   UNL     1       1.718   8.313  19.401  0.00  0.00    +0.000 A 
ATOM      6  C   UNL     1       1.276   9.638  19.383  0.00  0.00    +0.000 A 
ATOM      7  C   UNL     1       1.414   7.181  20.322  0.00  0.00    +0.000 C 
ATOM      8  N   UNL     1       0.606   7.139  21.338  0.00  0.00    +0.000 NA
ATOM      9  C   UNL     1       2.275   6.027  19.886  0.00  0.00    +0.000 A 
ATOM     10  C   UNL     1       3.062   6.474  18.791  0.00  0.00    +0.000 A 
ATOM     11  C   UNL     1       4.045   5.624  18.289  0.00  0.00    +0.000 A 
ATOM     12  N   UNL     1       4.188   4.394  18.850  0.00  0.00    +0.000 NA
ATOM     13  C   UNL     1       3.409   3.967  19.854  0.00  0.00    +0.000 A 
ATOM     14  C   UNL     1       3.672   2.699  20.358  0.00  0.00    +0.000 A 
ATOM     15  C   UNL     1       2.901   2.136  21.377  0.00  0.00    +0.000 A 
ATOM     16  C   UNL     1       1.823   2.844  21.885  0.00  0.00    +0.000 A 
ATOM     17  C   UNL     1       1.563   4.135  21.416  0.00  0.00    +0.000 A 
ATOM     18  C   UNL     1       2.377   4.730  20.415  0.00  0.00    +0.000 A 
ENDROOT
BRANCH  11  19
ATOM     19  N   UNL     1       4.949   5.878  17.285  0.00  0.00    +0.000 N 
ATOM     20  C   UNL     1       5.980   6.910  17.277  0.00  0.00    +0.000 C 
ATOM     21  C   UNL     1       7.346   6.404  16.778  0.00  0.00    +0.000 C 
ATOM     22  N   UNL     1       7.256   5.723  15.477  0.00  0.00    +0.000 NA
ATOM     23  C   UNL     1       6.291   4.613  15.603  0.00  0.00    +0.000 C 
ATOM     24  C   UNL     1       4.882   5.066  16.054  0.00  0.00    +0.000 C 
ATOM     25  H   UNL     1       8.170   5.349  15.232  0.00  0.00    +0.000 HD
ENDBRANCH  11  19
BRANCH   1  27
ATOM     26  C   UNL     1       2.338  12.796  18.222  0.00  0.00    +0.000 C 
ATOM     27  O   UNL     1       1.340  11.804  18.462  0.00  0.00    +0.000 OA
ENDBRANCH   1  27
BRANCH   8  28
ATOM     28  O   UNL     1      -0.163   8.310  21.430  0.00  0.00    +0.000 OA
BRANCH  28  29
ATOM     29  C   UNL     1       0.029   8.962  22.684  0.00  0.00    +0.000 C 
BRANCH  29  30
ATOM     30  C   UNL     1      -0.472  10.384  22.549  0.00  0.00    +0.000 A 
ATOM     31  C   UNL     1       0.240  11.310  21.772  0.00  0.00    +0.000 A 
ATOM     32  C   UNL     1      -0.184  12.635  21.674  0.00  0.00    +0.000 A 
ATOM     33  C   UNL     1      -1.320  13.056  22.367  0.00  0.00    +0.000 A 
ATOM     34  C   UNL     1      -2.029  12.151  23.153  0.00  0.00    +0.000 A 
ATOM     35  C   UNL     1      -1.609  10.818  23.243  0.00  0.00    +0.000 A 
ENDBRANCH  29  30
ENDBRANCH  28  29
ENDBRANCH   8  28
TORSDOF 5
ENDMDL
MODEL 3
REMARK VINA RESULT:      -7.2      0.976      1.506
REMARK  Name = 
REMARK  6 active torsions:
REMARK  status: ('A' for Active; 'I' for Inactive)
REMARK    1  A    between atoms: C_1  and  O_2
REMARK    2  A    between atoms: O_2  and  C_3
REMARK    3  A    between atoms: N_10  and  O_11
REMARK    4  A    between atoms: O_11  and  C_12
REMARK    5  A    between atoms: C_12  and  C_13
REMARK    6  A    between atoms: C_21  and  N_22
REMARK                            x       y       z     vdW  Elec       q    Type
REMARK                         _______ _______ _______ _____ _____    ______ ____
ROOT
ATOM      1  C   UNL     1      -3.461  10.247  15.591  0.00  0.00    +0.000 A 
ATOM      2  C   UNL     1      -2.280   9.651  16.023  0.00  0.00    +0.000 A 
ATOM      3  C   UNL     1      -1.810   9.870  17.315  0.00  0.00    +0.000 A 
ATOM      4  C   UNL     1      -2.407  10.809  18.135  0.00  0.00    +0.000 A 
ATOM      5  C   UNL     1      -3.637  11.336  17.732  0.00  0.00    +0.000 A 
ATOM      6  C   UNL     1      -4.175  11.066  16.472  0.00  0.00    +0.000 A 
ATOM      7  C   UNL     1      -4.131  12.178  18.859  0.00  0.00    +0.000 C 
ATOM      8  N   UNL     1      -5.237  12.850  18.963  0.00  0.00    +0.000 NA
ATOM      9  C   UNL     1      -3.059  12.157  19.915  0.00  0.00    +0.000 A 
ATOM     10  C   UNL     1      -1.985  11.372  19.415  0.00  0.00    +0.000 A 
ATOM     11  C   UNL     1      -0.808  11.308  20.158  0.00  0.00    +0.000 A 
ATOM     12  N   UNL     1      -0.749  11.976  21.340  0.00  0.00    +0.000 NA
ATOM     13  C   UNL     1      -1.786  12.676  21.823  0.00  0.00    +0.000 A 
ATOM     14  C   UNL     1      -1.592  13.335  23.031  0.00  0.00    +0.000 A 
ATOM     15  C   UNL     1      -2.612  14.062  23.647  0.00  0.00    +0.000 A 
ATOM     16  C   UNL     1      -3.865  14.110  23.057  0.00  0.00    +0.000 A 
ATOM     17  C   UNL     1      -4.072  13.483  21.824  0.00  0.00    +0.000 A 
ATOM     18  C   UNL     1      -3.020  12.785  21.171  0.00  0.00    +0.000 A 
ENDROOT
BRANCH  11  19
ATOM     19  N   UNL     1       0.362  10.665  19.832  0.00  0.00    +0.000 N 
ATOM     20  C   UNL     1       0.866   9.421  20.405  0.00  0.00    +0.000 C 
ATOM     21  C   UNL     1       1.405   8.437  19.349  0.00  0.00    +0.000 C 
ATOM     22  N   UNL     1       2.393   9.056  18.453  0.00  0.00    +0.000 NA
ATOM     23  C   UNL     1       1.766  10.231  17.815  0.00  0.00    +0.000 C 
ATOM     24  C   UNL     1       1.248  11.281  18.826  0.00  0.00    +0.000 C 
ATOM     25  H   UNL     1       2.659   8.385  17.736  0.00  0.00    +0.000 HD
ENDBRANCH  11  19
BRANCH   1  27
ATOM     26  C   UNL     1      -3.097   9.691  13.315  0.00  0.00    +0.000 C 
ATOM     27  O   UNL     1      -4.008  10.063  14.348  0.00  0.00    +0.000 OA
ENDBRANCH   1  27
BRANCH   8  28
ATOM     28  O   UNL     1      -6.102  12.580  17.891  0.00  0.00    +0.000 OA
BRANCH  28  29
ATOM     29  C   UNL     1      -7.463  12.815  18.249  0.00  0.00    +0.000 C 
BRANCH  29  30
ATOM     30  C   UNL     1      -7.623  12.476  19.715  0.00  0.00    +0.000 A 
ATOM     31  C   UNL     1      -7.812  13.498  20.657  0.00  0.00    +0.000 A 
ATOM     32  C   UNL     1      -7.915  13.205  22.017  0.00  0.00    +0.000 A 
ATOM     33  C   UNL     1      -7.815  11.883  22.455  0.00  0.00    +0.000 A 
ATOM     34  C   UNL     1      -7.615  10.860  21.532  0.00  0.00    +0.000 A 
ATOM     35  C   UNL     1      -7.521  11.153  20.166  0.00  0.00    +0.000 A 
ENDBRANCH  29  30
ENDBRANCH  28  29
ENDBRANCH   8  28
TORSDOF 5
ENDMDL
MODEL 4
REMARK VINA RESULT:      -7.2      1.098      1.800
REMARK  Name = 
REMARK  6 active torsions:
REMARK  status: ('A' for Active; 'I' for Inactive)
REMARK    1  A    between atoms: C_1  and  O_2
REMARK    2  A    between atoms: O_2  and  C_3
REMARK    3  A    between atoms: N_10  and  O_11
REMARK    4  A    between atoms: O_11  and  C_12
REMARK    5  A    between atoms: C_12  and  C_13
REMARK    6  A    between atoms: C_21  and  N_22
REMARK                            x       y       z     vdW  Elec       q    Type
REMARK                         _______ _______ _______ _____ _____    ______ ____
ROOT
ATOM      1  C   UNL     1      -3.586  10.468  15.986  0.00  0.00    +0.000 A 
ATOM      2  C   UNL     1      -2.371   9.884  16.335  0.00  0.00    +0.000 A 
ATOM      3  C   UNL     1      -1.814  10.111  17.591  0.00  0.00    +0.000 A 
ATOM      4  C   UNL     1      -2.361  11.046  18.449  0.00  0.00    +0.000 A 
ATOM      5  C   UNL     1      -3.621  11.560  18.133  0.00  0.00    +0.000 A 
ATOM      6  C   UNL     1      -4.244  11.281  16.914  0.00  0.00    +0.000 A 
ATOM      7  C   UNL     1      -4.043  12.399  19.291  0.00  0.00    +0.000 C 
ATOM      8  N   UNL     1      -5.146  13.061  19.471  0.00  0.00    +0.000 NA
ATOM      9  C   UNL     1      -2.900  12.391  20.269  0.00  0.00    +0.000 A 
ATOM     10  C   UNL     1      -1.855  11.616  19.696  0.00  0.00    +0.000 A 
ATOM     11  C   UNL     1      -0.629  11.566  20.354  0.00  0.00    +0.000 A 
ATOM     12  N   UNL     1      -0.493  12.237  21.528  0.00  0.00    +0.000 NA
ATOM     13  C   UNL     1      -1.501  12.928  22.081  0.00  0.00    +0.000 A 
ATOM     14  C   UNL     1      -1.229  13.591  23.271  0.00  0.00    +0.000 A 
ATOM     15  C   UNL     1      -2.210  14.309  23.956  0.00  0.00    +0.000 A 
ATOM     16  C   UNL     1      -3.502  14.343  23.456  0.00  0.00    +0.000 A 
ATOM     17  C   UNL     1      -3.789  13.712  22.242  0.00  0.00    +0.000 A 
ATOM     18  C   UNL     1      -2.779  13.023  21.518  0.00  0.00    +0.000 A 
ENDROOT
BRANCH  11  19
ATOM     19  N   UNL     1       0.522  10.933  19.947  0.00  0.00    +0.000 N 
ATOM     20  C   UNL     1       0.947   9.581  20.295  0.00  0.00    +0.000 C 
ATOM     21  C   UNL     1       1.479   8.780  19.092  0.00  0.00    +0.000 C 
ATOM     22  N   UNL     1       2.526   9.500  18.352  0.00  0.00    +0.000 NA
ATOM     23  C   UNL     1       1.977  10.802  17.924  0.00  0.00    +0.000 C 
ATOM     24  C   UNL     1       1.471  11.675  19.096  0.00  0.00    +0.000 C 
ATOM     25  H   UNL     1       2.787   8.957  17.531  0.00  0.00    +0.000 HD
ENDBRANCH  11  19
BRANCH   1  27
ATOM     26  C   UNL     1      -3.377   9.914  13.690  0.00  0.00    +0.000 C 
ATOM     27  O   UNL     1      -4.217  10.276  14.786  0.00  0.00    +0.000 OA
ENDBRANCH   1  27
BRANCH   8  28
ATOM     28  O   UNL     1      -6.082  12.780  18.463  0.00  0.00    +0.000 OA
BRANCH  28  29
ATOM     29  C   UNL     1      -7.302  12.281  19.009  0.00  0.00    +0.000 C 
BRANCH  29  30
ATOM     30  C   UNL     1      -7.417  12.791  20.429  0.00  0.00    +0.000 A 
ATOM     31  C   UNL     1      -7.249  11.912  21.509  0.00  0.00    +0.000 A 
ATOM     32  C   UNL     1      -7.397  12.358  22.822  0.00  0.00    +0.000 A 
ATOM     33  C   UNL     1      -7.733  13.690  23.073  0.00  0.00    +0.000 A 
ATOM     34  C   UNL     1      -7.916  14.571  22.010  0.00  0.00    +0.000 A 
ATOM     35  C   UNL     1      -7.757  14.126  20.692  0.00  0.00    +0.000 A 
ENDBRANCH  29  30
ENDBRANCH  28  29
ENDBRANCH   8  28
TORSDOF 5
ENDMDL
MODEL 5
REMARK VINA RESULT:      -7.1      2.237      3.191
REMARK  Name = 
REMARK  6 active torsions:
REMARK  status: ('A' for Active; 'I' for Inactive)
REMARK    1  A    between atoms: C_1  and  O_2
REMARK    2  A    between atoms: O_2  and  C_3
REMARK    3  A    between atoms: N_10  and  O_11
REMARK    4  A    between atoms: O_11  and  C_12
REMARK    5  A    between atoms: C_12  and  C_13
REMARK    6  A    between atoms: C_21  and  N_22
REMARK                            x       y       z     vdW  Elec       q    Type
REMARK                         _______ _______ _______ _____ _____    ______ ____
ROOT
ATOM      1  C   UNL     1      -3.442  11.346  17.253  0.00  0.00    +0.000 A 
ATOM      2  C   UNL     1      -2.059  11.502  17.229  0.00  0.00    +0.000 A 
ATOM      3  C   UNL     1      -1.382  11.973  18.351  0.00  0.00    +0.000 A 
ATOM      4  C   UNL     1      -2.074  12.452  19.446  0.00  0.00    +0.000 A 
ATOM      5  C   UNL     1      -3.450  12.213  19.501  0.00  0.00    +0.000 A 
ATOM      6  C   UNL     1      -4.144  11.663  18.421  0.00  0.00    +0.000 A 
ATOM      7  C   UNL     1      -3.911  12.675  20.842  0.00  0.00    +0.000 C 
ATOM      8  N   UNL     1      -5.100  12.636  21.363  0.00  0.00    +0.000 NA
ATOM      9  C   UNL     1      -2.712  13.267  21.530  0.00  0.00    +0.000 A 
ATOM     10  C   UNL     1      -1.619  13.185  20.625  0.00  0.00    +0.000 A 
ATOM     11  C   UNL     1      -0.416  13.792  20.980  0.00  0.00    +0.000 A 
ATOM     12  N   UNL     1      -0.333  14.411  22.187  0.00  0.00    +0.000 NA
ATOM     13  C   UNL     1      -1.358  14.443  23.051  0.00  0.00    +0.000 A 
ATOM     14  C   UNL     1      -1.155  15.129  24.242  0.00  0.00    +0.000 A 
ATOM     15  C   UNL     1      -2.137  15.195  25.232  0.00  0.00    +0.000 A 
ATOM     16  C   UNL     1      -3.342  14.537  25.041  0.00  0.00    +0.000 A 
ATOM     17  C   UNL     1      -3.579  13.870  23.834  0.00  0.00    +0.000 A 
ATOM     18  C   UNL     1      -2.600  13.844  22.806  0.00  0.00    +0.000 A 
ENDROOT
BRANCH  11  19
ATOM     19  N   UNL     1       0.735  13.884  20.235  0.00  0.00    +0.000 N 
ATOM     20  C   UNL     1       0.938  14.688  19.034  0.00  0.00    +0.000 C 
ATOM     21  C   UNL     1       2.273  15.457  19.033  0.00  0.00    +0.000 C 
ATOM     22  N   UNL     1       3.428  14.586  19.300  0.00  0.00    +0.000 NA
ATOM     23  C   UNL     1       3.205  13.907  20.592  0.00  0.00    +0.000 C 
ATOM     24  C   UNL     1       1.902  13.075  20.638  0.00  0.00    +0.000 C 
ATOM     25  H   UNL     1       4.269  15.156  19.359  0.00  0.00    +0.000 HD
ENDBRANCH  11  19
BRANCH   1  27
ATOM     26  C   UNL     1      -3.445  10.482  15.045  0.00  0.00    +0.000 C 
ATOM     27  O   UNL     1      -4.182  10.864  16.207  0.00  0.00    +0.000 OA
ENDBRANCH   1  27
BRANCH   8  28
ATOM     28  O   UNL     1      -5.990  11.912  20.555  0.00  0.00    +0.000 OA
BRANCH  28  29
ATOM     29  C   UNL     1      -7.244  12.581  20.431  0.00  0.00    +0.000 C 
BRANCH  29  30
ATOM     30  C   UNL     1      -7.178  13.468  19.208  0.00  0.00    +0.000 A 
ATOM     31  C   UNL     1      -7.378  12.922  17.931  0.00  0.00    +0.000 A 
ATOM     32  C   UNL     1      -7.275  13.719  16.790  0.00  0.00    +0.000 A 
ATOM     33  C   UNL     1      -6.956  15.072  16.911  0.00  0.00    +0.000 A 
ATOM     34  C   UNL     1      -6.743  15.625  18.171  0.00  0.00    +0.000 A 
ATOM     35  C   UNL     1      -6.855  14.828  19.317  0.00  0.00    +0.000 A 
ENDBRANCH  29  30
ENDBRANCH  28  29
ENDBRANCH   8  28
TORSDOF 5
ENDMDL
MODEL 6
REMARK VINA RESULT:      -6.9      2.874      8.528
REMARK  Name = 
REMARK  6 active torsions:
REMARK  status: ('A' for Active; 'I' for Inactive)
REMARK    1  A    between atoms: C_1  and  O_2
REMARK    2  A    between atoms: O_2  and  C_3
REMARK    3  A    between atoms: N_10  and  O_11
REMARK    4  A    between atoms: O_11  and  C_12
REMARK    5  A    between atoms: C_12  and  C_13
REMARK    6  A    between atoms: C_21  and  N_22
REMARK                            x       y       z     vdW  Elec       q    Type
REMARK                         _______ _______ _______ _____ _____    ______ ____
ROOT
ATOM      1  C   UNL     1      -1.349  14.497  23.359  0.00  0.00    +0.000 A 
ATOM      2  C   UNL     1      -2.713  14.342  23.590  0.00  0.00    +0.000 A 
ATOM      3  C   UNL     1      -3.507  13.641  22.686  0.00  0.00    +0.000 A 
ATOM      4  C   UNL     1      -3.000  13.234  21.467  0.00  0.00    +0.000 A 
ATOM      5  C   UNL     1      -1.618  13.313  21.278  0.00  0.00    +0.000 A 
ATOM      6  C   UNL     1      -0.784  13.936  22.209  0.00  0.00    +0.000 A 
ATOM      7  C   UNL     1      -1.328  12.662  19.969  0.00  0.00    +0.000 C 
ATOM      8  N   UNL     1      -0.187  12.471  19.378  0.00  0.00    +0.000 NA
ATOM      9  C   UNL     1      -2.654  12.266  19.380  0.00  0.00    +0.000 A 
ATOM     10  C   UNL     1      -3.665  12.694  20.283  0.00  0.00    +0.000 A 
ATOM     11  C   UNL     1      -4.997  12.560  19.900  0.00  0.00    +0.000 A 
ATOM     12  N   UNL     1      -5.273  12.002  18.692  0.00  0.00    +0.000 NA
ATOM     13  C   UNL     1      -4.311  11.561  17.868  0.00  0.00    +0.000 A 
ATOM     14  C   UNL     1      -4.721  11.032  16.650  0.00  0.00    +0.000 A 
ATOM     15  C   UNL     1      -3.811  10.508  15.730  0.00  0.00    +0.000 A 
ATOM     16  C   UNL     1      -2.462  10.484  16.045  0.00  0.00    +0.000 A 
ATOM     17  C   UNL     1      -2.025  11.043  17.250  0.00  0.00    +0.000 A 
ATOM     18  C   UNL     1      -2.944  11.623  18.165  0.00  0.00    +0.000 A 
ENDROOT
BRANCH  11  19
ATOM     19  N   UNL     1      -6.118  12.962  20.587  0.00  0.00    +0.000 N 
ATOM     20  C   UNL     1      -7.018  12.117  21.365  0.00  0.00    +0.000 C 
ATOM     21  C   UNL     1      -7.399  12.723  22.728  0.00  0.00    +0.000 C 
ATOM     22  N   UNL     1      -7.915  14.096  22.612  0.00  0.00    +0.000 NA
ATOM     23  C   UNL     1      -6.895  14.917  21.931  0.00  0.00    +0.000 C 
ATOM     24  C   UNL     1      -6.507  14.385  20.531  0.00  0.00    +0.000 C 
ATOM     25  H   UNL     1      -8.082  14.469  23.544  0.00  0.00    +0.000 HD
ENDBRANCH  11  19
BRANCH   1  27
ATOM     26  C   UNL     1      -1.058  15.608  25.433  0.00  0.00    +0.000 C 
ATOM     27  O   UNL     1      -0.491  15.145  24.208  0.00  0.00    +0.000 OA
ENDBRANCH   1  27
BRANCH   8  28
ATOM     28  O   UNL     1       0.887  12.818  20.213  0.00  0.00    +0.000 OA
BRANCH  28  29
ATOM     29  C   UNL     1       2.121  12.828  19.497  0.00  0.00    +0.000 C 
BRANCH  29  30
ATOM     30  C   UNL     1       2.278  14.192  18.863  0.00  0.00    +0.000 A 
ATOM     31  C   UNL     1       3.365  14.452  18.015  0.00  0.00    +0.000 A 
ATOM     32  C   UNL     1       3.549  15.719  17.458  0.00  0.00    +0.000 A 
ATOM     33  C   UNL     1       2.654  16.747  17.756  0.00  0.00    +0.000 A 
ATOM     34  C   UNL     1       1.578  16.507  18.606  0.00  0.00    +0.000 A 
ATOM     35  C   UNL     1       1.387  15.233  19.157  0.00  0.00    +0.000 A 
ENDBRANCH  29  30
ENDBRANCH  28  29
ENDBRANCH   8  28
TORSDOF 5
ENDMDL
MODEL 7
REMARK VINA RESULT:      -6.8      2.464      8.010
REMARK  Name = 
REMARK  6 active torsions:
REMARK  status: ('A' for Active; 'I' for Inactive)
REMARK    1  A    between atoms: C_1  and  O_2
REMARK    2  A    between atoms: O_2  and  C_3
REMARK    3  A    between atoms: N_10  and  O_11
REMARK    4  A    between atoms: O_11  and  C_12
REMARK    5  A    between atoms: C_12  and  C_13
REMARK    6  A    between atoms: C_21  and  N_22
REMARK                            x       y       z     vdW  Elec       q    Type
REMARK                         _______ _______ _______ _____ _____    ______ ____
ROOT
ATOM      1  C   UNL     1      -1.794  13.640  22.833  0.00  0.00    +0.000 A 
ATOM      2  C   UNL     1      -3.174  13.817  22.786  0.00  0.00    +0.000 A 
ATOM      3  C   UNL     1      -3.917  13.290  21.732  0.00  0.00    +0.000 A 
ATOM      4  C   UNL     1      -3.291  12.734  20.633  0.00  0.00    +0.000 A 
ATOM      5  C   UNL     1      -1.919  12.482  20.724  0.00  0.00    +0.000 A 
ATOM      6  C   UNL     1      -1.162  12.924  21.812  0.00  0.00    +0.000 A 
ATOM      7  C   UNL     1      -1.539  11.737  19.491  0.00  0.00    +0.000 C 
ATOM      8  N   UNL     1      -0.382  11.265  19.136  0.00  0.00    +0.000 NA
ATOM      9  C   UNL     1      -2.779  11.642  18.645  0.00  0.00    +0.000 A 
ATOM     10  C   UNL     1      -3.818  12.325  19.334  0.00  0.00    +0.000 A 
ATOM     11  C   UNL     1      -5.042  12.493  18.690  0.00  0.00    +0.000 A 
ATOM     12  N   UNL     1      -5.198  11.974  17.444  0.00  0.00    +0.000 NA
ATOM     13  C   UNL     1      -4.224  11.293  16.823  0.00  0.00    +0.000 A 
ATOM     14  C   UNL     1      -4.499  10.833  15.540  0.00  0.00    +0.000 A 
ATOM     15  C   UNL     1      -3.576  10.080  14.813  0.00  0.00    +0.000 A 
ATOM     16  C   UNL     1      -2.359   9.752  15.390  0.00  0.00    +0.000 A 
ATOM     17  C   UNL     1      -2.049  10.234  16.666  0.00  0.00    +0.000 A 
ATOM     18  C   UNL     1      -2.968  11.044  17.387  0.00  0.00    +0.000 A 
ENDROOT
BRANCH  11  19
ATOM     19  N   UNL     1      -6.149  13.169  19.146  0.00  0.00    +0.000 N 
ATOM     20  C   UNL     1      -7.137  12.684  20.103  0.00  0.00    +0.000 C 
ATOM     21  C   UNL     1      -7.514  13.726  21.173  0.00  0.00    +0.000 C 
ATOM     22  N   UNL     1      -7.916  15.015  20.590  0.00  0.00    +0.000 NA
ATOM     23  C   UNL     1      -6.812  15.501  19.739  0.00  0.00    +0.000 C 
ATOM     24  C   UNL     1      -6.421  14.517  18.611  0.00  0.00    +0.000 C 
ATOM     25  H   UNL     1      -8.082  15.683  21.340  0.00  0.00    +0.000 HD
ENDBRANCH  11  19
BRANCH   1  27
ATOM     26  C   UNL     1      -1.438  15.283  24.506  0.00  0.00    +0.000 C 
ATOM     27  O   UNL     1      -0.992  14.099  23.845  0.00  0.00    +0.000 OA
ENDBRANCH   1  27
BRANCH   8  28
ATOM     28  O   UNL     1       0.557  11.379  20.173  0.00  0.00    +0.000 OA
BRANCH  28  29
ATOM     29  C   UNL     1       0.718  10.144  20.870  0.00  0.00    +0.000 C 
BRANCH  29  30
ATOM     30  C   UNL     1       1.324   9.146  19.909  0.00  0.00    +0.000 A 
ATOM     31  C   UNL     1       1.651   7.855  20.350  0.00  0.00    +0.000 A 
ATOM     32  C   UNL     1       2.253   6.937  19.487  0.00  0.00    +0.000 A 
ATOM     33  C   UNL     1       2.550   7.306  18.174  0.00  0.00    +0.000 A 
ATOM     34  C   UNL     1       2.242   8.588  17.727  0.00  0.00    +0.000 A 
ATOM     35  C   UNL     1       1.629   9.506  18.589  0.00  0.00    +0.000 A 
ENDBRANCH  29  30
ENDBRANCH  28  29
ENDBRANCH   8  28
TORSDOF 5
ENDMDL
MODEL 8
REMARK VINA RESULT:      -6.7      5.069      9.134
REMARK  Name = 
REMARK  6 active torsions:
REMARK  status: ('A' for Active; 'I' for Inactive)
REMARK    1  A    between atoms: C_1  and  O_2
REMARK    2  A    between atoms: O_2  and  C_3
REMARK    3  A    between atoms: N_10  and  O_11
REMARK    4  A    between atoms: O_11  and  C_12
REMARK    5  A    between atoms: C_12  and  C_13
REMARK    6  A    between atoms: C_21  and  N_22
REMARK                            x       y       z     vdW  Elec       q    Type
REMARK                         _______ _______ _______ _____ _____    ______ ____
ROOT
ATOM      1  C   UNL     1      -0.123   9.811  21.168  0.00  0.00    +0.000 A 
ATOM      2  C   UNL     1       0.027   8.606  21.850  0.00  0.00    +0.000 A 
ATOM      3  C   UNL     1       0.912   7.638  21.383  0.00  0.00    +0.000 A 
ATOM      4  C   UNL     1       1.529   7.775  20.155  0.00  0.00    +0.000 A 
ATOM      5  C   UNL     1       1.444   9.017  19.520  0.00  0.00    +0.000 A 
ATOM      6  C   UNL     1       0.629  10.040  20.012  0.00  0.00    +0.000 A 
ATOM      7  C   UNL     1       2.324   8.944  18.318  0.00  0.00    +0.000 C 
ATOM      8  N   UNL     1       2.588   9.857  17.434  0.00  0.00    +0.000 NA
ATOM      9  C   UNL     1       2.866   7.542  18.266  0.00  0.00    +0.000 A 
ATOM     10  C   UNL     1       2.305   6.827  19.359  0.00  0.00    +0.000 A 
ATOM     11  C   UNL     1       2.551   5.459  19.453  0.00  0.00    +0.000 A 
ATOM     12  N   UNL     1       3.337   4.874  18.512  0.00  0.00    +0.000 NA
ATOM     13  C   UNL     1       3.898   5.568  17.511  0.00  0.00    +0.000 A 
ATOM     14  C   UNL     1       4.661   4.850  16.599  0.00  0.00    +0.000 A 
ATOM     15  C   UNL     1       5.323   5.472  15.539  0.00  0.00    +0.000 A 
ATOM     16  C   UNL     1       5.244   6.849  15.402  0.00  0.00    +0.000 A 
ATOM     17  C   UNL     1       4.452   7.586  16.288  0.00  0.00    +0.000 A 
ATOM     18  C   UNL     1       3.738   6.948  17.337  0.00  0.00    +0.000 A 
ENDROOT
BRANCH  11  19
ATOM     19  N   UNL     1       2.060   4.576  20.386  0.00  0.00    +0.000 N 
ATOM     20  C   UNL     1       0.717   4.007  20.430  0.00  0.00    +0.000 C 
ATOM     21  C   UNL     1       0.705   2.493  20.715  0.00  0.00    +0.000 C 
ATOM     22  N   UNL     1       1.481   2.138  21.913  0.00  0.00    +0.000 NA
ATOM     23  C   UNL     1       2.860   2.635  21.735  0.00  0.00    +0.000 C 
ATOM     24  C   UNL     1       2.940   4.161  21.494  0.00  0.00    +0.000 C 
ATOM     25  H   UNL     1       1.498   1.125  22.011  0.00  0.00    +0.000 HD
ENDBRANCH  11  19
BRANCH   1  27
ATOM     26  C   UNL     1      -1.193  10.911  22.975  0.00  0.00    +0.000 C 
ATOM     27  O   UNL     1      -0.948  10.828  21.572  0.00  0.00    +0.000 OA
ENDBRANCH   1  27
BRANCH   8  28
ATOM     28  O   UNL     1       2.055  11.101  17.806  0.00  0.00    +0.000 OA
BRANCH  28  29
ATOM     29  C   UNL     1       3.057  12.117  17.809  0.00  0.00    +0.000 C 
BRANCH  29  30
ATOM     30  C   UNL     1       2.381  13.434  18.123  0.00  0.00    +0.000 A 
ATOM     31  C   UNL     1       3.103  14.633  18.036  0.00  0.00    +0.000 A 
ATOM     32  C   UNL     1       2.506  15.851  18.367  0.00  0.00    +0.000 A 
ATOM     33  C   UNL     1       1.181  15.882  18.804  0.00  0.00    +0.000 A 
ATOM     34  C   UNL     1       0.456  14.698  18.906  0.00  0.00    +0.000 A 
ATOM     35  C   UNL     1       1.051  13.476  18.565  0.00  0.00    +0.000 A 
ENDBRANCH  29  30
ENDBRANCH  28  29
ENDBRANCH   8  28
TORSDOF 5
ENDMDL
MODEL 9
REMARK VINA RESULT:      -6.6      4.192      7.686
REMARK  Name = 
REMARK  6 active torsions:
REMARK  status: ('A' for Active; 'I' for Inactive)
REMARK    1  A    between atoms: C_1  and  O_2
REMARK    2  A    between atoms: O_2  and  C_3
REMARK    3  A    between atoms: N_10  and  O_11
REMARK    4  A    between atoms: O_11  and  C_12
REMARK    5  A    between atoms: C_12  and  C_13
REMARK    6  A    between atoms: C_21  and  N_22
REMARK                            x       y       z     vdW  Elec       q    Type
REMARK                         _______ _______ _______ _____ _____    ______ ____
ROOT
ATOM      1  C   UNL     1      -1.560  11.282  22.971  0.00  0.00    +0.000 A 
ATOM      2  C   UNL     1      -2.675  12.011  23.376  0.00  0.00    +0.000 A 
ATOM      3  C   UNL     1      -2.996  13.214  22.752  0.00  0.00    +0.000 A 
ATOM      4  C   UNL     1      -2.131  13.793  21.842  0.00  0.00    +0.000 A 
ATOM      5  C   UNL     1      -1.064  13.020  21.377  0.00  0.00    +0.000 A 
ATOM      6  C   UNL     1      -0.768  11.770  21.926  0.00  0.00    +0.000 A 
ATOM      7  C   UNL     1      -0.403  13.809  20.299  0.00  0.00    +0.000 C 
ATOM      8  N   UNL     1       0.614  13.497  19.555  0.00  0.00    +0.000 NA
ATOM      9  C   UNL     1      -1.123  15.127  20.226  0.00  0.00    +0.000 A 
ATOM     10  C   UNL     1      -2.128  15.120  21.231  0.00  0.00    +0.000 A 
ATOM     11  C   UNL     1      -2.850  16.289  21.456  0.00  0.00    +0.000 A 
ATOM     12  N   UNL     1      -2.582  17.377  20.687  0.00  0.00    +0.000 NA
ATOM     13  C   UNL     1      -1.662  17.358  19.711  0.00  0.00    +0.000 A 
ATOM     14  C   UNL     1      -1.464  18.541  19.011  0.00  0.00    +0.000 A 
ATOM     15  C   UNL     1      -0.561  18.629  17.950  0.00  0.00    +0.000 A 
ATOM     16  C   UNL     1       0.141  17.499  17.559  0.00  0.00    +0.000 A 
ATOM     17  C   UNL     1      -0.018  16.307  18.273  0.00  0.00    +0.000 A 
ATOM     18  C   UNL     1      -0.899  16.230  19.384  0.00  0.00    +0.000 A 
ENDROOT
BRANCH  11  19
ATOM     19  N   UNL     1      -3.814  16.516  22.410  0.00  0.00    +0.000 N 
ATOM     20  C   UNL     1      -5.244  16.254  22.289  0.00  0.00    +0.000 C 
ATOM     21  C   UNL     1      -5.846  15.568  23.529  0.00  0.00    +0.000 C 
ATOM     22  N   UNL     1      -5.533  16.281  24.777  0.00  0.00    +0.000 NA
ATOM     23  C   UNL     1      -4.065  16.391  24.890  0.00  0.00    +0.000 C 
ATOM     24  C   UNL     1      -3.406  17.118  23.694  0.00  0.00    +0.000 C 
ATOM     25  H   UNL     1      -5.893  15.746  25.566  0.00  0.00    +0.000 HD
ENDBRANCH  11  19
BRANCH   1  27
ATOM     26  C   UNL     1       0.139   9.646  23.212  0.00  0.00    +0.000 C 
ATOM     27  O   UNL     1      -1.189  10.079  23.509  0.00  0.00    +0.000 OA
ENDBRANCH   1  27
BRANCH   8  28
ATOM     28  O   UNL     1       0.998  12.160  19.747  0.00  0.00    +0.000 OA
BRANCH  28  29
ATOM     29  C   UNL     1       0.633  11.348  18.632  0.00  0.00    +0.000 C 
BRANCH  29  30
ATOM     30  C   UNL     1       1.270   9.988  18.820  0.00  0.00    +0.000 A 
ATOM     31  C   UNL     1       1.983   9.394  17.768  0.00  0.00    +0.000 A 
ATOM     32  C   UNL     1       2.538   8.122  17.911  0.00  0.00    +0.000 A 
ATOM     33  C   UNL     1       2.372   7.419  19.105  0.00  0.00    +0.000 A 
ATOM     34  C   UNL     1       1.656   7.991  20.153  0.00  0.00    +0.000 A 
ATOM     35  C   UNL     1       1.108   9.273  20.014  0.00  0.00    +0.000 A 
ENDBRANCH  29  30
ENDBRANCH  28  29
ENDBRANCH   8  28
TORSDOF 5
ENDMDL
