MODEL 1
REMARK VINA RESULT:      -7.3      0.000      0.000
REMARK  Name = 
REMARK  6 active torsions:
REMARK  status: ('A' for Active; 'I' for Inactive)
REMARK    1  A    between atoms: C_1  and  O_2
REMARK    2  A    between atoms: O_2  and  C_3
REMARK    3  A    between atoms: C_6  and  N_7
REMARK    4  A    between atoms: N_7  and  C_8
REMARK    5  A    between atoms: C_12  and  C_13
REMARK    6  A    between atoms: C_13  and  O_15
REMARK                            x       y       z     vdW  Elec       q    Type
REMARK                         _______ _______ _______ _____ _____    ______ ____
ROOT
ATOM      1  N   UNL     1       5.931   3.901  18.417  0.00  0.00    +0.000 N 
ATOM      2  H   UNL     1       6.590   3.143  18.291  0.00  0.00    +0.000 HD
ENDROOT
BRANCH   1   6
ATOM      3  C   UNL     1       7.640   7.719  17.833  0.00  0.00    +0.000 A 
ATOM      4  C   UNL     1       6.491   7.356  17.139  0.00  0.00    +0.000 A 
ATOM      5  C   UNL     1       5.897   6.113  17.361  0.00  0.00    +0.000 A 
ATOM      6  C   UNL     1       6.455   5.196  18.261  0.00  0.00    +0.000 A 
ATOM      7  C   UNL     1       7.610   5.569  18.953  0.00  0.00    +0.000 A 
ATOM      8  C   UNL     1       8.201   6.822  18.743  0.00  0.00    +0.000 A 
BRANCH   3  10
ATOM      9  C   UNL     1       8.755   9.661  18.579  0.00  0.00    +0.000 C 
ATOM     10  O   UNL     1       8.151   8.944  17.510  0.00  0.00    +0.000 OA
ENDBRANCH   3  10
ENDBRANCH   1   6
BRANCH   1  11
ATOM     11  C   UNL     1       4.588   3.498  18.522  0.00  0.00    +0.000 A 
ATOM     12  C   UNL     1       3.880   3.149  17.366  0.00  0.00    +0.000 A 
ATOM     13  C   UNL     1       2.569   2.674  17.447  0.00  0.00    +0.000 A 
ATOM     14  C   UNL     1       1.954   2.539  18.691  0.00  0.00    +0.000 A 
ATOM     15  C   UNL     1       2.647   2.878  19.857  0.00  0.00    +0.000 A 
ATOM     16  C   UNL     1       3.953   3.368  19.766  0.00  0.00    +0.000 A 
BRANCH  15  17
ATOM     17  C   UNL     1       1.947   2.745  21.158  0.00  0.00    +0.000 C 
ATOM     18  O   UNL     1       2.546   2.567  22.209  0.00  0.00    +0.000 OA
BRANCH  17  19
ATOM     19  O   UNL     1       0.605   2.881  21.097  0.00  0.00    +0.000 OA
ATOM     20  H   UNL     1       0.090   2.175  21.529  0.00  0.00    +0.000 HD
ENDBRANCH  17  19
ENDBRANCH  15  17
ENDBRANCH   1  11
TORSDOF 5
ENDMDL
MODEL 2
REMARK VINA RESULT:      -7.2      0.316      1.173
REMARK  Name = 
REMARK  6 active torsions:
REMARK  status: ('A' for Active; 'I' for Inactive)
REMARK    1  A    between atoms: C_1  and  O_2
REMARK    2  A    between atoms: O_2  and  C_3
REMARK    3  A    between atoms: C_6  and  N_7
REMARK    4  A    between atoms: N_7  and  C_8
REMARK    5  A    between atoms: C_12  and  C_13
REMARK    6  A    between atoms: C_13  and  O_15
REMARK                            x       y       z     vdW  Elec       q    Type
REMARK                         _______ _______ _______ _____ _____    ______ ____
ROOT
ATOM      1  N   UNL     1       5.838   3.712  18.391  0.00  0.00    +0.000 N 
ATOM      2  H   UNL     1       6.489   2.937  18.377  0.00  0.00    +0.000 HD
ENDROOT
BRANCH   1   6
ATOM      3  C   UNL     1       7.328   7.571  17.537  0.00  0.00    +0.000 A 
ATOM      4  C   UNL     1       7.953   6.778  18.494  0.00  0.00    +0.000 A 
ATOM      5  C   UNL     1       7.492   5.486  18.749  0.00  0.00    +0.000 A 
ATOM      6  C   UNL     1       6.380   4.969  18.071  0.00  0.00    +0.000 A 
ATOM      7  C   UNL     1       5.758   5.773  17.113  0.00  0.00    +0.000 A 
ATOM      8  C   UNL     1       6.227   7.065  16.844  0.00  0.00    +0.000 A 
BRANCH   3  10
ATOM      9  C   UNL     1       8.685   9.271  18.456  0.00  0.00    +0.000 C 
ATOM     10  O   UNL     1       7.844   8.828  17.397  0.00  0.00    +0.000 OA
ENDBRANCH   3  10
ENDBRANCH   1   6
BRANCH   1  11
ATOM     11  C   UNL     1       4.489   3.342  18.530  0.00  0.00    +0.000 A 
ATOM     12  C   UNL     1       3.778   2.894  17.411  0.00  0.00    +0.000 A 
ATOM     13  C   UNL     1       2.459   2.449  17.533  0.00  0.00    +0.000 A 
ATOM     14  C   UNL     1       1.840   2.444  18.782  0.00  0.00    +0.000 A 
ATOM     15  C   UNL     1       2.536   2.883  19.912  0.00  0.00    +0.000 A 
ATOM     16  C   UNL     1       3.850   3.343  19.778  0.00  0.00    +0.000 A 
BRANCH  15  17
ATOM     17  C   UNL     1       1.832   2.888  21.218  0.00  0.00    +0.000 C 
ATOM     18  O   UNL     1       2.422   3.026  22.280  0.00  0.00    +0.000 OA
BRANCH  17  19
ATOM     19  O   UNL     1       0.489   2.772  21.139  0.00  0.00    +0.000 OA
ATOM     20  H   UNL     1       0.020   3.544  20.772  0.00  0.00    +0.000 HD
ENDBRANCH  17  19
ENDBRANCH  15  17
ENDBRANCH   1  11
TORSDOF 5
ENDMDL
MODEL 3
REMARK VINA RESULT:      -7.0      2.800      3.647
REMARK  Name = 
REMARK  6 active torsions:
REMARK  status: ('A' for Active; 'I' for Inactive)
REMARK    1  A    between atoms: C_1  and  O_2
REMARK    2  A    between atoms: O_2  and  C_3
REMARK    3  A    between atoms: C_6  and  N_7
REMARK    4  A    between atoms: N_7  and  C_8
REMARK    5  A    between atoms: C_12  and  C_13
REMARK    6  A    between atoms: C_13  and  O_15
REMARK                            x       y       z     vdW  Elec       q    Type
REMARK                         _______ _______ _______ _____ _____    ______ ____
ROOT
ATOM      1  N   UNL     1       5.515   4.067  18.383  0.00  0.00    +0.000 N 
ATOM      2  H   UNL     1       6.077   3.385  18.877  0.00  0.00    +0.000 HD
ENDROOT
BRANCH   1   6
ATOM      3  C   UNL     1       6.670   4.566  14.351  0.00  0.00    +0.000 A 
ATOM      4  C   UNL     1       5.409   4.064  14.659  0.00  0.00    +0.000 A 
ATOM      5  C   UNL     1       5.007   3.939  15.988  0.00  0.00    +0.000 A 
ATOM      6  C   UNL     1       5.864   4.287  17.040  0.00  0.00    +0.000 A 
ATOM      7  C   UNL     1       7.129   4.789  16.721  0.00  0.00    +0.000 A 
ATOM      8  C   UNL     1       7.532   4.929  15.387  0.00  0.00    +0.000 A 
BRANCH   3  10
ATOM      9  C   UNL     1       6.452   3.542  12.234  0.00  0.00    +0.000 C 
ATOM     10  O   UNL     1       6.968   4.612  13.019  0.00  0.00    +0.000 OA
ENDBRANCH   3  10
ENDBRANCH   1   6
BRANCH   1  11
ATOM     11  C   UNL     1       4.376   4.504  19.082  0.00  0.00    +0.000 A 
ATOM     12  C   UNL     1       3.999   5.850  19.014  0.00  0.00    +0.000 A 
ATOM     13  C   UNL     1       2.830   6.297  19.636  0.00  0.00    +0.000 A 
ATOM     14  C   UNL     1       2.024   5.396  20.330  0.00  0.00    +0.000 A 
ATOM     15  C   UNL     1       2.381   4.047  20.405  0.00  0.00    +0.000 A 
ATOM     16  C   UNL     1       3.561   3.611  19.793  0.00  0.00    +0.000 A 
BRANCH  15  17
ATOM     17  C   UNL     1       1.510   3.127  21.175  0.00  0.00    +0.000 C 
ATOM     18  O   UNL     1       1.805   2.727  22.293  0.00  0.00    +0.000 OA
BRANCH  17  19
ATOM     19  O   UNL     1       0.350   2.802  20.567  0.00  0.00    +0.000 OA
ATOM     20  H   UNL     1       0.337   2.907  19.597  0.00  0.00    +0.000 HD
ENDBRANCH  17  19
ENDBRANCH  15  17
ENDBRANCH   1  11
TORSDOF 5
ENDMDL
MODEL 4
REMARK VINA RESULT:      -7.0      2.701      3.701
REMARK  Name = 
REMARK  6 active torsions:
REMARK  status: ('A' for Active; 'I' for Inactive)
REMARK    1  A    between atoms: C_1  and  O_2
REMARK    2  A    between atoms: O_2  and  C_3
REMARK    3  A    between atoms: C_6  and  N_7
REMARK    4  A    between atoms: N_7  and  C_8
REMARK    5  A    between atoms: C_12  and  C_13
REMARK    6  A    between atoms: C_13  and  O_15
REMARK                            x       y       z     vdW  Elec       q    Type
REMARK                         _______ _______ _______ _____ _____    ______ ____
ROOT
ATOM      1  N   UNL     1       5.601   4.173  18.715  0.00  0.00    +0.000 N 
ATOM      2  H   UNL     1       6.237   3.676  19.326  0.00  0.00    +0.000 HD
ENDROOT
BRANCH   1   6
ATOM      3  C   UNL     1       6.591   4.449  14.618  0.00  0.00    +0.000 A 
ATOM      4  C   UNL     1       7.508   4.845  15.585  0.00  0.00    +0.000 A 
ATOM      5  C   UNL     1       7.204   4.715  16.940  0.00  0.00    +0.000 A 
ATOM      6  C   UNL     1       5.965   4.211  17.358  0.00  0.00    +0.000 A 
ATOM      7  C   UNL     1       5.049   3.817  16.379  0.00  0.00    +0.000 A 
ATOM      8  C   UNL     1       5.357   3.933  15.017  0.00  0.00    +0.000 A 
BRANCH   3  10
ATOM      9  C   UNL     1       6.510   3.704  12.379  0.00  0.00    +0.000 C 
ATOM     10  O   UNL     1       6.983   4.655  13.326  0.00  0.00    +0.000 OA
ENDBRANCH   3  10
ENDBRANCH   1   6
BRANCH   1  11
ATOM     11  C   UNL     1       4.385   4.548  19.314  0.00  0.00    +0.000 A 
ATOM     12  C   UNL     1       3.973   5.885  19.261  0.00  0.00    +0.000 A 
ATOM     13  C   UNL     1       2.736   6.272  19.781  0.00  0.00    +0.000 A 
ATOM     14  C   UNL     1       1.895   5.321  20.356  0.00  0.00    +0.000 A 
ATOM     15  C   UNL     1       2.287   3.980  20.414  0.00  0.00    +0.000 A 
ATOM     16  C   UNL     1       3.534   3.604  19.906  0.00  0.00    +0.000 A 
BRANCH  15  17
ATOM     17  C   UNL     1       1.375   3.004  21.058  0.00  0.00    +0.000 C 
ATOM     18  O   UNL     1       1.597   2.530  22.163  0.00  0.00    +0.000 OA
BRANCH  17  19
ATOM     19  O   UNL     1       0.261   2.716  20.351  0.00  0.00    +0.000 OA
ATOM     20  H   UNL     1      -0.095   1.816  20.473  0.00  0.00    +0.000 HD
ENDBRANCH  17  19
ENDBRANCH  15  17
ENDBRANCH   1  11
TORSDOF 5
ENDMDL
MODEL 5
REMARK VINA RESULT:      -6.9      2.677      3.573
REMARK  Name = 
REMARK  6 active torsions:
REMARK  status: ('A' for Active; 'I' for Inactive)
REMARK    1  A    between atoms: C_1  and  O_2
REMARK    2  A    between atoms: O_2  and  C_3
REMARK    3  A    between atoms: C_6  and  N_7
REMARK    4  A    between atoms: N_7  and  C_8
REMARK    5  A    between atoms: C_12  and  C_13
REMARK    6  A    between atoms: C_13  and  O_15
REMARK                            x       y       z     vdW  Elec       q    Type
REMARK                         _______ _______ _______ _____ _____    ______ ____
ROOT
ATOM      1  N   UNL     1       4.668   5.871  18.978  0.00  0.00    +0.000 N 
ATOM      2  H   UNL     1       5.177   6.382  19.688  0.00  0.00    +0.000 HD
ENDROOT
BRANCH   1   6
ATOM      3  C   UNL     1       6.601   5.175  15.288  0.00  0.00    +0.000 A 
ATOM      4  C   UNL     1       5.439   5.937  15.333  0.00  0.00    +0.000 A 
ATOM      5  C   UNL     1       4.821   6.207  16.555  0.00  0.00    +0.000 A 
ATOM      6  C   UNL     1       5.336   5.698  17.754  0.00  0.00    +0.000 A 
ATOM      7  C   UNL     1       6.503   4.932  17.698  0.00  0.00    +0.000 A 
ATOM      8  C   UNL     1       7.135   4.670  16.475  0.00  0.00    +0.000 A 
BRANCH   3  10
ATOM      9  C   UNL     1       6.429   3.944  13.280  0.00  0.00    +0.000 C 
ATOM     10  O   UNL     1       7.098   4.947  14.036  0.00  0.00    +0.000 OA
ENDBRANCH   3  10
ENDBRANCH   1   6
BRANCH   1  11
ATOM     11  C   UNL     1       3.481   5.265  19.429  0.00  0.00    +0.000 A 
ATOM     12  C   UNL     1       2.689   5.922  20.378  0.00  0.00    +0.000 A 
ATOM     13  C   UNL     1       1.468   5.379  20.788  0.00  0.00    +0.000 A 
ATOM     14  C   UNL     1       1.027   4.172  20.247  0.00  0.00    +0.000 A 
ATOM     15  C   UNL     1       1.803   3.504  19.295  0.00  0.00    +0.000 A 
ATOM     16  C   UNL     1       3.030   4.046  18.902  0.00  0.00    +0.000 A 
BRANCH  15  17
ATOM     17  C   UNL     1       1.310   2.210  18.765  0.00  0.00    +0.000 C 
ATOM     18  O   UNL     1       0.145   2.037  18.436  0.00  0.00    +0.000 OA
BRANCH  17  19
ATOM     19  O   UNL     1       2.255   1.255  18.632  0.00  0.00    +0.000 OA
ATOM     20  H   UNL     1       1.923   0.345  18.523  0.00  0.00    +0.000 HD
ENDBRANCH  17  19
ENDBRANCH  15  17
ENDBRANCH   1  11
TORSDOF 5
ENDMDL
MODEL 6
REMARK VINA RESULT:      -6.8      4.595      5.898
REMARK  Name = 
REMARK  6 active torsions:
REMARK  status: ('A' for Active; 'I' for Inactive)
REMARK    1  A    between atoms: C_1  and  O_2
REMARK    2  A    between atoms: O_2  and  C_3
REMARK    3  A    between atoms: C_6  and  N_7
REMARK    4  A    between atoms: N_7  and  C_8
REMARK    5  A    between atoms: C_12  and  C_13
REMARK    6  A    between atoms: C_13  and  O_15
REMARK                            x       y       z     vdW  Elec       q    Type
REMARK                         _______ _______ _______ _____ _____    ______ ____
ROOT
ATOM      1  N   UNL     1       3.068   6.252  19.688  0.00  0.00    +0.000 N 
ATOM      2  H   UNL     1       3.322   6.080  20.652  0.00  0.00    +0.000 HD
ENDROOT
BRANCH   1   6
ATOM      3  C   UNL     1       0.897   9.822  19.074  0.00  0.00    +0.000 A 
ATOM      4  C   UNL     1       1.586   9.235  18.018  0.00  0.00    +0.000 A 
ATOM      5  C   UNL     1       2.268   8.032  18.205  0.00  0.00    +0.000 A 
ATOM      6  C   UNL     1       2.298   7.405  19.457  0.00  0.00    +0.000 A 
ATOM      7  C   UNL     1       1.604   8.003  20.512  0.00  0.00    +0.000 A 
ATOM      8  C   UNL     1       0.906   9.203  20.325  0.00  0.00    +0.000 A 
BRANCH   3  10
ATOM      9  C   UNL     1       0.066  11.875  19.893  0.00  0.00    +0.000 C 
ATOM     10  O   UNL     1       0.295  11.014  18.784  0.00  0.00    +0.000 OA
ENDBRANCH   3  10
ENDBRANCH   1   6
BRANCH   1  11
ATOM     11  C   UNL     1       3.706   5.415  18.755  0.00  0.00    +0.000 A 
ATOM     12  C   UNL     1       2.962   4.438  18.083  0.00  0.00    +0.000 A 
ATOM     13  C   UNL     1       3.553   3.643  17.097  0.00  0.00    +0.000 A 
ATOM     14  C   UNL     1       4.896   3.823  16.771  0.00  0.00    +0.000 A 
ATOM     15  C   UNL     1       5.653   4.797  17.428  0.00  0.00    +0.000 A 
ATOM     16  C   UNL     1       5.059   5.577  18.425  0.00  0.00    +0.000 A 
BRANCH  15  17
ATOM     17  C   UNL     1       7.086   4.938  17.070  0.00  0.00    +0.000 C 
ATOM     18  O   UNL     1       7.484   5.780  16.278  0.00  0.00    +0.000 OA
BRANCH  17  19
ATOM     19  O   UNL     1       7.918   4.096  17.719  0.00  0.00    +0.000 OA
ATOM     20  H   UNL     1       8.862   4.338  17.701  0.00  0.00    +0.000 HD
ENDBRANCH  17  19
ENDBRANCH  15  17
ENDBRANCH   1  11
TORSDOF 5
ENDMDL
MODEL 7
REMARK VINA RESULT:      -6.8      0.881      1.590
REMARK  Name = 
REMARK  6 active torsions:
REMARK  status: ('A' for Active; 'I' for Inactive)
REMARK    1  A    between atoms: C_1  and  O_2
REMARK    2  A    between atoms: O_2  and  C_3
REMARK    3  A    between atoms: C_6  and  N_7
REMARK    4  A    between atoms: N_7  and  C_8
REMARK    5  A    between atoms: C_12  and  C_13
REMARK    6  A    between atoms: C_13  and  O_15
REMARK                            x       y       z     vdW  Elec       q    Type
REMARK                         _______ _______ _______ _____ _____    ______ ____
ROOT
ATOM      1  N   UNL     1       5.211   3.985  17.380  0.00  0.00    +0.000 N 
ATOM      2  H   UNL     1       5.367   3.452  16.534  0.00  0.00    +0.000 HD
ENDROOT
BRANCH   1   6
ATOM      3  C   UNL     1       7.831   7.189  18.224  0.00  0.00    +0.000 A 
ATOM      4  C   UNL     1       7.952   5.988  18.915  0.00  0.00    +0.000 A 
ATOM      5  C   UNL     1       7.119   4.912  18.610  0.00  0.00    +0.000 A 
ATOM      6  C   UNL     1       6.128   5.022  17.626  0.00  0.00    +0.000 A 
ATOM      7  C   UNL     1       6.012   6.232  16.937  0.00  0.00    +0.000 A 
ATOM      8  C   UNL     1       6.857   7.311  17.231  0.00  0.00    +0.000 A 
BRANCH   3  10
ATOM      9  C   UNL     1       8.387   9.482  18.128  0.00  0.00    +0.000 C 
ATOM     10  O   UNL     1       8.676   8.182  18.630  0.00  0.00    +0.000 OA
ENDBRANCH   3  10
ENDBRANCH   1   6
BRANCH   1  11
ATOM     11  C   UNL     1       3.995   3.709  18.031  0.00  0.00    +0.000 A 
ATOM     12  C   UNL     1       2.801   3.737  17.301  0.00  0.00    +0.000 A 
ATOM     13  C   UNL     1       1.588   3.395  17.904  0.00  0.00    +0.000 A 
ATOM     14  C   UNL     1       1.560   3.015  19.245  0.00  0.00    +0.000 A 
ATOM     15  C   UNL     1       2.744   2.976  19.988  0.00  0.00    +0.000 A 
ATOM     16  C   UNL     1       3.951   3.336  19.382  0.00  0.00    +0.000 A 
BRANCH  15  17
ATOM     17  C   UNL     1       2.667   2.593  21.419  0.00  0.00    +0.000 C 
ATOM     18  O   UNL     1       1.724   2.904  22.132  0.00  0.00    +0.000 OA
BRANCH  17  19
ATOM     19  O   UNL     1       3.696   1.838  21.859  0.00  0.00    +0.000 OA
ATOM     20  H   UNL     1       3.472   0.921  22.106  0.00  0.00    +0.000 HD
ENDBRANCH  17  19
ENDBRANCH  15  17
ENDBRANCH   1  11
TORSDOF 5
ENDMDL
MODEL 8
REMARK VINA RESULT:      -6.7      4.399      6.390
REMARK  Name = 
REMARK  6 active torsions:
REMARK  status: ('A' for Active; 'I' for Inactive)
REMARK    1  A    between atoms: C_1  and  O_2
REMARK    2  A    between atoms: O_2  and  C_3
REMARK    3  A    between atoms: C_6  and  N_7
REMARK    4  A    between atoms: N_7  and  C_8
REMARK    5  A    between atoms: C_12  and  C_13
REMARK    6  A    between atoms: C_13  and  O_15
REMARK                            x       y       z     vdW  Elec       q    Type
REMARK                         _______ _______ _______ _____ _____    ______ ____
ROOT
ATOM      1  N   UNL     1       3.262   5.701  18.030  0.00  0.00    +0.000 N 
ATOM      2  H   UNL     1       2.665   4.887  17.958  0.00  0.00    +0.000 HD
ENDROOT
BRANCH   1   6
ATOM      3  C   UNL     1       1.313   9.086  19.634  0.00  0.00    +0.000 A 
ATOM      4  C   UNL     1       1.583   7.989  20.444  0.00  0.00    +0.000 A 
ATOM      5  C   UNL     1       2.266   6.886  19.930  0.00  0.00    +0.000 A 
ATOM      6  C   UNL     1       2.669   6.845  18.589  0.00  0.00    +0.000 A 
ATOM      7  C   UNL     1       2.393   7.953  17.783  0.00  0.00    +0.000 A 
ATOM      8  C   UNL     1       1.719   9.068  18.299  0.00  0.00    +0.000 A 
BRANCH   3  10
ATOM      9  C   UNL     1      -0.521  10.569  19.514  0.00  0.00    +0.000 C 
ATOM     10  O   UNL     1       0.610  10.092  20.234  0.00  0.00    +0.000 OA
ENDBRANCH   3  10
ENDBRANCH   1   6
BRANCH   1  11
ATOM     11  C   UNL     1       4.618   5.459  17.742  0.00  0.00    +0.000 A 
ATOM     12  C   UNL     1       5.541   5.376  18.791  0.00  0.00    +0.000 A 
ATOM     13  C   UNL     1       6.880   5.062  18.540  0.00  0.00    +0.000 A 
ATOM     14  C   UNL     1       7.306   4.825  17.235  0.00  0.00    +0.000 A 
ATOM     15  C   UNL     1       6.397   4.899  16.175  0.00  0.00    +0.000 A 
ATOM     16  C   UNL     1       5.063   5.229  16.432  0.00  0.00    +0.000 A 
BRANCH  15  17
ATOM     17  C   UNL     1       6.896   4.666  14.798  0.00  0.00    +0.000 C 
ATOM     18  O   UNL     1       7.721   5.396  14.267  0.00  0.00    +0.000 OA
BRANCH  17  19
ATOM     19  O   UNL     1       6.404   3.562  14.195  0.00  0.00    +0.000 OA
ATOM     20  H   UNL     1       5.970   3.710  13.335  0.00  0.00    +0.000 HD
ENDBRANCH  17  19
ENDBRANCH  15  17
ENDBRANCH   1  11
TORSDOF 5
ENDMDL
MODEL 9
REMARK VINA RESULT:      -6.7      1.178      1.727
REMARK  Name = 
REMARK  6 active torsions:
REMARK  status: ('A' for Active; 'I' for Inactive)
REMARK    1  A    between atoms: C_1  and  O_2
REMARK    2  A    between atoms: O_2  and  C_3
REMARK    3  A    between atoms: C_6  and  N_7
REMARK    4  A    between atoms: N_7  and  C_8
REMARK    5  A    between atoms: C_12  and  C_13
REMARK    6  A    between atoms: C_13  and  O_15
REMARK                            x       y       z     vdW  Elec       q    Type
REMARK                         _______ _______ _______ _____ _____    ______ ____
ROOT
ATOM      1  N   UNL     1       4.422   4.224  16.926  0.00  0.00    +0.000 N 
ATOM      2  H   UNL     1       4.213   4.106  15.942  0.00  0.00    +0.000 HD
ENDROOT
BRANCH   1   6
ATOM      3  C   UNL     1       7.459   6.967  17.967  0.00  0.00    +0.000 A 
ATOM      4  C   UNL     1       7.551   5.639  18.370  0.00  0.00    +0.000 A 
ATOM      5  C   UNL     1       6.573   4.719  17.991  0.00  0.00    +0.000 A 
ATOM      6  C   UNL     1       5.468   5.113  17.225  0.00  0.00    +0.000 A 
ATOM      7  C   UNL     1       5.384   6.449  16.826  0.00  0.00    +0.000 A 
ATOM      8  C   UNL     1       6.371   7.373  17.192  0.00  0.00    +0.000 A 
BRANCH   3  10
ATOM      9  C   UNL     1       8.338   9.156  18.070  0.00  0.00    +0.000 C 
ATOM     10  O   UNL     1       8.454   7.783  18.425  0.00  0.00    +0.000 OA
ENDBRANCH   3  10
ENDBRANCH   1   6
BRANCH   1  11
ATOM     11  C   UNL     1       3.490   3.631  17.797  0.00  0.00    +0.000 A 
ATOM     12  C   UNL     1       2.789   2.491  17.387  0.00  0.00    +0.000 A 
ATOM     13  C   UNL     1       1.914   1.838  18.259  0.00  0.00    +0.000 A 
ATOM     14  C   UNL     1       1.737   2.319  19.555  0.00  0.00    +0.000 A 
ATOM     15  C   UNL     1       2.432   3.453  19.984  0.00  0.00    +0.000 A 
ATOM     16  C   UNL     1       3.293   4.111  19.101  0.00  0.00    +0.000 A 
BRANCH  15  17
ATOM     17  C   UNL     1       2.194   3.948  21.362  0.00  0.00    +0.000 C 
ATOM     18  O   UNL     1       2.000   3.194  22.305  0.00  0.00    +0.000 OA
BRANCH  17  19
ATOM     19  O   UNL     1       2.252   5.290  21.501  0.00  0.00    +0.000 OA
ATOM     20  H   UNL     1       2.983   5.731  21.030  0.00  0.00    +0.000 HD
ENDBRANCH  17  19
ENDBRANCH  15  17
ENDBRANCH   1  11
TORSDOF 5
ENDMDL
