MODEL 1
REMARK VINA RESULT:      -7.9      0.000      0.000
REMARK  Name = 
REMARK  6 active torsions:
REMARK  status: ('A' for Active; 'I' for Inactive)
REMARK    1  A    between atoms: C_1  and  O_2
REMARK    2  A    between atoms: O_2  and  C_3
REMARK    3  A    between atoms: C_3  and  C_4
REMARK    4  A    between atoms: C_4  and  N_5
REMARK    5  A    between atoms: C_12  and  C_13
REMARK    6  A    between atoms: C_18  and  C_19
REMARK                            x       y       z     vdW  Elec       q    Type
REMARK                         _______ _______ _______ _____ _____    ______ ____
ROOT
ATOM      1  N   UNL     1       4.646   5.211  17.040  0.00  0.00    +0.000 N 
ATOM      2  C   UNL     1       5.206   4.031  16.603  0.00  0.00    +0.000 A 
ATOM      3  O   UNL     1       6.049   3.939  15.714  0.00  0.00    +0.000 OA
ATOM      4  N   UNL     1       4.774   2.895  17.219  0.00  0.00    +0.000 N 
ATOM      5  C   UNL     1       4.104   2.855  18.408  0.00  0.00    +0.000 A 
ATOM      6  O   UNL     1       4.166   1.865  19.116  0.00  0.00    +0.000 OA
ATOM      7  C   UNL     1       3.374   4.075  18.793  0.00  0.00    +0.000 A 
ATOM      8  C   UNL     1       2.442   4.151  19.840  0.00  0.00    +0.000 A 
ATOM      9  C   UNL     1       1.883   5.414  20.127  0.00  0.00    +0.000 A 
ATOM     10  C   UNL     1       2.247   6.529  19.391  0.00  0.00    +0.000 A 
ATOM     11  N   UNL     1       3.102   6.442  18.352  0.00  0.00    +0.000 NA
ATOM     12  C   UNL     1       3.676   5.240  18.077  0.00  0.00    +0.000 A 
ATOM     13  H   UNL     1       5.291   2.062  16.972  0.00  0.00    +0.000 HD
ENDROOT
BRANCH  10  14
ATOM     14  C   UNL     1       1.773   7.883  19.704  0.00  0.00    +0.000 A 
ATOM     15  C   UNL     1       1.306   8.390  20.905  0.00  0.00    +0.000 A 
ATOM     16  C   UNL     1       0.909   9.758  20.813  0.00  0.00    +0.000 A 
ATOM     17  C   UNL     1       1.066  10.256  19.540  0.00  0.00    +0.000 A 
ATOM     18  S   UNL     1       1.685   9.083  18.470  0.00  0.00    +0.000 S 
ENDBRANCH  10  14
BRANCH   8  19
ATOM     19  C   UNL     1       1.967   3.044  20.750  0.00  0.00    +0.000 C 
ATOM     20  F   UNL     1       1.550   1.879  20.212  0.00  0.00    +0.000 F 
ATOM     21  F   UNL     1       2.929   2.720  21.664  0.00  0.00    +0.000 F 
ATOM     22  F   UNL     1       0.904   3.471  21.499  0.00  0.00    +0.000 F 
ENDBRANCH   8  19
BRANCH   1  23
ATOM     23  C   UNL     1       5.102   6.474  16.451  0.00  0.00    +0.000 C 
BRANCH  23  24
ATOM     24  C   UNL     1       6.178   7.210  17.264  0.00  0.00    +0.000 C 
BRANCH  24  26
ATOM     25  C   UNL     1       7.734   6.122  18.657  0.00  0.00    +0.000 C 
ATOM     26  O   UNL     1       7.382   6.441  17.315  0.00  0.00    +0.000 OA
ENDBRANCH  24  26
ENDBRANCH  23  24
ENDBRANCH   1  23
TORSDOF 5
ENDMDL
MODEL 2
REMARK VINA RESULT:      -7.9      1.477      1.666
REMARK  Name = 
REMARK  6 active torsions:
REMARK  status: ('A' for Active; 'I' for Inactive)
REMARK    1  A    between atoms: C_1  and  O_2
REMARK    2  A    between atoms: O_2  and  C_3
REMARK    3  A    between atoms: C_3  and  C_4
REMARK    4  A    between atoms: C_4  and  N_5
REMARK    5  A    between atoms: C_12  and  C_13
REMARK    6  A    between atoms: C_18  and  C_19
REMARK                            x       y       z     vdW  Elec       q    Type
REMARK                         _______ _______ _______ _____ _____    ______ ____
ROOT
ATOM      1  N   UNL     1       5.713   5.798  17.751  0.00  0.00    +0.000 N 
ATOM      2  C   UNL     1       6.473   4.651  17.688  0.00  0.00    +0.000 A 
ATOM      3  O   UNL     1       7.572   4.564  17.145  0.00  0.00    +0.000 OA
ATOM      4  N   UNL     1       5.943   3.544  18.279  0.00  0.00    +0.000 N 
ATOM      5  C   UNL     1       4.915   3.552  19.178  0.00  0.00    +0.000 A 
ATOM      6  O   UNL     1       4.807   2.657  19.997  0.00  0.00    +0.000 OA
ATOM      7  C   UNL     1       4.010   4.714  19.131  0.00  0.00    +0.000 A 
ATOM      8  C   UNL     1       2.775   4.791  19.795  0.00  0.00    +0.000 A 
ATOM      9  C   UNL     1       2.061   6.003  19.706  0.00  0.00    +0.000 A 
ATOM     10  C   UNL     1       2.569   7.070  18.982  0.00  0.00    +0.000 A 
ATOM     11  N   UNL     1       3.729   6.973  18.302  0.00  0.00    +0.000 NA
ATOM     12  C   UNL     1       4.450   5.824  18.399  0.00  0.00    +0.000 A 
ATOM     13  H   UNL     1       6.573   2.755  18.333  0.00  0.00    +0.000 HD
ENDROOT
BRANCH  10  14
ATOM     14  C   UNL     1       1.918   8.385  18.933  0.00  0.00    +0.000 A 
ATOM     15  C   UNL     1       1.907   9.317  17.909  0.00  0.00    +0.000 A 
ATOM     16  C   UNL     1       1.180  10.499  18.242  0.00  0.00    +0.000 A 
ATOM     17  C   UNL     1       0.670  10.448  19.519  0.00  0.00    +0.000 A 
ATOM     18  S   UNL     1       1.066   8.987  20.304  0.00  0.00    +0.000 S 
ENDBRANCH  10  14
BRANCH   8  19
ATOM     19  C   UNL     1       2.103   3.738  20.643  0.00  0.00    +0.000 C 
ATOM     20  F   UNL     1       2.069   2.462  20.209  0.00  0.00    +0.000 F 
ATOM     21  F   UNL     1       2.650   3.701  21.894  0.00  0.00    +0.000 F 
ATOM     22  F   UNL     1       0.789   4.064  20.847  0.00  0.00    +0.000 F 
ENDBRANCH   8  19
BRANCH   1  23
ATOM     23  C   UNL     1       6.247   7.036  17.174  0.00  0.00    +0.000 C 
BRANCH  23  24
ATOM     24  C   UNL     1       7.519   7.563  17.854  0.00  0.00    +0.000 C 
BRANCH  24  26
ATOM     25  C   UNL     1       8.676   9.526  18.450  0.00  0.00    +0.000 C 
ATOM     26  O   UNL     1       7.679   8.962  17.606  0.00  0.00    +0.000 OA
ENDBRANCH  24  26
ENDBRANCH  23  24
ENDBRANCH   1  23
TORSDOF 5
ENDMDL
MODEL 3
REMARK VINA RESULT:      -7.9      3.117      4.784
REMARK  Name = 
REMARK  6 active torsions:
REMARK  status: ('A' for Active; 'I' for Inactive)
REMARK    1  A    between atoms: C_1  and  O_2
REMARK    2  A    between atoms: O_2  and  C_3
REMARK    3  A    between atoms: C_3  and  C_4
REMARK    4  A    between atoms: C_4  and  N_5
REMARK    5  A    between atoms: C_12  and  C_13
REMARK    6  A    between atoms: C_18  and  C_19
REMARK                            x       y       z     vdW  Elec       q    Type
REMARK                         _______ _______ _______ _____ _____    ______ ____
ROOT
ATOM      1  N   UNL     1       3.429   4.147  20.105  0.00  0.00    +0.000 N 
ATOM      2  C   UNL     1       4.238   3.037  19.998  0.00  0.00    +0.000 A 
ATOM      3  O   UNL     1       4.206   2.069  20.753  0.00  0.00    +0.000 OA
ATOM      4  N   UNL     1       5.130   3.039  18.968  0.00  0.00    +0.000 N 
ATOM      5  C   UNL     1       5.071   3.865  17.883  0.00  0.00    +0.000 A 
ATOM      6  O   UNL     1       5.568   3.525  16.823  0.00  0.00    +0.000 OA
ATOM      7  C   UNL     1       4.334   5.129  18.057  0.00  0.00    +0.000 A 
ATOM      8  C   UNL     1       4.366   6.203  17.152  0.00  0.00    +0.000 A 
ATOM      9  C   UNL     1       3.546   7.315  17.431  0.00  0.00    +0.000 A 
ATOM     10  C   UNL     1       2.746   7.337  18.562  0.00  0.00    +0.000 A 
ATOM     11  N   UNL     1       2.760   6.326  19.455  0.00  0.00    +0.000 NA
ATOM     12  C   UNL     1       3.520   5.230  19.191  0.00  0.00    +0.000 A 
ATOM     13  H   UNL     1       5.617   2.164  18.834  0.00  0.00    +0.000 HD
ENDROOT
BRANCH  10  14
ATOM     14  C   UNL     1       1.802   8.423  18.854  0.00  0.00    +0.000 A 
ATOM     15  C   UNL     1       1.274   9.375  17.999  0.00  0.00    +0.000 A 
ATOM     16  C   UNL     1       0.399  10.290  18.659  0.00  0.00    +0.000 A 
ATOM     17  C   UNL     1       0.296  10.024  20.005  0.00  0.00    +0.000 A 
ATOM     18  S   UNL     1       1.245   8.684  20.464  0.00  0.00    +0.000 S 
ENDBRANCH  10  14
BRANCH   8  19
ATOM     19  C   UNL     1       5.152   6.320  15.869  0.00  0.00    +0.000 C 
ATOM     20  F   UNL     1       5.115   5.310  14.977  0.00  0.00    +0.000 F 
ATOM     21  F   UNL     1       4.798   7.448  15.184  0.00  0.00    +0.000 F 
ATOM     22  F   UNL     1       6.483   6.483  16.143  0.00  0.00    +0.000 F 
ENDBRANCH   8  19
BRANCH   1  23
ATOM     23  C   UNL     1       2.414   4.186  21.164  0.00  0.00    +0.000 C 
BRANCH  23  24
ATOM     24  C   UNL     1       1.178   3.316  20.899  0.00  0.00    +0.000 C 
BRANCH  24  26
ATOM     25  C   UNL     1       0.773   2.301  18.814  0.00  0.00    +0.000 C 
ATOM     26  O   UNL     1       0.704   3.508  19.564  0.00  0.00    +0.000 OA
ENDBRANCH  24  26
ENDBRANCH  23  24
ENDBRANCH   1  23
TORSDOF 5
ENDMDL
MODEL 4
REMARK VINA RESULT:      -7.9      0.975      1.023
REMARK  Name = 
REMARK  6 active torsions:
REMARK  status: ('A' for Active; 'I' for Inactive)
REMARK    1  A    between atoms: C_1  and  O_2
REMARK    2  A    between atoms: O_2  and  C_3
REMARK    3  A    between atoms: C_3  and  C_4
REMARK    4  A    between atoms: C_4  and  N_5
REMARK    5  A    between atoms: C_12  and  C_13
REMARK    6  A    between atoms: C_18  and  C_19
REMARK                            x       y       z     vdW  Elec       q    Type
REMARK                         _______ _______ _______ _____ _____    ______ ____
ROOT
ATOM      1  N   UNL     1       5.113   5.381  16.993  0.00  0.00    +0.000 N 
ATOM      2  C   UNL     1       5.687   4.224  16.515  0.00  0.00    +0.000 A 
ATOM      3  O   UNL     1       6.718   4.173  15.849  0.00  0.00    +0.000 OA
ATOM      4  N   UNL     1       5.043   3.062  16.819  0.00  0.00    +0.000 N 
ATOM      5  C   UNL     1       4.097   2.923  17.792  0.00  0.00    +0.000 A 
ATOM      6  O   UNL     1       3.916   1.842  18.325  0.00  0.00    +0.000 OA
ATOM      7  C   UNL     1       3.374   4.145  18.187  0.00  0.00    +0.000 A 
ATOM      8  C   UNL     1       2.216   4.166  18.981  0.00  0.00    +0.000 A 
ATOM      9  C   UNL     1       1.686   5.426  19.328  0.00  0.00    +0.000 A 
ATOM     10  C   UNL     1       2.293   6.592  18.890  0.00  0.00    +0.000 A 
ATOM     11  N   UNL     1       3.373   6.565  18.084  0.00  0.00    +0.000 NA
ATOM     12  C   UNL     1       3.919   5.362  17.761  0.00  0.00    +0.000 A 
ATOM     13  H   UNL     1       5.550   2.224  16.570  0.00  0.00    +0.000 HD
ENDROOT
BRANCH  10  14
ATOM     14  C   UNL     1       1.844   7.929  19.298  0.00  0.00    +0.000 A 
ATOM     15  C   UNL     1       1.432   8.371  20.543  0.00  0.00    +0.000 A 
ATOM     16  C   UNL     1       1.043   9.745  20.545  0.00  0.00    +0.000 A 
ATOM     17  C   UNL     1       1.151  10.312  19.296  0.00  0.00    +0.000 A 
ATOM     18  S   UNL     1       1.716   9.196  18.137  0.00  0.00    +0.000 S 
ENDBRANCH  10  14
BRANCH   8  19
ATOM     19  C   UNL     1       1.458   2.996  19.561  0.00  0.00    +0.000 C 
ATOM     20  F   UNL     1       0.988   2.039  18.735  0.00  0.00    +0.000 F 
ATOM     21  F   UNL     1       2.207   2.353  20.505  0.00  0.00    +0.000 F 
ATOM     22  F   UNL     1       0.352   3.437  20.235  0.00  0.00    +0.000 F 
ENDBRANCH   8  19
BRANCH   1  23
ATOM     23  C   UNL     1       5.783   6.662  16.742  0.00  0.00    +0.000 C 
BRANCH  23  24
ATOM     24  C   UNL     1       7.008   6.930  17.628  0.00  0.00    +0.000 C 
BRANCH  24  26
ATOM     25  C   UNL     1       8.154   8.953  17.995  0.00  0.00    +0.000 C 
ATOM     26  O   UNL     1       7.836   7.941  17.047  0.00  0.00    +0.000 OA
ENDBRANCH  24  26
ENDBRANCH  23  24
ENDBRANCH   1  23
TORSDOF 5
ENDMDL
MODEL 5
REMARK VINA RESULT:      -7.8      1.218      1.582
REMARK  Name = 
REMARK  6 active torsions:
REMARK  status: ('A' for Active; 'I' for Inactive)
REMARK    1  A    between atoms: C_1  and  O_2
REMARK    2  A    between atoms: O_2  and  C_3
REMARK    3  A    between atoms: C_3  and  C_4
REMARK    4  A    between atoms: C_4  and  N_5
REMARK    5  A    between atoms: C_12  and  C_13
REMARK    6  A    between atoms: C_18  and  C_19
REMARK                            x       y       z     vdW  Elec       q    Type
REMARK                         _______ _______ _______ _____ _____    ______ ____
ROOT
ATOM      1  N   UNL     1       5.159   5.365  16.855  0.00  0.00    +0.000 N 
ATOM      2  C   UNL     1       5.706   4.143  16.531  0.00  0.00    +0.000 A 
ATOM      3  O   UNL     1       6.747   3.984  15.899  0.00  0.00    +0.000 OA
ATOM      4  N   UNL     1       5.021   3.045  16.956  0.00  0.00    +0.000 N 
ATOM      5  C   UNL     1       4.052   3.050  17.918  0.00  0.00    +0.000 A 
ATOM      6  O   UNL     1       3.828   2.046  18.571  0.00  0.00    +0.000 OA
ATOM      7  C   UNL     1       3.360   4.330  18.148  0.00  0.00    +0.000 A 
ATOM      8  C   UNL     1       2.189   4.480  18.908  0.00  0.00    +0.000 A 
ATOM      9  C   UNL     1       1.692   5.787  19.091  0.00  0.00    +0.000 A 
ATOM     10  C   UNL     1       2.343   6.874  18.531  0.00  0.00    +0.000 A 
ATOM     11  N   UNL     1       3.436   6.720  17.758  0.00  0.00    +0.000 NA
ATOM     12  C   UNL     1       3.951   5.472  17.593  0.00  0.00    +0.000 A 
ATOM     13  H   UNL     1       5.506   2.169  16.820  0.00  0.00    +0.000 HD
ENDROOT
BRANCH  10  14
ATOM     14  C   UNL     1       1.927   8.262  18.767  0.00  0.00    +0.000 A 
ATOM     15  C   UNL     1       2.017   9.356  17.923  0.00  0.00    +0.000 A 
ATOM     16  C   UNL     1       1.526  10.558  18.518  0.00  0.00    +0.000 A 
ATOM     17  C   UNL     1       1.092  10.354  19.807  0.00  0.00    +0.000 A 
ATOM     18  S   UNL     1       1.274   8.730  20.291  0.00  0.00    +0.000 S 
ENDBRANCH  10  14
BRANCH   8  19
ATOM     19  C   UNL     1       1.385   3.409  19.606  0.00  0.00    +0.000 C 
ATOM     20  F   UNL     1       1.996   2.596  20.492  0.00  0.00    +0.000 F 
ATOM     21  F   UNL     1       0.316   3.953  20.260  0.00  0.00    +0.000 F 
ATOM     22  F   UNL     1       0.835   2.557  18.687  0.00  0.00    +0.000 F 
ENDBRANCH   8  19
BRANCH   1  23
ATOM     23  C   UNL     1       5.872   6.587  16.468  0.00  0.00    +0.000 C 
BRANCH  23  24
ATOM     24  C   UNL     1       6.965   7.031  17.452  0.00  0.00    +0.000 C 
BRANCH  24  26
ATOM     25  C   UNL     1       8.252   8.899  18.083  0.00  0.00    +0.000 C 
ATOM     26  O   UNL     1       7.565   8.254  17.017  0.00  0.00    +0.000 OA
ENDBRANCH  24  26
ENDBRANCH  23  24
ENDBRANCH   1  23
TORSDOF 5
ENDMDL
MODEL 6
REMARK VINA RESULT:      -7.3      3.077      4.746
REMARK  Name = 
REMARK  6 active torsions:
REMARK  status: ('A' for Active; 'I' for Inactive)
REMARK    1  A    between atoms: C_1  and  O_2
REMARK    2  A    between atoms: O_2  and  C_3
REMARK    3  A    between atoms: C_3  and  C_4
REMARK    4  A    between atoms: C_4  and  N_5
REMARK    5  A    between atoms: C_12  and  C_13
REMARK    6  A    between atoms: C_18  and  C_19
REMARK                            x       y       z     vdW  Elec       q    Type
REMARK                         _______ _______ _______ _____ _____    ______ ____
ROOT
ATOM      1  N   UNL     1       2.375   3.582  18.430  0.00  0.00    +0.000 N 
ATOM      2  C   UNL     1       2.995   2.384  18.155  0.00  0.00    +0.000 A 
ATOM      3  O   UNL     1       2.505   1.276  18.355  0.00  0.00    +0.000 OA
ATOM      4  N   UNL     1       4.246   2.462  17.622  0.00  0.00    +0.000 N 
ATOM      5  C   UNL     1       4.787   3.580  17.054  0.00  0.00    +0.000 A 
ATOM      6  O   UNL     1       5.658   3.480  16.208  0.00  0.00    +0.000 OA
ATOM      7  C   UNL     1       4.220   4.872  17.477  0.00  0.00    +0.000 A 
ATOM      8  C   UNL     1       4.792   6.124  17.198  0.00  0.00    +0.000 A 
ATOM      9  C   UNL     1       4.084   7.271  17.613  0.00  0.00    +0.000 A 
ATOM     10  C   UNL     1       2.873   7.152  18.274  0.00  0.00    +0.000 A 
ATOM     11  N   UNL     1       2.354   5.947  18.586  0.00  0.00    +0.000 NA
ATOM     12  C   UNL     1       3.004   4.828  18.169  0.00  0.00    +0.000 A 
ATOM     13  H   UNL     1       4.625   1.578  17.310  0.00  0.00    +0.000 HD
ENDROOT
BRANCH  10  14
ATOM     14  C   UNL     1       2.047   8.308  18.643  0.00  0.00    +0.000 A 
ATOM     15  C   UNL     1       1.682   9.403  17.878  0.00  0.00    +0.000 A 
ATOM     16  C   UNL     1       0.883  10.343  18.597  0.00  0.00    +0.000 A 
ATOM     17  C   UNL     1       0.674   9.951  19.899  0.00  0.00    +0.000 A 
ATOM     18  S   UNL     1       1.433   8.464  20.246  0.00  0.00    +0.000 S 
ENDBRANCH  10  14
BRANCH   8  19
ATOM     19  C   UNL     1       6.078   6.422  16.465  0.00  0.00    +0.000 C 
ATOM     20  F   UNL     1       7.190   5.726  16.774  0.00  0.00    +0.000 F 
ATOM     21  F   UNL     1       5.908   6.294  15.116  0.00  0.00    +0.000 F 
ATOM     22  F   UNL     1       6.434   7.731  16.649  0.00  0.00    +0.000 F 
ENDBRANCH   8  19
BRANCH   1  23
ATOM     23  C   UNL     1       1.008   3.568  18.962  0.00  0.00    +0.000 C 
BRANCH  23  24
ATOM     24  C   UNL     1       0.901   3.874  20.463  0.00  0.00    +0.000 C 
BRANCH  24  26
ATOM     25  C   UNL     1       2.415   2.659  21.795  0.00  0.00    +0.000 C 
ATOM     26  O   UNL     1       1.108   2.687  21.234  0.00  0.00    +0.000 OA
ENDBRANCH  24  26
ENDBRANCH  23  24
ENDBRANCH   1  23
TORSDOF 5
ENDMDL
MODEL 7
REMARK VINA RESULT:      -7.3      1.387      1.765
REMARK  Name = 
REMARK  6 active torsions:
REMARK  status: ('A' for Active; 'I' for Inactive)
REMARK    1  A    between atoms: C_1  and  O_2
REMARK    2  A    between atoms: O_2  and  C_3
REMARK    3  A    between atoms: C_3  and  C_4
REMARK    4  A    between atoms: C_4  and  N_5
REMARK    5  A    between atoms: C_12  and  C_13
REMARK    6  A    between atoms: C_18  and  C_19
REMARK                            x       y       z     vdW  Elec       q    Type
REMARK                         _______ _______ _______ _____ _____    ______ ____
ROOT
ATOM      1  N   UNL     1       5.684   5.632  18.301  0.00  0.00    +0.000 N 
ATOM      2  C   UNL     1       6.439   4.480  18.265  0.00  0.00    +0.000 A 
ATOM      3  O   UNL     1       7.584   4.404  17.828  0.00  0.00    +0.000 OA
ATOM      4  N   UNL     1       5.847   3.356  18.757  0.00  0.00    +0.000 N 
ATOM      5  C   UNL     1       4.737   3.340  19.552  0.00  0.00    +0.000 A 
ATOM      6  O   UNL     1       4.543   2.413  20.320  0.00  0.00    +0.000 OA
ATOM      7  C   UNL     1       3.848   4.511  19.465  0.00  0.00    +0.000 A 
ATOM      8  C   UNL     1       2.555   4.575  20.009  0.00  0.00    +0.000 A 
ATOM      9  C   UNL     1       1.861   5.798  19.901  0.00  0.00    +0.000 A 
ATOM     10  C   UNL     1       2.443   6.887  19.274  0.00  0.00    +0.000 A 
ATOM     11  N   UNL     1       3.663   6.804  18.706  0.00  0.00    +0.000 NA
ATOM     12  C   UNL     1       4.364   5.645  18.825  0.00  0.00    +0.000 A 
ATOM     13  H   UNL     1       6.463   2.560  18.839  0.00  0.00    +0.000 HD
ENDROOT
BRANCH  10  14
ATOM     14  C   UNL     1       1.809   8.209  19.216  0.00  0.00    +0.000 A 
ATOM     15  C   UNL     1       1.731   9.096  18.155  0.00  0.00    +0.000 A 
ATOM     16  C   UNL     1       1.048  10.304  18.489  0.00  0.00    +0.000 A 
ATOM     17  C   UNL     1       0.639  10.317  19.803  0.00  0.00    +0.000 A 
ATOM     18  S   UNL     1       1.074   8.886  20.620  0.00  0.00    +0.000 S 
ENDBRANCH  10  14
BRANCH   8  19
ATOM     19  C   UNL     1       1.797   3.497  20.746  0.00  0.00    +0.000 C 
ATOM     20  F   UNL     1       1.763   2.248  20.237  0.00  0.00    +0.000 F 
ATOM     21  F   UNL     1       2.250   3.374  22.028  0.00  0.00    +0.000 F 
ATOM     22  F   UNL     1       0.481   3.848  20.874  0.00  0.00    +0.000 F 
ENDBRANCH   8  19
BRANCH   1  23
ATOM     23  C   UNL     1       6.279   6.886  17.830  0.00  0.00    +0.000 C 
BRANCH  23  24
ATOM     24  C   UNL     1       6.548   6.940  16.319  0.00  0.00    +0.000 C 
BRANCH  24  26
ATOM     25  C   UNL     1       5.635   5.338  14.855  0.00  0.00    +0.000 C 
ATOM     26  O   UNL     1       5.389   6.532  15.587  0.00  0.00    +0.000 OA
ENDBRANCH  24  26
ENDBRANCH  23  24
ENDBRANCH   1  23
TORSDOF 5
ENDMDL
MODEL 8
REMARK VINA RESULT:      -7.3      1.172      1.276
REMARK  Name = 
REMARK  6 active torsions:
REMARK  status: ('A' for Active; 'I' for Inactive)
REMARK    1  A    between atoms: C_1  and  O_2
REMARK    2  A    between atoms: O_2  and  C_3
REMARK    3  A    between atoms: C_3  and  C_4
REMARK    4  A    between atoms: C_4  and  N_5
REMARK    5  A    between atoms: C_12  and  C_13
REMARK    6  A    between atoms: C_18  and  C_19
REMARK                            x       y       z     vdW  Elec       q    Type
REMARK                         _______ _______ _______ _____ _____    ______ ____
ROOT
ATOM      1  N   UNL     1       5.517   5.517  18.654  0.00  0.00    +0.000 N 
ATOM      2  C   UNL     1       6.269   4.388  18.415  0.00  0.00    +0.000 A 
ATOM      3  O   UNL     1       7.410   4.387  17.961  0.00  0.00    +0.000 OA
ATOM      4  N   UNL     1       5.680   3.197  18.714  0.00  0.00    +0.000 N 
ATOM      5  C   UNL     1       4.577   3.045  19.504  0.00  0.00    +0.000 A 
ATOM      6  O   UNL     1       4.388   2.001  20.104  0.00  0.00    +0.000 OA
ATOM      7  C   UNL     1       3.690   4.214  19.626  0.00  0.00    +0.000 A 
ATOM      8  C   UNL     1       2.401   4.185  20.185  0.00  0.00    +0.000 A 
ATOM      9  C   UNL     1       1.709   5.408  20.294  0.00  0.00    +0.000 A 
ATOM     10  C   UNL     1       2.288   6.588  19.856  0.00  0.00    +0.000 A 
ATOM     11  N   UNL     1       3.503   6.604  19.271  0.00  0.00    +0.000 NA
ATOM     12  C   UNL     1       4.202   5.441  19.185  0.00  0.00    +0.000 A 
ATOM     13  H   UNL     1       6.295   2.397  18.653  0.00  0.00    +0.000 HD
ENDROOT
BRANCH  10  14
ATOM     14  C   UNL     1       1.656   7.901  20.030  0.00  0.00    +0.000 A 
ATOM     15  C   UNL     1       1.014   8.423  21.141  0.00  0.00    +0.000 A 
ATOM     16  C   UNL     1       0.501   9.737  20.921  0.00  0.00    +0.000 A 
ATOM     17  C   UNL     1       0.749  10.178  19.642  0.00  0.00    +0.000 A 
ATOM     18  S   UNL     1       1.591   9.018  18.719  0.00  0.00    +0.000 S 
ENDBRANCH  10  14
BRANCH   8  19
ATOM     19  C   UNL     1       1.648   2.997  20.734  0.00  0.00    +0.000 C 
ATOM     20  F   UNL     1       1.610   1.853  20.021  0.00  0.00    +0.000 F 
ATOM     21  F   UNL     1       2.110   2.659  21.974  0.00  0.00    +0.000 F 
ATOM     22  F   UNL     1       0.333   3.321  20.928  0.00  0.00    +0.000 F 
ENDBRANCH   8  19
BRANCH   1  23
ATOM     23  C   UNL     1       6.111   6.833  18.398  0.00  0.00    +0.000 C 
BRANCH  23  24
ATOM     24  C   UNL     1       6.398   7.130  16.919  0.00  0.00    +0.000 C 
BRANCH  24  26
ATOM     25  C   UNL     1       8.043   8.590  17.762  0.00  0.00    +0.000 C 
ATOM     26  O   UNL     1       7.727   7.633  16.757  0.00  0.00    +0.000 OA
ENDBRANCH  24  26
ENDBRANCH  23  24
ENDBRANCH   1  23
TORSDOF 5
ENDMDL
MODEL 9
REMARK VINA RESULT:      -7.1      3.026      5.417
REMARK  Name = 
REMARK  6 active torsions:
REMARK  status: ('A' for Active; 'I' for Inactive)
REMARK    1  A    between atoms: C_1  and  O_2
REMARK    2  A    between atoms: O_2  and  C_3
REMARK    3  A    between atoms: C_3  and  C_4
REMARK    4  A    between atoms: C_4  and  N_5
REMARK    5  A    between atoms: C_12  and  C_13
REMARK    6  A    between atoms: C_18  and  C_19
REMARK                            x       y       z     vdW  Elec       q    Type
REMARK                         _______ _______ _______ _____ _____    ______ ____
ROOT
ATOM      1  N   UNL     1       2.787   7.041  18.927  0.00  0.00    +0.000 N 
ATOM      2  C   UNL     1       1.998   7.221  20.041  0.00  0.00    +0.000 A 
ATOM      3  O   UNL     1       1.560   8.302  20.424  0.00  0.00    +0.000 OA
ATOM      4  N   UNL     1       1.695   6.099  20.752  0.00  0.00    +0.000 N 
ATOM      5  C   UNL     1       1.828   4.821  20.292  0.00  0.00    +0.000 A 
ATOM      6  O   UNL     1       1.132   3.928  20.745  0.00  0.00    +0.000 OA
ATOM      7  C   UNL     1       2.796   4.611  19.202  0.00  0.00    +0.000 A 
ATOM      8  C   UNL     1       3.248   3.355  18.766  0.00  0.00    +0.000 A 
ATOM      9  C   UNL     1       4.123   3.324  17.660  0.00  0.00    +0.000 A 
ATOM     10  C   UNL     1       4.518   4.498  17.040  0.00  0.00    +0.000 A 
ATOM     11  N   UNL     1       4.124   5.704  17.496  0.00  0.00    +0.000 NA
ATOM     12  C   UNL     1       3.256   5.757  18.541  0.00  0.00    +0.000 A 
ATOM     13  H   UNL     1       1.012   6.239  21.484  0.00  0.00    +0.000 HD
ENDROOT
BRANCH  10  14
ATOM     14  C   UNL     1       5.348   4.522  15.829  0.00  0.00    +0.000 A 
ATOM     15  C   UNL     1       5.087   3.988  14.579  0.00  0.00    +0.000 A 
ATOM     16  C   UNL     1       6.153   4.194  13.653  0.00  0.00    +0.000 A 
ATOM     17  C   UNL     1       7.210   4.865  14.225  0.00  0.00    +0.000 A 
ATOM     18  S   UNL     1       6.914   5.241  15.862  0.00  0.00    +0.000 S 
ENDBRANCH  10  14
BRANCH   8  19
ATOM     19  C   UNL     1       2.889   1.993  19.309  0.00  0.00    +0.000 C 
ATOM     20  F   UNL     1       1.599   1.599  19.305  0.00  0.00    +0.000 F 
ATOM     21  F   UNL     1       3.590   1.013  18.665  0.00  0.00    +0.000 F 
ATOM     22  F   UNL     1       3.272   1.891  20.619  0.00  0.00    +0.000 F 
ENDBRANCH   8  19
BRANCH   1  23
ATOM     23  C   UNL     1       3.111   8.202  18.091  0.00  0.00    +0.000 C 
BRANCH  23  24
ATOM     24  C   UNL     1       1.897   9.033  17.650  0.00  0.00    +0.000 C 
BRANCH  24  26
ATOM     25  C   UNL     1       1.390  11.129  18.597  0.00  0.00    +0.000 C 
ATOM     26  O   UNL     1       2.211  10.428  17.669  0.00  0.00    +0.000 OA
ENDBRANCH  24  26
ENDBRANCH  23  24
ENDBRANCH   1  23
TORSDOF 5
ENDMDL
