MODEL 1
REMARK VINA RESULT:      -6.0      0.000      0.000
REMARK  Name = 
REMARK  5 active torsions:
REMARK  status: ('A' for Active; 'I' for Inactive)
REMARK    1  A    between atoms: C_2  and  C_3
REMARK    2  A    between atoms: C_2  and  C_12
REMARK    3  A    between atoms: C_3  and  N_4
REMARK    4  A    between atoms: N_4  and  C_5
REMARK    5  A    between atoms: C_5  and  C_6
REMARK                            x       y       z     vdW  Elec       q    Type
REMARK                         _______ _______ _______ _____ _____    ______ ____
ROOT
ATOM      1  N   UNL     1       3.557   3.515  16.888  0.00  0.00    +0.000 NA
ATOM      2  H   UNL     1       3.284   3.225  15.947  0.00  0.00    +0.000 HD
ENDROOT
BRANCH   1   3
ATOM      3  C   UNL     1       4.883   4.128  16.848  0.00  0.00    +0.000 C 
BRANCH   3   5
ATOM      4  S   UNL     1       6.131   6.579  17.255  0.00  0.00    +0.000 S 
ATOM      5  C   UNL     1       4.783   5.565  17.351  0.00  0.00    +0.000 C 
BRANCH   5   6
ATOM      6  C   UNL     1       3.468   6.106  17.916  0.00  0.00    +0.000 C 
ATOM      7  C   UNL     1       3.392   6.088  19.439  0.00  0.00    +0.000 C 
ATOM      8  C   UNL     1       2.246   7.038  19.758  0.00  0.00    +0.000 C 
ATOM      9  C   UNL     1       2.224   8.064  18.628  0.00  0.00    +0.000 C 
ATOM     10  C   UNL     1       3.212   7.573  17.573  0.00  0.00    +0.000 C 
ENDBRANCH   5   6
ENDBRANCH   3   5
ENDBRANCH   1   3
BRANCH   1  11
ATOM     11  C   UNL     1       3.554   2.342  17.763  0.00  0.00    +0.000 C 
BRANCH  11  12
ATOM     12  C   UNL     1       2.793   2.653  19.024  0.00  0.00    +0.000 A 
ATOM     13  C   UNL     1       3.404   2.512  20.279  0.00  0.00    +0.000 A 
ATOM     14  C   UNL     1       2.670   2.704  21.447  0.00  0.00    +0.000 A 
ATOM     15  C   UNL     1       1.319   3.046  21.373  0.00  0.00    +0.000 A 
ATOM     16  C   UNL     1       0.703   3.203  20.132  0.00  0.00    +0.000 A 
ATOM     17  C   UNL     1       1.435   3.003  18.961  0.00  0.00    +0.000 A 
ENDBRANCH  11  12
ENDBRANCH   1  11
TORSDOF 5
ENDMDL
MODEL 2
REMARK VINA RESULT:      -5.9      0.739      1.726
REMARK  Name = 
REMARK  5 active torsions:
REMARK  status: ('A' for Active; 'I' for Inactive)
REMARK    1  A    between atoms: C_2  and  C_3
REMARK    2  A    between atoms: C_2  and  C_12
REMARK    3  A    between atoms: C_3  and  N_4
REMARK    4  A    between atoms: N_4  and  C_5
REMARK    5  A    between atoms: C_5  and  C_6
REMARK                            x       y       z     vdW  Elec       q    Type
REMARK                         _______ _______ _______ _____ _____    ______ ____
ROOT
ATOM      1  N   UNL     1       4.577   2.665  17.623  0.00  0.00    +0.000 NA
ATOM      2  H   UNL     1       5.066   2.845  18.502  0.00  0.00    +0.000 HD
ENDROOT
BRANCH   1   3
ATOM      3  C   UNL     1       4.114   3.927  17.051  0.00  0.00    +0.000 C 
BRANCH   3   5
ATOM      4  S   UNL     1       6.641   5.002  17.487  0.00  0.00    +0.000 S 
ATOM      5  C   UNL     1       4.957   5.067  17.616  0.00  0.00    +0.000 C 
BRANCH   5   6
ATOM      6  C   UNL     1       4.295   6.281  18.271  0.00  0.00    +0.000 C 
ATOM      7  C   UNL     1       3.552   7.186  17.293  0.00  0.00    +0.000 C 
ATOM      8  C   UNL     1       2.649   8.024  18.188  0.00  0.00    +0.000 C 
ATOM      9  C   UNL     1       2.332   7.151  19.400  0.00  0.00    +0.000 C 
ATOM     10  C   UNL     1       3.218   5.914  19.291  0.00  0.00    +0.000 C 
ENDBRANCH   5   6
ENDBRANCH   3   5
ENDBRANCH   1   3
BRANCH   1  11
ATOM     11  C   UNL     1       3.450   1.769  17.885  0.00  0.00    +0.000 C 
BRANCH  11  12
ATOM     12  C   UNL     1       2.682   2.260  19.084  0.00  0.00    +0.000 A 
ATOM     13  C   UNL     1       1.352   2.686  18.954  0.00  0.00    +0.000 A 
ATOM     14  C   UNL     1       0.676   3.231  20.042  0.00  0.00    +0.000 A 
ATOM     15  C   UNL     1       1.320   3.350  21.275  0.00  0.00    +0.000 A 
ATOM     16  C   UNL     1       2.637   2.916  21.421  0.00  0.00    +0.000 A 
ATOM     17  C   UNL     1       3.318   2.377  20.330  0.00  0.00    +0.000 A 
ENDBRANCH  11  12
ENDBRANCH   1  11
TORSDOF 5
ENDMDL
MODEL 3
REMARK VINA RESULT:      -5.9      2.095      3.390
REMARK  Name = 
REMARK  5 active torsions:
REMARK  status: ('A' for Active; 'I' for Inactive)
REMARK    1  A    between atoms: C_2  and  C_3
REMARK    2  A    between atoms: C_2  and  C_12
REMARK    3  A    between atoms: C_3  and  N_4
REMARK    4  A    between atoms: N_4  and  C_5
REMARK    5  A    between atoms: C_5  and  C_6
REMARK                            x       y       z     vdW  Elec       q    Type
REMARK                         _______ _______ _______ _____ _____    ______ ____
ROOT
ATOM      1  N   UNL     1       3.743   4.139  16.651  0.00  0.00    +0.000 NA
ATOM      2  H   UNL     1       3.038   3.399  16.653  0.00  0.00    +0.000 HD
ENDROOT
BRANCH   1   3
ATOM      3  C   UNL     1       5.055   3.569  16.948  0.00  0.00    +0.000 C 
BRANCH   3   5
ATOM      4  S   UNL     1       6.133   4.142  14.449  0.00  0.00    +0.000 S 
ATOM      5  C   UNL     1       6.113   4.306  16.131  0.00  0.00    +0.000 C 
BRANCH   5   6
ATOM      6  C   UNL     1       7.138   5.213  16.815  0.00  0.00    +0.000 C 
ATOM      7  C   UNL     1       6.764   6.692  16.802  0.00  0.00    +0.000 C 
ATOM      8  C   UNL     1       7.657   7.302  17.874  0.00  0.00    +0.000 C 
ATOM      9  C   UNL     1       7.899   6.196  18.898  0.00  0.00    +0.000 C 
ATOM     10  C   UNL     1       7.324   4.915  18.302  0.00  0.00    +0.000 C 
ENDBRANCH   5   6
ENDBRANCH   3   5
ENDBRANCH   1   3
BRANCH   1  11
ATOM     11  C   UNL     1       3.375   5.142  17.651  0.00  0.00    +0.000 C 
BRANCH  11  12
ATOM     12  C   UNL     1       2.646   4.479  18.789  0.00  0.00    +0.000 A 
ATOM     13  C   UNL     1       1.631   3.545  18.539  0.00  0.00    +0.000 A 
ATOM     14  C   UNL     1       0.891   3.007  19.589  0.00  0.00    +0.000 A 
ATOM     15  C   UNL     1       1.163   3.393  20.902  0.00  0.00    +0.000 A 
ATOM     16  C   UNL     1       2.179   4.310  21.167  0.00  0.00    +0.000 A 
ATOM     17  C   UNL     1       2.916   4.855  20.115  0.00  0.00    +0.000 A 
ENDBRANCH  11  12
ENDBRANCH   1  11
TORSDOF 5
ENDMDL
MODEL 4
REMARK VINA RESULT:      -5.9      1.997      3.415
REMARK  Name = 
REMARK  5 active torsions:
REMARK  status: ('A' for Active; 'I' for Inactive)
REMARK    1  A    between atoms: C_2  and  C_3
REMARK    2  A    between atoms: C_2  and  C_12
REMARK    3  A    between atoms: C_3  and  N_4
REMARK    4  A    between atoms: N_4  and  C_5
REMARK    5  A    between atoms: C_5  and  C_6
REMARK                            x       y       z     vdW  Elec       q    Type
REMARK                         _______ _______ _______ _____ _____    ______ ____
ROOT
ATOM      1  N   UNL     1       5.428   3.236  18.941  0.00  0.00    +0.000 NA
ATOM      2  H   UNL     1       6.378   2.859  18.899  0.00  0.00    +0.000 HD
ENDROOT
BRANCH   1   3
ATOM      3  C   UNL     1       5.482   4.681  19.151  0.00  0.00    +0.000 C 
BRANCH   3   5
ATOM      4  S   UNL     1       3.300   6.181  18.305  0.00  0.00    +0.000 S 
ATOM      5  C   UNL     1       4.755   5.377  18.004  0.00  0.00    +0.000 C 
BRANCH   5   6
ATOM      6  C   UNL     1       5.343   5.380  16.592  0.00  0.00    +0.000 C 
ATOM      7  C   UNL     1       6.867   5.327  16.553  0.00  0.00    +0.000 C 
ATOM      8  C   UNL     1       7.181   4.905  15.125  0.00  0.00    +0.000 C 
ATOM      9  C   UNL     1       5.999   4.052  14.670  0.00  0.00    +0.000 C 
ATOM     10  C   UNL     1       4.933   4.169  15.755  0.00  0.00    +0.000 C 
ENDBRANCH   5   6
ENDBRANCH   3   5
ENDBRANCH   1   3
BRANCH   1  11
ATOM     11  C   UNL     1       4.708   2.579  20.032  0.00  0.00    +0.000 C 
BRANCH  11  12
ATOM     12  C   UNL     1       3.227   2.788  19.858  0.00  0.00    +0.000 A 
ATOM     13  C   UNL     1       2.471   3.409  20.862  0.00  0.00    +0.000 A 
ATOM     14  C   UNL     1       1.087   3.513  20.743  0.00  0.00    +0.000 A 
ATOM     15  C   UNL     1       0.445   3.001  19.615  0.00  0.00    +0.000 A 
ATOM     16  C   UNL     1       1.186   2.394  18.602  0.00  0.00    +0.000 A 
ATOM     17  C   UNL     1       2.571   2.283  18.724  0.00  0.00    +0.000 A 
ENDBRANCH  11  12
ENDBRANCH   1  11
TORSDOF 5
ENDMDL
MODEL 5
REMARK VINA RESULT:      -5.9      0.953      1.538
REMARK  Name = 
REMARK  5 active torsions:
REMARK  status: ('A' for Active; 'I' for Inactive)
REMARK    1  A    between atoms: C_2  and  C_3
REMARK    2  A    between atoms: C_2  and  C_12
REMARK    3  A    between atoms: C_3  and  N_4
REMARK    4  A    between atoms: N_4  and  C_5
REMARK    5  A    between atoms: C_5  and  C_6
REMARK                            x       y       z     vdW  Elec       q    Type
REMARK                         _______ _______ _______ _____ _____    ______ ____
ROOT
ATOM      1  N   UNL     1       5.334   3.338  19.149  0.00  0.00    +0.000 NA
ATOM      2  H   UNL     1       5.033   4.048  19.819  0.00  0.00    +0.000 HD
ENDROOT
BRANCH   1   3
ATOM      3  C   UNL     1       5.104   3.818  17.788  0.00  0.00    +0.000 C 
BRANCH   3   5
ATOM      4  S   UNL     1       6.300   6.314  17.524  0.00  0.00    +0.000 S 
ATOM      5  C   UNL     1       4.953   5.337  17.817  0.00  0.00    +0.000 C 
BRANCH   5   6
ATOM      6  C   UNL     1       3.591   5.983  18.080  0.00  0.00    +0.000 C 
ATOM      7  C   UNL     1       3.248   6.129  19.559  0.00  0.00    +0.000 C 
ATOM      8  C   UNL     1       2.118   7.149  19.571  0.00  0.00    +0.000 C 
ATOM      9  C   UNL     1       2.352   8.050  18.361  0.00  0.00    +0.000 C 
ATOM     10  C   UNL     1       3.481   7.414  17.555  0.00  0.00    +0.000 C 
ENDBRANCH   5   6
ENDBRANCH   3   5
ENDBRANCH   1   3
BRANCH   1  11
ATOM     11  C   UNL     1       4.584   2.106  19.398  0.00  0.00    +0.000 C 
BRANCH  11  12
ATOM     12  C   UNL     1       3.148   2.441  19.701  0.00  0.00    +0.000 A 
ATOM     13  C   UNL     1       2.183   2.428  18.684  0.00  0.00    +0.000 A 
ATOM     14  C   UNL     1       0.876   2.832  18.945  0.00  0.00    +0.000 A 
ATOM     15  C   UNL     1       0.519   3.248  20.229  0.00  0.00    +0.000 A 
ATOM     16  C   UNL     1       1.465   3.252  21.253  0.00  0.00    +0.000 A 
ATOM     17  C   UNL     1       2.776   2.854  20.990  0.00  0.00    +0.000 A 
ENDBRANCH  11  12
ENDBRANCH   1  11
TORSDOF 5
ENDMDL
MODEL 6
REMARK VINA RESULT:      -5.8      1.468      3.210
REMARK  Name = 
REMARK  5 active torsions:
REMARK  status: ('A' for Active; 'I' for Inactive)
REMARK    1  A    between atoms: C_2  and  C_3
REMARK    2  A    between atoms: C_2  and  C_12
REMARK    3  A    between atoms: C_3  and  N_4
REMARK    4  A    between atoms: N_4  and  C_5
REMARK    5  A    between atoms: C_5  and  C_6
REMARK                            x       y       z     vdW  Elec       q    Type
REMARK                         _______ _______ _______ _____ _____    ______ ____
ROOT
ATOM      1  N   UNL     1       3.661   6.347  19.421  0.00  0.00    +0.000 NA
ATOM      2  H   UNL     1       4.174   7.171  19.743  0.00  0.00    +0.000 HD
ENDROOT
BRANCH   1   3
ATOM      3  C   UNL     1       3.638   6.323  17.960  0.00  0.00    +0.000 C 
BRANCH   3   5
ATOM      4  S   UNL     1       6.199   5.798  17.013  0.00  0.00    +0.000 S 
ATOM      5  C   UNL     1       4.650   5.294  17.464  0.00  0.00    +0.000 C 
BRANCH   5   6
ATOM      6  C   UNL     1       4.289   3.809  17.399  0.00  0.00    +0.000 C 
ATOM      7  C   UNL     1       4.500   3.059  18.710  0.00  0.00    +0.000 C 
ATOM      8  C   UNL     1       3.691   1.782  18.534  0.00  0.00    +0.000 C 
ATOM      9  C   UNL     1       2.538   2.141  17.599  0.00  0.00    +0.000 C 
ATOM     10  C   UNL     1       2.816   3.551  17.085  0.00  0.00    +0.000 C 
ENDBRANCH   5   6
ENDBRANCH   3   5
ENDBRANCH   1   3
BRANCH   1  11
ATOM     11  C   UNL     1       2.302   6.398  19.960  0.00  0.00    +0.000 C 
BRANCH  11  12
ATOM     12  C   UNL     1       1.907   5.037  20.469  0.00  0.00    +0.000 A 
ATOM     13  C   UNL     1       2.671   4.394  21.454  0.00  0.00    +0.000 A 
ATOM     14  C   UNL     1       2.362   3.096  21.851  0.00  0.00    +0.000 A 
ATOM     15  C   UNL     1       1.282   2.428  21.273  0.00  0.00    +0.000 A 
ATOM     16  C   UNL     1       0.505   3.061  20.303  0.00  0.00    +0.000 A 
ATOM     17  C   UNL     1       0.819   4.359  19.898  0.00  0.00    +0.000 A 
ENDBRANCH  11  12
ENDBRANCH   1  11
TORSDOF 5
ENDMDL
MODEL 7
REMARK VINA RESULT:      -5.8      2.427      3.926
REMARK  Name = 
REMARK  5 active torsions:
REMARK  status: ('A' for Active; 'I' for Inactive)
REMARK    1  A    between atoms: C_2  and  C_3
REMARK    2  A    between atoms: C_2  and  C_12
REMARK    3  A    between atoms: C_3  and  N_4
REMARK    4  A    between atoms: N_4  and  C_5
REMARK    5  A    between atoms: C_5  and  C_6
REMARK                            x       y       z     vdW  Elec       q    Type
REMARK                         _______ _______ _______ _____ _____    ______ ____
ROOT
ATOM      1  N   UNL     1       6.543   4.693  18.985  0.00  0.00    +0.000 NA
ATOM      2  H   UNL     1       6.820   3.945  19.624  0.00  0.00    +0.000 HD
ENDROOT
BRANCH   1   3
ATOM      3  C   UNL     1       7.611   5.687  18.901  0.00  0.00    +0.000 C 
BRANCH   3   5
ATOM      4  S   UNL     1       7.714   8.177  17.668  0.00  0.00    +0.000 S 
ATOM      5  C   UNL     1       7.422   6.513  17.631  0.00  0.00    +0.000 C 
BRANCH   5   6
ATOM      6  C   UNL     1       6.999   5.848  16.321  0.00  0.00    +0.000 C 
ATOM      7  C   UNL     1       7.121   4.327  16.328  0.00  0.00    +0.000 C 
ATOM      8  C   UNL     1       6.265   3.887  15.149  0.00  0.00    +0.000 C 
ATOM      9  C   UNL     1       5.170   4.942  15.009  0.00  0.00    +0.000 C 
ATOM     10  C   UNL     1       5.531   6.076  15.964  0.00  0.00    +0.000 C 
ENDBRANCH   5   6
ENDBRANCH   3   5
ENDBRANCH   1   3
BRANCH   1  11
ATOM     11  C   UNL     1       5.306   5.301  19.479  0.00  0.00    +0.000 C 
BRANCH  11  12
ATOM     12  C   UNL     1       4.122   4.650  18.814  0.00  0.00    +0.000 A 
ATOM     13  C   UNL     1       4.202   3.331  18.347  0.00  0.00    +0.000 A 
ATOM     14  C   UNL     1       3.140   2.764  17.646  0.00  0.00    +0.000 A 
ATOM     15  C   UNL     1       1.984   3.510  17.410  0.00  0.00    +0.000 A 
ATOM     16  C   UNL     1       1.886   4.818  17.882  0.00  0.00    +0.000 A 
ATOM     17  C   UNL     1       2.952   5.389  18.577  0.00  0.00    +0.000 A 
ENDBRANCH  11  12
ENDBRANCH   1  11
TORSDOF 5
ENDMDL
MODEL 8
REMARK VINA RESULT:      -5.8      2.012      3.767
REMARK  Name = 
REMARK  5 active torsions:
REMARK  status: ('A' for Active; 'I' for Inactive)
REMARK    1  A    between atoms: C_2  and  C_3
REMARK    2  A    between atoms: C_2  and  C_12
REMARK    3  A    between atoms: C_3  and  N_4
REMARK    4  A    between atoms: N_4  and  C_5
REMARK    5  A    between atoms: C_5  and  C_6
REMARK                            x       y       z     vdW  Elec       q    Type
REMARK                         _______ _______ _______ _____ _____    ______ ____
ROOT
ATOM      1  N   UNL     1       4.837   5.528  19.506  0.00  0.00    +0.000 NA
ATOM      2  H   UNL     1       5.380   6.369  19.713  0.00  0.00    +0.000 HD
ENDROOT
BRANCH   1   3
ATOM      3  C   UNL     1       5.613   4.644  18.638  0.00  0.00    +0.000 C 
BRANCH   3   5
ATOM      4  S   UNL     1       7.638   6.506  18.237  0.00  0.00    +0.000 S 
ATOM      5  C   UNL     1       6.417   5.492  17.657  0.00  0.00    +0.000 C 
BRANCH   5   6
ATOM      6  C   UNL     1       6.149   5.415  16.153  0.00  0.00    +0.000 C 
ATOM      7  C   UNL     1       7.362   5.001  15.326  0.00  0.00    +0.000 C 
ATOM      8  C   UNL     1       6.766   4.578  13.991  0.00  0.00    +0.000 C 
ATOM      9  C   UNL     1       5.367   4.052  14.303  0.00  0.00    +0.000 C 
ATOM     10  C   UNL     1       5.098   4.373  15.771  0.00  0.00    +0.000 C 
ENDBRANCH   5   6
ENDBRANCH   3   5
ENDBRANCH   1   3
BRANCH   1  11
ATOM     11  C   UNL     1       3.585   5.921  18.860  0.00  0.00    +0.000 C 
BRANCH  11  12
ATOM     12  C   UNL     1       2.529   4.882  19.127  0.00  0.00    +0.000 A 
ATOM     13  C   UNL     1       2.054   4.665  20.428  0.00  0.00    +0.000 A 
ATOM     14  C   UNL     1       1.150   3.638  20.688  0.00  0.00    +0.000 A 
ATOM     15  C   UNL     1       0.707   2.820  19.648  0.00  0.00    +0.000 A 
ATOM     16  C   UNL     1       1.160   3.034  18.347  0.00  0.00    +0.000 A 
ATOM     17  C   UNL     1       2.071   4.058  18.087  0.00  0.00    +0.000 A 
ENDBRANCH  11  12
ENDBRANCH   1  11
TORSDOF 5
ENDMDL
MODEL 9
REMARK VINA RESULT:      -5.7      1.977      3.800
REMARK  Name = 
REMARK  5 active torsions:
REMARK  status: ('A' for Active; 'I' for Inactive)
REMARK    1  A    between atoms: C_2  and  C_3
REMARK    2  A    between atoms: C_2  and  C_12
REMARK    3  A    between atoms: C_3  and  N_4
REMARK    4  A    between atoms: N_4  and  C_5
REMARK    5  A    between atoms: C_5  and  C_6
REMARK                            x       y       z     vdW  Elec       q    Type
REMARK                         _______ _______ _______ _____ _____    ______ ____
ROOT
ATOM      1  N   UNL     1       4.808   5.589  19.744  0.00  0.00    +0.000 NA
ATOM      2  H   UNL     1       5.342   6.451  19.873  0.00  0.00    +0.000 HD
ENDROOT
BRANCH   1   3
ATOM      3  C   UNL     1       5.562   4.666  18.898  0.00  0.00    +0.000 C 
BRANCH   3   5
ATOM      4  S   UNL     1       7.716   6.383  18.520  0.00  0.00    +0.000 S 
ATOM      5  C   UNL     1       6.422   5.472  17.928  0.00  0.00    +0.000 C 
BRANCH   5   6
ATOM      6  C   UNL     1       6.143   5.441  16.424  0.00  0.00    +0.000 C 
ATOM      7  C   UNL     1       7.348   5.042  15.577  0.00  0.00    +0.000 C 
ATOM      8  C   UNL     1       6.739   4.664  14.234  0.00  0.00    +0.000 C 
ATOM      9  C   UNL     1       5.338   4.141  14.541  0.00  0.00    +0.000 C 
ATOM     10  C   UNL     1       5.081   4.420  16.019  0.00  0.00    +0.000 C 
ENDBRANCH   5   6
ENDBRANCH   3   5
ENDBRANCH   1   3
BRANCH   1  11
ATOM     11  C   UNL     1       3.521   5.920  19.132  0.00  0.00    +0.000 C 
BRANCH  11  12
ATOM     12  C   UNL     1       2.566   4.770  19.308  0.00  0.00    +0.000 A 
ATOM     13  C   UNL     1       2.059   4.085  18.194  0.00  0.00    +0.000 A 
ATOM     14  C   UNL     1       1.101   3.087  18.354  0.00  0.00    +0.000 A 
ATOM     15  C   UNL     1       0.643   2.759  19.631  0.00  0.00    +0.000 A 
ATOM     16  C   UNL     1       1.149   3.421  20.748  0.00  0.00    +0.000 A 
ATOM     17  C   UNL     1       2.103   4.426  20.588  0.00  0.00    +0.000 A 
ENDBRANCH  11  12
ENDBRANCH   1  11
TORSDOF 5
ENDMDL
