MODEL 1
REMARK VINA RESULT:      -7.7      0.000      0.000
REMARK  Name = 
REMARK  7 active torsions:
REMARK  status: ('A' for Active; 'I' for Inactive)
REMARK    1  A    between atoms: C_1  and  O_2
REMARK    2  A    between atoms: O_2  and  C_3
REMARK    3  A    between atoms: C_6  and  C_7
REMARK    4  A    between atoms: C_7  and  N_8
REMARK    5  A    between atoms: C_11  and  C_12
REMARK    6  A    between atoms: C_16  and  C_17
REMARK    7  A    between atoms: N_21  and  C_22
REMARK                            x       y       z     vdW  Elec       q    Type
REMARK                         _______ _______ _______ _____ _____    ______ ____
ROOT
ATOM      1  N   UNL     1       2.523   8.840  17.736  0.00  0.00    +0.000 N 
ATOM      2  C   UNL     1       3.107   7.568  17.895  0.00  0.00    +0.000 A 
ATOM      3  C   UNL     1       4.467   7.429  17.666  0.00  0.00    +0.000 A 
ATOM      4  C   UNL     1       5.022   6.165  17.768  0.00  0.00    +0.000 A 
ATOM      5  N   UNL     1       4.256   5.113  18.110  0.00  0.00    +0.000 NA
ATOM      6  C   UNL     1       2.949   5.335  18.318  0.00  0.00    +0.000 A 
ATOM      7  N   UNL     1       2.344   6.522  18.212  0.00  0.00    +0.000 NA
ATOM      8  H   UNL     1       2.980   9.507  18.351  0.00  0.00    +0.000 HD
ENDROOT
BRANCH   6   9
ATOM      9  C   UNL     1       2.113   4.176  18.673  0.00  0.00    +0.000 A 
ATOM     10  N   UNL     1       1.543   3.328  17.820  0.00  0.00    +0.000 NA
ATOM     11  C   UNL     1       0.892   2.387  18.571  0.00  0.00    +0.000 A 
ATOM     12  C   UNL     1       1.042   2.650  19.907  0.00  0.00    +0.000 A 
ATOM     13  N   UNL     1       1.799   3.790  19.965  0.00  0.00    +0.000 N 
ATOM     14  C   UNL     1       2.178   4.455  21.190  0.00  0.00    +0.000 C 
ENDBRANCH   6   9
BRANCH   4  15
ATOM     15  C   UNL     1       6.467   5.886  17.418  0.00  0.00    +0.000 C 
ATOM     16  C   UNL     1       7.500   6.985  17.382  0.00  0.00    +0.000 C 
ATOM     17  C   UNL     1       7.539   5.971  18.484  0.00  0.00    +0.000 C 
ENDBRANCH   4  15
BRANCH   1  18
ATOM     18  C   UNL     1       1.072   8.849  17.928  0.00  0.00    +0.000 C 
BRANCH  18  22
ATOM     19  C   UNL     1       0.096  10.555  21.787  0.00  0.00    +0.000 A 
ATOM     20  C   UNL     1      -0.297  11.196  20.612  0.00  0.00    +0.000 A 
ATOM     21  C   UNL     1       0.009  10.644  19.365  0.00  0.00    +0.000 A 
ATOM     22  C   UNL     1       0.739   9.450  19.276  0.00  0.00    +0.000 A 
ATOM     23  C   UNL     1       1.134   8.814  20.460  0.00  0.00    +0.000 A 
ATOM     24  C   UNL     1       0.816   9.363  21.708  0.00  0.00    +0.000 A 
BRANCH  19  26
ATOM     25  C   UNL     1      -1.514  11.835  22.953  0.00  0.00    +0.000 C 
ATOM     26  O   UNL     1      -0.241  11.198  22.947  0.00  0.00    +0.000 OA
ENDBRANCH  19  26
ENDBRANCH  18  22
ENDBRANCH   1  18
TORSDOF 5
ENDMDL
MODEL 2
REMARK VINA RESULT:      -7.6      0.334      1.018
REMARK  Name = 
REMARK  7 active torsions:
REMARK  status: ('A' for Active; 'I' for Inactive)
REMARK    1  A    between atoms: C_1  and  O_2
REMARK    2  A    between atoms: O_2  and  C_3
REMARK    3  A    between atoms: C_6  and  C_7
REMARK    4  A    between atoms: C_7  and  N_8
REMARK    5  A    between atoms: C_11  and  C_12
REMARK    6  A    between atoms: C_16  and  C_17
REMARK    7  A    between atoms: N_21  and  C_22
REMARK                            x       y       z     vdW  Elec       q    Type
REMARK                         _______ _______ _______ _____ _____    ______ ____
ROOT
ATOM      1  N   UNL     1       2.366   8.942  17.651  0.00  0.00    +0.000 N 
ATOM      2  C   UNL     1       2.978   7.682  17.805  0.00  0.00    +0.000 A 
ATOM      3  C   UNL     1       4.333   7.565  17.537  0.00  0.00    +0.000 A 
ATOM      4  C   UNL     1       4.914   6.312  17.635  0.00  0.00    +0.000 A 
ATOM      5  N   UNL     1       4.177   5.250  18.010  0.00  0.00    +0.000 NA
ATOM      6  C   UNL     1       2.873   5.451  18.255  0.00  0.00    +0.000 A 
ATOM      7  N   UNL     1       2.244   6.626  18.155  0.00  0.00    +0.000 NA
ATOM      8  H   UNL     1       2.829   9.623  18.245  0.00  0.00    +0.000 HD
ENDROOT
BRANCH   6   9
ATOM      9  C   UNL     1       2.069   4.281  18.646  0.00  0.00    +0.000 A 
ATOM     10  N   UNL     1       1.515   3.397  17.820  0.00  0.00    +0.000 NA
ATOM     11  C   UNL     1       0.893   2.460  18.600  0.00  0.00    +0.000 A 
ATOM     12  C   UNL     1       1.046   2.762  19.927  0.00  0.00    +0.000 A 
ATOM     13  N   UNL     1       1.774   3.921  19.950  0.00  0.00    +0.000 N 
ATOM     14  C   UNL     1       2.146   4.627  21.154  0.00  0.00    +0.000 C 
ENDBRANCH   6   9
BRANCH   4  15
ATOM     15  C   UNL     1       6.352   6.056  17.245  0.00  0.00    +0.000 C 
ATOM     16  C   UNL     1       7.431   7.084  17.476  0.00  0.00    +0.000 C 
ATOM     17  C   UNL     1       7.405   5.841  18.312  0.00  0.00    +0.000 C 
ENDBRANCH   4  15
BRANCH   1  18
ATOM     18  C   UNL     1       0.922   8.927  17.886  0.00  0.00    +0.000 C 
BRANCH  18  22
ATOM     19  C   UNL     1       0.038  11.042  21.561  0.00  0.00    +0.000 A 
ATOM     20  C   UNL     1       0.690   9.809  21.595  0.00  0.00    +0.000 A 
ATOM     21  C   UNL     1       0.985   9.128  20.411  0.00  0.00    +0.000 A 
ATOM     22  C   UNL     1       0.606   9.661  19.170  0.00  0.00    +0.000 A 
ATOM     23  C   UNL     1      -0.053  10.897  19.143  0.00  0.00    +0.000 A 
ATOM     24  C   UNL     1      -0.337  11.583  20.331  0.00  0.00    +0.000 A 
BRANCH  19  26
ATOM     25  C   UNL     1      -1.104  12.718  22.775  0.00  0.00    +0.000 C 
ATOM     26  O   UNL     1      -0.216  11.605  22.781  0.00  0.00    +0.000 OA
ENDBRANCH  19  26
ENDBRANCH  18  22
ENDBRANCH   1  18
TORSDOF 5
ENDMDL
MODEL 3
REMARK VINA RESULT:      -7.4      2.015      2.484
REMARK  Name = 
REMARK  7 active torsions:
REMARK  status: ('A' for Active; 'I' for Inactive)
REMARK    1  A    between atoms: C_1  and  O_2
REMARK    2  A    between atoms: O_2  and  C_3
REMARK    3  A    between atoms: C_6  and  C_7
REMARK    4  A    between atoms: C_7  and  N_8
REMARK    5  A    between atoms: C_11  and  C_12
REMARK    6  A    between atoms: C_16  and  C_17
REMARK    7  A    between atoms: N_21  and  C_22
REMARK                            x       y       z     vdW  Elec       q    Type
REMARK                         _______ _______ _______ _____ _____    ______ ____
ROOT
ATOM      1  N   UNL     1       2.706   8.801  17.884  0.00  0.00    +0.000 N 
ATOM      2  C   UNL     1       3.140   7.467  17.754  0.00  0.00    +0.000 A 
ATOM      3  C   UNL     1       4.325   7.217  17.080  0.00  0.00    +0.000 A 
ATOM      4  C   UNL     1       4.714   5.899  16.907  0.00  0.00    +0.000 A 
ATOM      5  N   UNL     1       3.967   4.899  17.411  0.00  0.00    +0.000 NA
ATOM      6  C   UNL     1       2.836   5.228  18.053  0.00  0.00    +0.000 A 
ATOM      7  N   UNL     1       2.389   6.476  18.234  0.00  0.00    +0.000 NA
ATOM      8  H   UNL     1       3.419   9.349  18.357  0.00  0.00    +0.000 HD
ENDROOT
BRANCH   6   9
ATOM      9  C   UNL     1       2.015   4.129  18.585  0.00  0.00    +0.000 A 
ATOM     10  N   UNL     1       1.370   3.211  17.867  0.00  0.00    +0.000 NA
ATOM     11  C   UNL     1       0.766   2.364  18.756  0.00  0.00    +0.000 A 
ATOM     12  C   UNL     1       1.020   2.757  20.043  0.00  0.00    +0.000 A 
ATOM     13  N   UNL     1       1.794   3.881  19.929  0.00  0.00    +0.000 N 
ATOM     14  C   UNL     1       2.274   4.657  21.049  0.00  0.00    +0.000 C 
ENDBRANCH   6   9
BRANCH   4  15
ATOM     15  C   UNL     1       5.921   5.516  16.081  0.00  0.00    +0.000 C 
ATOM     16  C   UNL     1       6.300   4.073  15.854  0.00  0.00    +0.000 C 
ATOM     17  C   UNL     1       5.741   4.876  14.720  0.00  0.00    +0.000 C 
ENDBRANCH   4  15
BRANCH   1  18
ATOM     18  C   UNL     1       1.408   8.935  18.545  0.00  0.00    +0.000 C 
BRANCH  18  22
ATOM     19  C   UNL     1       0.170  13.086  18.531  0.00  0.00    +0.000 A 
ATOM     20  C   UNL     1      -0.781  12.066  18.537  0.00  0.00    +0.000 A 
ATOM     21  C   UNL     1      -0.386  10.726  18.550  0.00  0.00    +0.000 A 
ATOM     22  C   UNL     1       0.975  10.385  18.531  0.00  0.00    +0.000 A 
ATOM     23  C   UNL     1       1.925  11.415  18.519  0.00  0.00    +0.000 A 
ATOM     24  C   UNL     1       1.526  12.757  18.517  0.00  0.00    +0.000 A 
BRANCH  19  26
ATOM     25  C   UNL     1       0.444  15.348  19.162  0.00  0.00    +0.000 C 
ATOM     26  O   UNL     1      -0.334  14.357  18.497  0.00  0.00    +0.000 OA
ENDBRANCH  19  26
ENDBRANCH  18  22
ENDBRANCH   1  18
TORSDOF 5
ENDMDL
MODEL 4
REMARK VINA RESULT:      -7.3      1.982      2.451
REMARK  Name = 
REMARK  7 active torsions:
REMARK  status: ('A' for Active; 'I' for Inactive)
REMARK    1  A    between atoms: C_1  and  O_2
REMARK    2  A    between atoms: O_2  and  C_3
REMARK    3  A    between atoms: C_6  and  C_7
REMARK    4  A    between atoms: C_7  and  N_8
REMARK    5  A    between atoms: C_11  and  C_12
REMARK    6  A    between atoms: C_16  and  C_17
REMARK    7  A    between atoms: N_21  and  C_22
REMARK                            x       y       z     vdW  Elec       q    Type
REMARK                         _______ _______ _______ _____ _____    ______ ____
ROOT
ATOM      1  N   UNL     1       2.714   8.813  17.869  0.00  0.00    +0.000 N 
ATOM      2  C   UNL     1       3.134   7.473  17.753  0.00  0.00    +0.000 A 
ATOM      3  C   UNL     1       4.319   7.206  17.086  0.00  0.00    +0.000 A 
ATOM      4  C   UNL     1       4.695   5.883  16.926  0.00  0.00    +0.000 A 
ATOM      5  N   UNL     1       3.937   4.895  17.436  0.00  0.00    +0.000 NA
ATOM      6  C   UNL     1       2.807   5.241  18.071  0.00  0.00    +0.000 A 
ATOM      7  N   UNL     1       2.372   6.494  18.239  0.00  0.00    +0.000 NA
ATOM      8  H   UNL     1       3.430   9.358  18.340  0.00  0.00    +0.000 HD
ENDROOT
BRANCH   6   9
ATOM      9  C   UNL     1       1.972   4.155  18.609  0.00  0.00    +0.000 A 
ATOM     10  N   UNL     1       1.299   3.254  17.897  0.00  0.00    +0.000 NA
ATOM     11  C   UNL     1       0.692   2.414  18.791  0.00  0.00    +0.000 A 
ATOM     12  C   UNL     1       0.974   2.794  20.076  0.00  0.00    +0.000 A 
ATOM     13  N   UNL     1       1.769   3.903  19.955  0.00  0.00    +0.000 N 
ATOM     14  C   UNL     1       2.281   4.663  21.072  0.00  0.00    +0.000 C 
ENDBRANCH   6   9
BRANCH   4  15
ATOM     15  C   UNL     1       5.901   5.479  16.108  0.00  0.00    +0.000 C 
ATOM     16  C   UNL     1       6.201   4.034  15.797  0.00  0.00    +0.000 C 
ATOM     17  C   UNL     1       5.725   4.940  14.703  0.00  0.00    +0.000 C 
ENDBRANCH   4  15
BRANCH   1  18
ATOM     18  C   UNL     1       1.414   8.966  18.524  0.00  0.00    +0.000 C 
BRANCH  18  22
ATOM     19  C   UNL     1       0.304  13.153  18.592  0.00  0.00    +0.000 A 
ATOM     20  C   UNL     1       1.639  12.779  18.443  0.00  0.00    +0.000 A 
ATOM     21  C   UNL     1       2.000  11.429  18.412  0.00  0.00    +0.000 A 
ATOM     22  C   UNL     1       1.028  10.429  18.557  0.00  0.00    +0.000 A 
ATOM     23  C   UNL     1      -0.311  10.812  18.711  0.00  0.00    +0.000 A 
ATOM     24  C   UNL     1      -0.671  12.165  18.730  0.00  0.00    +0.000 A 
BRANCH  19  26
ATOM     25  C   UNL     1      -0.696  14.966  19.734  0.00  0.00    +0.000 C 
ATOM     26  O   UNL     1       0.072  14.500  18.629  0.00  0.00    +0.000 OA
ENDBRANCH  19  26
ENDBRANCH  18  22
ENDBRANCH   1  18
TORSDOF 5
ENDMDL
MODEL 5
REMARK VINA RESULT:      -7.2      0.938      1.679
REMARK  Name = 
REMARK  7 active torsions:
REMARK  status: ('A' for Active; 'I' for Inactive)
REMARK    1  A    between atoms: C_1  and  O_2
REMARK    2  A    between atoms: O_2  and  C_3
REMARK    3  A    between atoms: C_6  and  C_7
REMARK    4  A    between atoms: C_7  and  N_8
REMARK    5  A    between atoms: C_11  and  C_12
REMARK    6  A    between atoms: C_16  and  C_17
REMARK    7  A    between atoms: N_21  and  C_22
REMARK                            x       y       z     vdW  Elec       q    Type
REMARK                         _______ _______ _______ _____ _____    ______ ____
ROOT
ATOM      1  N   UNL     1       2.513   8.594  17.645  0.00  0.00    +0.000 N 
ATOM      2  C   UNL     1       3.186   7.430  18.065  0.00  0.00    +0.000 A 
ATOM      3  C   UNL     1       4.507   7.255  17.687  0.00  0.00    +0.000 A 
ATOM      4  C   UNL     1       5.143   6.081  18.055  0.00  0.00    +0.000 A 
ATOM      5  N   UNL     1       4.492   5.157  18.785  0.00  0.00    +0.000 NA
ATOM      6  C   UNL     1       3.216   5.407  19.113  0.00  0.00    +0.000 A 
ATOM      7  N   UNL     1       2.534   6.505  18.770  0.00  0.00    +0.000 NA
ATOM      8  H   UNL     1       3.010   9.416  17.975  0.00  0.00    +0.000 HD
ENDROOT
BRANCH   6   9
ATOM      9  C   UNL     1       2.504   4.383  19.895  0.00  0.00    +0.000 A 
ATOM     10  N   UNL     1       2.303   4.400  21.211  0.00  0.00    +0.000 NA
ATOM     11  C   UNL     1       1.572   3.283  21.515  0.00  0.00    +0.000 A 
ATOM     12  C   UNL     1       1.320   2.551  20.384  0.00  0.00    +0.000 A 
ATOM     13  N   UNL     1       1.926   3.241  19.369  0.00  0.00    +0.000 N 
ATOM     14  C   UNL     1       1.945   2.811  17.990  0.00  0.00    +0.000 C 
ENDBRANCH   6   9
BRANCH   4  15
ATOM     15  C   UNL     1       6.540   5.739  17.588  0.00  0.00    +0.000 C 
ATOM     16  C   UNL     1       7.580   6.805  17.350  0.00  0.00    +0.000 C 
ATOM     17  C   UNL     1       7.717   5.891  18.529  0.00  0.00    +0.000 C 
ENDBRANCH   4  15
BRANCH   1  18
ATOM     18  C   UNL     1       1.104   8.633  18.038  0.00  0.00    +0.000 C 
BRANCH  18  22
ATOM     19  C   UNL     1       0.514  11.752  20.985  0.00  0.00    +0.000 A 
ATOM     20  C   UNL     1       0.203  10.426  21.288  0.00  0.00    +0.000 A 
ATOM     21  C   UNL     1       0.400   9.416  20.343  0.00  0.00    +0.000 A 
ATOM     22  C   UNL     1       0.889   9.723  19.065  0.00  0.00    +0.000 A 
ATOM     23  C   UNL     1       1.195  11.057  18.766  0.00  0.00    +0.000 A 
ATOM     24  C   UNL     1       1.007  12.066  19.719  0.00  0.00    +0.000 A 
BRANCH  19  26
ATOM     25  C   UNL     1      -0.990  12.510  22.645  0.00  0.00    +0.000 C 
ATOM     26  O   UNL     1       0.261  12.656  21.980  0.00  0.00    +0.000 OA
ENDBRANCH  19  26
ENDBRANCH  18  22
ENDBRANCH   1  18
TORSDOF 5
ENDMDL
MODEL 6
REMARK VINA RESULT:      -7.2      1.766      1.969
REMARK  Name = 
REMARK  7 active torsions:
REMARK  status: ('A' for Active; 'I' for Inactive)
REMARK    1  A    between atoms: C_1  and  O_2
REMARK    2  A    between atoms: O_2  and  C_3
REMARK    3  A    between atoms: C_6  and  C_7
REMARK    4  A    between atoms: C_7  and  N_8
REMARK    5  A    between atoms: C_11  and  C_12
REMARK    6  A    between atoms: C_16  and  C_17
REMARK    7  A    between atoms: N_21  and  C_22
REMARK                            x       y       z     vdW  Elec       q    Type
REMARK                         _______ _______ _______ _____ _____    ______ ____
ROOT
ATOM      1  N   UNL     1       2.464   8.792  17.682  0.00  0.00    +0.000 N 
ATOM      2  C   UNL     1       3.063   7.527  17.848  0.00  0.00    +0.000 A 
ATOM      3  C   UNL     1       4.420   7.398  17.596  0.00  0.00    +0.000 A 
ATOM      4  C   UNL     1       4.989   6.140  17.706  0.00  0.00    +0.000 A 
ATOM      5  N   UNL     1       4.239   5.086  18.078  0.00  0.00    +0.000 NA
ATOM      6  C   UNL     1       2.935   5.299  18.307  0.00  0.00    +0.000 A 
ATOM      7  N   UNL     1       2.316   6.480  18.196  0.00  0.00    +0.000 NA
ATOM      8  H   UNL     1       2.926   9.472  18.278  0.00  0.00    +0.000 HD
ENDROOT
BRANCH   6   9
ATOM      9  C   UNL     1       2.117   4.138  18.695  0.00  0.00    +0.000 A 
ATOM     10  N   UNL     1       1.538   3.273  17.866  0.00  0.00    +0.000 NA
ATOM     11  C   UNL     1       0.911   2.337  18.643  0.00  0.00    +0.000 A 
ATOM     12  C   UNL     1       1.085   2.620  19.972  0.00  0.00    +0.000 A 
ATOM     13  N   UNL     1       1.833   3.767  19.998  0.00  0.00    +0.000 N 
ATOM     14  C   UNL     1       2.231   4.453  21.206  0.00  0.00    +0.000 C 
ENDBRANCH   6   9
BRANCH   4  15
ATOM     15  C   UNL     1       6.429   5.870  17.332  0.00  0.00    +0.000 C 
ATOM     16  C   UNL     1       7.478   6.954  17.381  0.00  0.00    +0.000 C 
ATOM     17  C   UNL     1       7.504   5.855  18.399  0.00  0.00    +0.000 C 
ENDBRANCH   4  15
BRANCH   1  18
ATOM     18  C   UNL     1       1.017   8.789  17.901  0.00  0.00    +0.000 C 
BRANCH  18  22
ATOM     19  C   UNL     1      -0.298  12.755  19.042  0.00  0.00    +0.000 A 
ATOM     20  C   UNL     1      -1.228  11.778  18.688  0.00  0.00    +0.000 A 
ATOM     21  C   UNL     1      -0.808  10.495  18.327  0.00  0.00    +0.000 A 
ATOM     22  C   UNL     1       0.558  10.178  18.291  0.00  0.00    +0.000 A 
ATOM     23  C   UNL     1       1.486  11.165  18.644  0.00  0.00    +0.000 A 
ATOM     24  C   UNL     1       1.062  12.447  19.015  0.00  0.00    +0.000 A 
BRANCH  19  26
ATOM     25  C   UNL     1      -0.104  15.105  18.866  0.00  0.00    +0.000 C 
ATOM     26  O   UNL     1      -0.824  13.978  19.357  0.00  0.00    +0.000 OA
ENDBRANCH  19  26
ENDBRANCH  18  22
ENDBRANCH   1  18
TORSDOF 5
ENDMDL
MODEL 7
REMARK VINA RESULT:      -7.2      2.080      4.383
REMARK  Name = 
REMARK  7 active torsions:
REMARK  status: ('A' for Active; 'I' for Inactive)
REMARK    1  A    between atoms: C_1  and  O_2
REMARK    2  A    between atoms: O_2  and  C_3
REMARK    3  A    between atoms: C_6  and  C_7
REMARK    4  A    between atoms: C_7  and  N_8
REMARK    5  A    between atoms: C_11  and  C_12
REMARK    6  A    between atoms: C_16  and  C_17
REMARK    7  A    between atoms: N_21  and  C_22
REMARK                            x       y       z     vdW  Elec       q    Type
REMARK                         _______ _______ _______ _____ _____    ______ ____
ROOT
ATOM      1  N   UNL     1       1.970   7.681  18.859  0.00  0.00    +0.000 N 
ATOM      2  C   UNL     1       2.631   6.444  18.719  0.00  0.00    +0.000 A 
ATOM      3  C   UNL     1       2.339   5.431  19.618  0.00  0.00    +0.000 A 
ATOM      4  C   UNL     1       3.034   4.238  19.508  0.00  0.00    +0.000 A 
ATOM      5  N   UNL     1       3.945   4.071  18.531  0.00  0.00    +0.000 NA
ATOM      6  C   UNL     1       4.164   5.101  17.701  0.00  0.00    +0.000 A 
ATOM      7  N   UNL     1       3.548   6.287  17.765  0.00  0.00    +0.000 NA
ATOM      8  H   UNL     1       0.965   7.542  18.808  0.00  0.00    +0.000 HD
ENDROOT
BRANCH   6   9
ATOM      9  C   UNL     1       5.175   4.919  16.647  0.00  0.00    +0.000 A 
ATOM     10  N   UNL     1       4.957   4.443  15.423  0.00  0.00    +0.000 NA
ATOM     11  C   UNL     1       6.157   4.476  14.764  0.00  0.00    +0.000 A 
ATOM     12  C   UNL     1       7.141   4.964  15.583  0.00  0.00    +0.000 A 
ATOM     13  N   UNL     1       6.519   5.225  16.774  0.00  0.00    +0.000 N 
ATOM     14  C   UNL     1       7.191   5.728  17.950  0.00  0.00    +0.000 C 
ENDBRANCH   6   9
BRANCH   4  15
ATOM     15  C   UNL     1       2.880   3.119  20.512  0.00  0.00    +0.000 C 
ATOM     16  C   UNL     1       2.107   3.304  21.794  0.00  0.00    +0.000 C 
ATOM     17  C   UNL     1       1.537   2.447  20.706  0.00  0.00    +0.000 C 
ENDBRANCH   4  15
BRANCH   1  18
ATOM     18  C   UNL     1       2.415   8.696  17.904  0.00  0.00    +0.000 C 
BRANCH  18  22
ATOM     19  C   UNL     1       0.403  12.442  18.730  0.00  0.00    +0.000 A 
ATOM     20  C   UNL     1      -0.289  11.235  18.817  0.00  0.00    +0.000 A 
ATOM     21  C   UNL     1       0.358  10.024  18.559  0.00  0.00    +0.000 A 
ATOM     22  C   UNL     1       1.709  10.006  18.184  0.00  0.00    +0.000 A 
ATOM     23  C   UNL     1       2.398  11.222  18.094  0.00  0.00    +0.000 A 
ATOM     24  C   UNL     1       1.749  12.433  18.364  0.00  0.00    +0.000 A 
BRANCH  19  26
ATOM     25  C   UNL     1      -1.425  13.395  19.888  0.00  0.00    +0.000 C 
ATOM     26  O   UNL     1      -0.338  13.564  18.984  0.00  0.00    +0.000 OA
ENDBRANCH  19  26
ENDBRANCH  18  22
ENDBRANCH   1  18
TORSDOF 5
ENDMDL
MODEL 8
REMARK VINA RESULT:      -7.2      2.204      4.453
REMARK  Name = 
REMARK  7 active torsions:
REMARK  status: ('A' for Active; 'I' for Inactive)
REMARK    1  A    between atoms: C_1  and  O_2
REMARK    2  A    between atoms: O_2  and  C_3
REMARK    3  A    between atoms: C_6  and  C_7
REMARK    4  A    between atoms: C_7  and  N_8
REMARK    5  A    between atoms: C_11  and  C_12
REMARK    6  A    between atoms: C_16  and  C_17
REMARK    7  A    between atoms: N_21  and  C_22
REMARK                            x       y       z     vdW  Elec       q    Type
REMARK                         _______ _______ _______ _____ _____    ______ ____
ROOT
ATOM      1  N   UNL     1       1.994   7.789  18.904  0.00  0.00    +0.000 N 
ATOM      2  C   UNL     1       2.647   6.549  18.754  0.00  0.00    +0.000 A 
ATOM      3  C   UNL     1       2.371   5.540  19.662  0.00  0.00    +0.000 A 
ATOM      4  C   UNL     1       3.060   4.345  19.540  0.00  0.00    +0.000 A 
ATOM      5  N   UNL     1       3.949   4.171  18.545  0.00  0.00    +0.000 NA
ATOM      6  C   UNL     1       4.154   5.198  17.707  0.00  0.00    +0.000 A 
ATOM      7  N   UNL     1       3.543   6.386  17.781  0.00  0.00    +0.000 NA
ATOM      8  H   UNL     1       0.988   7.653  18.875  0.00  0.00    +0.000 HD
ENDROOT
BRANCH   6   9
ATOM      9  C   UNL     1       5.141   5.009  16.632  0.00  0.00    +0.000 A 
ATOM     10  N   UNL     1       4.916   4.445  15.448  0.00  0.00    +0.000 NA
ATOM     11  C   UNL     1       6.090   4.507  14.748  0.00  0.00    +0.000 A 
ATOM     12  C   UNL     1       7.068   5.103  15.500  0.00  0.00    +0.000 A 
ATOM     13  N   UNL     1       6.467   5.402  16.695  0.00  0.00    +0.000 N 
ATOM     14  C   UNL     1       7.143   6.018  17.814  0.00  0.00    +0.000 C 
ENDBRANCH   6   9
BRANCH   4  15
ATOM     15  C   UNL     1       2.924   3.228  20.551  0.00  0.00    +0.000 C 
ATOM     16  C   UNL     1       1.985   3.333  21.728  0.00  0.00    +0.000 C 
ATOM     17  C   UNL     1       1.658   2.398  20.604  0.00  0.00    +0.000 C 
ENDBRANCH   4  15
BRANCH   1  18
ATOM     18  C   UNL     1       2.421   8.800  17.937  0.00  0.00    +0.000 C 
BRANCH  18  22
ATOM     19  C   UNL     1       0.254  12.491  18.601  0.00  0.00    +0.000 A 
ATOM     20  C   UNL     1       1.627  12.513  18.355  0.00  0.00    +0.000 A 
ATOM     21  C   UNL     1       2.328  11.325  18.132  0.00  0.00    +0.000 A 
ATOM     22  C   UNL     1       1.666  10.089  18.178  0.00  0.00    +0.000 A 
ATOM     23  C   UNL     1       0.288  10.074  18.429  0.00  0.00    +0.000 A 
ATOM     24  C   UNL     1      -0.414  11.267  18.641  0.00  0.00    +0.000 A 
BRANCH  19  26
ATOM     25  C   UNL     1       0.553  14.729  19.303  0.00  0.00    +0.000 C 
ATOM     26  O   UNL     1      -0.321  13.712  18.825  0.00  0.00    +0.000 OA
ENDBRANCH  19  26
ENDBRANCH  18  22
ENDBRANCH   1  18
TORSDOF 5
ENDMDL
MODEL 9
REMARK VINA RESULT:      -7.2      1.041      1.555
REMARK  Name = 
REMARK  7 active torsions:
REMARK  status: ('A' for Active; 'I' for Inactive)
REMARK    1  A    between atoms: C_1  and  O_2
REMARK    2  A    between atoms: O_2  and  C_3
REMARK    3  A    between atoms: C_6  and  C_7
REMARK    4  A    between atoms: C_7  and  N_8
REMARK    5  A    between atoms: C_11  and  C_12
REMARK    6  A    between atoms: C_16  and  C_17
REMARK    7  A    between atoms: N_21  and  C_22
REMARK                            x       y       z     vdW  Elec       q    Type
REMARK                         _______ _______ _______ _____ _____    ______ ____
ROOT
ATOM      1  N   UNL     1       2.475   8.590  17.594  0.00  0.00    +0.000 N 
ATOM      2  C   UNL     1       3.158   7.434  18.021  0.00  0.00    +0.000 A 
ATOM      3  C   UNL     1       4.483   7.272  17.650  0.00  0.00    +0.000 A 
ATOM      4  C   UNL     1       5.130   6.106  18.024  0.00  0.00    +0.000 A 
ATOM      5  N   UNL     1       4.486   5.177  18.755  0.00  0.00    +0.000 NA
ATOM      6  C   UNL     1       3.205   5.415  19.076  0.00  0.00    +0.000 A 
ATOM      7  N   UNL     1       2.514   6.505  18.727  0.00  0.00    +0.000 NA
ATOM      8  H   UNL     1       2.962   9.418  17.924  0.00  0.00    +0.000 HD
ENDROOT
BRANCH   6   9
ATOM      9  C   UNL     1       2.501   4.386  19.859  0.00  0.00    +0.000 A 
ATOM     10  N   UNL     1       2.259   4.424  21.167  0.00  0.00    +0.000 NA
ATOM     11  C   UNL     1       1.553   3.292  21.473  0.00  0.00    +0.000 A 
ATOM     12  C   UNL     1       1.359   2.529  20.352  0.00  0.00    +0.000 A 
ATOM     13  N   UNL     1       1.974   3.216  19.340  0.00  0.00    +0.000 N 
ATOM     14  C   UNL     1       2.048   2.758  17.972  0.00  0.00    +0.000 C 
ENDBRANCH   6   9
BRANCH   4  15
ATOM     15  C   UNL     1       6.533   5.777  17.565  0.00  0.00    +0.000 C 
ATOM     16  C   UNL     1       7.557   6.855  17.312  0.00  0.00    +0.000 C 
ATOM     17  C   UNL     1       7.706   5.961  18.505  0.00  0.00    +0.000 C 
ENDBRANCH   4  15
BRANCH   1  18
ATOM     18  C   UNL     1       1.064   8.615  17.981  0.00  0.00    +0.000 C 
BRANCH  18  22
ATOM     19  C   UNL     1       0.421  11.578  21.074  0.00  0.00    +0.000 A 
ATOM     20  C   UNL     1       0.484  11.959  19.733  0.00  0.00    +0.000 A 
ATOM     21  C   UNL     1       0.683  11.004  18.732  0.00  0.00    +0.000 A 
ATOM     22  C   UNL     1       0.848   9.652  19.062  0.00  0.00    +0.000 A 
ATOM     23  C   UNL     1       0.788   9.277  20.410  0.00  0.00    +0.000 A 
ATOM     24  C   UNL     1       0.578  10.234  21.410  0.00  0.00    +0.000 A 
BRANCH  19  26
ATOM     25  C   UNL     1       0.694  13.881  21.537  0.00  0.00    +0.000 C 
ATOM     26  O   UNL     1       0.243  12.600  21.966  0.00  0.00    +0.000 OA
ENDBRANCH  19  26
ENDBRANCH  18  22
ENDBRANCH   1  18
TORSDOF 5
ENDMDL
