MODEL 1
REMARK VINA RESULT:      -7.3      0.000      0.000
REMARK  Name = 
REMARK  8 active torsions:
REMARK  status: ('A' for Active; 'I' for Inactive)
REMARK    1  A    between atoms: C_1  and  C_2
REMARK    2  A    between atoms: C_2  and  C_3
REMARK    3  A    between atoms: C_3  and  C_4
REMARK    4  A    between atoms: C_4  and  C_5
REMARK    5  A    between atoms: C_7  and  C_8
REMARK    6  A    between atoms: C_8  and  N_9
REMARK    7  A    between atoms: C_15  and  C_16
REMARK    8  A    between atoms: C_16  and  C_17
REMARK                            x       y       z     vdW  Elec       q    Type
REMARK                         _______ _______ _______ _____ _____    ______ ____
ROOT
ATOM      1  C   UNL     1       5.194   4.713  18.848  0.00  0.00    +0.000 C 
ENDROOT
BRANCH   1   2
ATOM      2  N   UNL     1       3.728   4.392  18.983  0.00  0.00    +0.000 NA
ATOM      3  C   UNL     1       3.215   3.620  17.834  0.00  0.00    +0.000 C 
ATOM      4  C   UNL     1       3.813   2.206  17.696  0.00  0.00    +0.000 C 
ATOM      5  N   UNL     1       4.178   1.566  18.951  0.00  0.00    +0.000 N 
ATOM      6  C   UNL     1       4.308   2.259  20.133  0.00  0.00    +0.000 C 
ATOM      7  O   UNL     1       4.954   1.790  21.068  0.00  0.00    +0.000 OA
ATOM      8  C   UNL     1       3.520   3.583  20.230  0.00  0.00    +0.000 C 
ATOM      9  H   UNL     1       4.706   0.707  18.920  0.00  0.00    +0.000 HD
BRANCH   8  10
ATOM     10  C   UNL     1       2.074   3.133  20.573  0.00  0.00    +0.000 C 
ATOM     11  C   UNL     1       0.971   4.170  20.477  0.00  0.00    +0.000 C 
ENDBRANCH   8  10
ENDBRANCH   1   2
BRANCH   1  14
ATOM     12  C   UNL     1       6.354   5.151  15.538  0.00  0.00    +0.000 A 
ATOM     13  N   UNL     1       6.363   4.433  16.638  0.00  0.00    +0.000 NA
ATOM     14  C   UNL     1       5.587   5.197  17.483  0.00  0.00    +0.000 A 
ATOM     15  N   UNL     1       5.226   6.388  16.984  0.00  0.00    +0.000 NA
ATOM     16  O   UNL     1       5.724   6.354  15.678  0.00  0.00    +0.000 OA
BRANCH  12  17
ATOM     17  C   UNL     1       6.695   4.724  14.158  0.00  0.00    +0.000 C 
BRANCH  17  18
ATOM     18  C   UNL     1       5.649   3.726  13.636  0.00  0.00    +0.000 C 
BRANCH  18  20
ATOM     19  C   UNL     1       4.515   3.159  11.444  0.00  0.00    +0.000 C 
ATOM     20  C   UNL     1       5.838   3.397  12.148  0.00  0.00    +0.000 C 
ENDBRANCH  18  20
ENDBRANCH  17  18
ENDBRANCH  12  17
ENDBRANCH   1  14
TORSDOF 6
ENDMDL
MODEL 2
REMARK VINA RESULT:      -7.2      1.936      2.313
REMARK  Name = 
REMARK  8 active torsions:
REMARK  status: ('A' for Active; 'I' for Inactive)
REMARK    1  A    between atoms: C_1  and  C_2
REMARK    2  A    between atoms: C_2  and  C_3
REMARK    3  A    between atoms: C_3  and  C_4
REMARK    4  A    between atoms: C_4  and  C_5
REMARK    5  A    between atoms: C_7  and  C_8
REMARK    6  A    between atoms: C_8  and  N_9
REMARK    7  A    between atoms: C_15  and  C_16
REMARK    8  A    between atoms: C_16  and  C_17
REMARK                            x       y       z     vdW  Elec       q    Type
REMARK                         _______ _______ _______ _____ _____    ______ ____
ROOT
ATOM      1  C   UNL     1       3.948   3.573  19.004  0.00  0.00    +0.000 C 
ENDROOT
BRANCH   1   2
ATOM      2  N   UNL     1       2.921   4.676  19.008  0.00  0.00    +0.000 NA
ATOM      3  C   UNL     1       1.703   4.310  18.258  0.00  0.00    +0.000 C 
ATOM      4  C   UNL     1       0.894   3.153  18.878  0.00  0.00    +0.000 C 
ATOM      5  N   UNL     1       0.960   3.065  20.330  0.00  0.00    +0.000 N 
ATOM      6  C   UNL     1       1.913   3.721  21.075  0.00  0.00    +0.000 C 
ATOM      7  O   UNL     1       2.175   3.355  22.219  0.00  0.00    +0.000 OA
ATOM      8  C   UNL     1       2.533   4.976  20.426  0.00  0.00    +0.000 C 
ATOM      9  H   UNL     1       0.575   2.250  20.782  0.00  0.00    +0.000 HD
BRANCH   8  10
ATOM     10  C   UNL     1       1.477   6.087  20.673  0.00  0.00    +0.000 C 
ATOM     11  C   UNL     1       1.849   7.509  20.299  0.00  0.00    +0.000 C 
ENDBRANCH   8  10
ENDBRANCH   1   2
BRANCH   1  14
ATOM     12  C   UNL     1       6.324   4.161  16.454  0.00  0.00    +0.000 A 
ATOM     13  N   UNL     1       5.160   3.661  16.802  0.00  0.00    +0.000 NA
ATOM     14  C   UNL     1       5.156   3.869  18.164  0.00  0.00    +0.000 A 
ATOM     15  N   UNL     1       6.308   4.346  18.659  0.00  0.00    +0.000 NA
ATOM     16  O   UNL     1       7.085   4.557  17.516  0.00  0.00    +0.000 OA
BRANCH  12  17
ATOM     17  C   UNL     1       6.784   4.570  15.104  0.00  0.00    +0.000 C 
BRANCH  17  18
ATOM     18  C   UNL     1       5.673   4.331  14.069  0.00  0.00    +0.000 C 
BRANCH  18  20
ATOM     19  C   UNL     1       5.048   3.151  11.917  0.00  0.00    +0.000 C 
ATOM     20  C   UNL     1       6.185   3.620  12.808  0.00  0.00    +0.000 C 
ENDBRANCH  18  20
ENDBRANCH  17  18
ENDBRANCH  12  17
ENDBRANCH   1  14
TORSDOF 6
ENDMDL
MODEL 3
REMARK VINA RESULT:      -7.1      1.777      5.982
REMARK  Name = 
REMARK  8 active torsions:
REMARK  status: ('A' for Active; 'I' for Inactive)
REMARK    1  A    between atoms: C_1  and  C_2
REMARK    2  A    between atoms: C_2  and  C_3
REMARK    3  A    between atoms: C_3  and  C_4
REMARK    4  A    between atoms: C_4  and  C_5
REMARK    5  A    between atoms: C_7  and  C_8
REMARK    6  A    between atoms: C_8  and  N_9
REMARK    7  A    between atoms: C_15  and  C_16
REMARK    8  A    between atoms: C_16  and  C_17
REMARK                            x       y       z     vdW  Elec       q    Type
REMARK                         _______ _______ _______ _____ _____    ______ ____
ROOT
ATOM      1  C   UNL     1       5.365   5.151  19.005  0.00  0.00    +0.000 C 
ENDROOT
BRANCH   1   2
ATOM      2  N   UNL     1       4.899   5.445  17.603  0.00  0.00    +0.000 NA
ATOM      3  C   UNL     1       5.052   6.870  17.249  0.00  0.00    +0.000 C 
ATOM      4  C   UNL     1       6.512   7.360  17.181  0.00  0.00    +0.000 C 
ATOM      5  N   UNL     1       7.479   6.355  16.763  0.00  0.00    +0.000 N 
ATOM      6  C   UNL     1       7.199   5.007  16.753  0.00  0.00    +0.000 C 
ATOM      7  O   UNL     1       8.107   4.178  16.754  0.00  0.00    +0.000 OA
ATOM      8  C   UNL     1       5.707   4.628  16.639  0.00  0.00    +0.000 C 
ATOM      9  H   UNL     1       8.462   6.569  16.839  0.00  0.00    +0.000 HD
BRANCH   8  10
ATOM     10  C   UNL     1       5.399   4.772  15.124  0.00  0.00    +0.000 C 
ATOM     11  C   UNL     1       6.123   3.845  14.165  0.00  0.00    +0.000 C 
ENDBRANCH   8  10
ENDBRANCH   1   2
BRANCH   1  14
ATOM     12  C   UNL     1       2.944   3.221  20.709  0.00  0.00    +0.000 A 
ATOM     13  N   UNL     1       3.383   4.410  20.365  0.00  0.00    +0.000 NA
ATOM     14  C   UNL     1       4.555   4.102  19.708  0.00  0.00    +0.000 A 
ATOM     15  N   UNL     1       4.897   2.806  19.757  0.00  0.00    +0.000 NA
ATOM     16  O   UNL     1       3.814   2.212  20.412  0.00  0.00    +0.000 OA
BRANCH  12  17
ATOM     17  C   UNL     1       1.572   2.830  21.121  0.00  0.00    +0.000 C 
BRANCH  17  18
ATOM     18  C   UNL     1       0.558   3.234  20.039  0.00  0.00    +0.000 C 
BRANCH  18  20
ATOM     19  C   UNL     1       1.358   3.740  17.690  0.00  0.00    +0.000 C 
ATOM     20  C   UNL     1       0.908   2.661  18.658  0.00  0.00    +0.000 C 
ENDBRANCH  18  20
ENDBRANCH  17  18
ENDBRANCH  12  17
ENDBRANCH   1  14
TORSDOF 6
ENDMDL
MODEL 4
REMARK VINA RESULT:      -7.1      2.751      4.239
REMARK  Name = 
REMARK  8 active torsions:
REMARK  status: ('A' for Active; 'I' for Inactive)
REMARK    1  A    between atoms: C_1  and  C_2
REMARK    2  A    between atoms: C_2  and  C_3
REMARK    3  A    between atoms: C_3  and  C_4
REMARK    4  A    between atoms: C_4  and  C_5
REMARK    5  A    between atoms: C_7  and  C_8
REMARK    6  A    between atoms: C_8  and  N_9
REMARK    7  A    between atoms: C_15  and  C_16
REMARK    8  A    between atoms: C_16  and  C_17
REMARK                            x       y       z     vdW  Elec       q    Type
REMARK                         _______ _______ _______ _____ _____    ______ ____
ROOT
ATOM      1  C   UNL     1       4.588   4.269  17.245  0.00  0.00    +0.000 C 
ENDROOT
BRANCH   1   2
ATOM      2  N   UNL     1       3.339   4.469  18.064  0.00  0.00    +0.000 NA
ATOM      3  C   UNL     1       2.211   3.651  17.575  0.00  0.00    +0.000 C 
ATOM      4  C   UNL     1       2.415   2.130  17.717  0.00  0.00    +0.000 C 
ATOM      5  N   UNL     1       3.225   1.721  18.856  0.00  0.00    +0.000 N 
ATOM      6  C   UNL     1       4.025   2.595  19.555  0.00  0.00    +0.000 C 
ATOM      7  O   UNL     1       4.951   2.180  20.250  0.00  0.00    +0.000 OA
ATOM      8  C   UNL     1       3.622   4.084  19.486  0.00  0.00    +0.000 C 
ATOM      9  H   UNL     1       3.515   0.757  18.921  0.00  0.00    +0.000 HD
BRANCH   8  10
ATOM     10  C   UNL     1       2.469   4.207  20.518  0.00  0.00    +0.000 C 
ATOM     11  C   UNL     1       1.734   5.533  20.599  0.00  0.00    +0.000 C 
ENDBRANCH   8  10
ENDBRANCH   1   2
BRANCH   1  14
ATOM     12  C   UNL     1       6.912   6.893  17.702  0.00  0.00    +0.000 A 
ATOM     13  N   UNL     1       6.219   5.910  18.231  0.00  0.00    +0.000 NA
ATOM     14  C   UNL     1       5.462   5.486  17.161  0.00  0.00    +0.000 A 
ATOM     15  N   UNL     1       5.574   6.247  16.063  0.00  0.00    +0.000 NA
ATOM     16  O   UNL     1       6.555   7.179  16.416  0.00  0.00    +0.000 OA
BRANCH  12  17
ATOM     17  C   UNL     1       8.153   7.525  18.215  0.00  0.00    +0.000 C 
BRANCH  17  18
ATOM     18  C   UNL     1       8.126   9.039  17.952  0.00  0.00    +0.000 C 
BRANCH  18  20
ATOM     19  C   UNL     1       9.693  11.006  18.254  0.00  0.00    +0.000 C 
ATOM     20  C   UNL     1       9.018   9.823  18.925  0.00  0.00    +0.000 C 
ENDBRANCH  18  20
ENDBRANCH  17  18
ENDBRANCH  12  17
ENDBRANCH   1  14
TORSDOF 6
ENDMDL
MODEL 5
REMARK VINA RESULT:      -7.0      1.311      1.503
REMARK  Name = 
REMARK  8 active torsions:
REMARK  status: ('A' for Active; 'I' for Inactive)
REMARK    1  A    between atoms: C_1  and  C_2
REMARK    2  A    between atoms: C_2  and  C_3
REMARK    3  A    between atoms: C_3  and  C_4
REMARK    4  A    between atoms: C_4  and  C_5
REMARK    5  A    between atoms: C_7  and  C_8
REMARK    6  A    between atoms: C_8  and  N_9
REMARK    7  A    between atoms: C_15  and  C_16
REMARK    8  A    between atoms: C_16  and  C_17
REMARK                            x       y       z     vdW  Elec       q    Type
REMARK                         _______ _______ _______ _____ _____    ______ ____
ROOT
ATOM      1  C   UNL     1       6.098   4.542  18.039  0.00  0.00    +0.000 C 
ENDROOT
BRANCH   1   2
ATOM      2  N   UNL     1       4.802   5.257  18.323  0.00  0.00    +0.000 NA
ATOM      3  C   UNL     1       3.816   5.081  17.238  0.00  0.00    +0.000 C 
ATOM      4  C   UNL     1       3.319   3.634  17.052  0.00  0.00    +0.000 C 
ATOM      5  N   UNL     1       3.272   2.838  18.270  0.00  0.00    +0.000 N 
ATOM      6  C   UNL     1       3.921   3.204  19.427  0.00  0.00    +0.000 C 
ATOM      7  O   UNL     1       4.170   2.372  20.297  0.00  0.00    +0.000 OA
ATOM      8  C   UNL     1       4.213   4.711  19.591  0.00  0.00    +0.000 C 
ATOM      9  H   UNL     1       3.097   1.848  18.194  0.00  0.00    +0.000 HD
BRANCH   8  10
ATOM     10  C   UNL     1       2.864   5.303  20.081  0.00  0.00    +0.000 C 
ATOM     11  C   UNL     1       2.141   4.577  21.200  0.00  0.00    +0.000 C 
ENDBRANCH   8  10
ENDBRANCH   1   2
BRANCH   1  14
ATOM     12  C   UNL     1       6.961   4.454  14.613  0.00  0.00    +0.000 A 
ATOM     13  N   UNL     1       6.503   3.816  15.665  0.00  0.00    +0.000 NA
ATOM     14  C   UNL     1       6.627   4.769  16.653  0.00  0.00    +0.000 A 
ATOM     15  N   UNL     1       7.252   5.891  16.269  0.00  0.00    +0.000 NA
ATOM     16  O   UNL     1       7.463   5.690  14.902  0.00  0.00    +0.000 OA
BRANCH  12  17
ATOM     17  C   UNL     1       6.770   4.122  13.179  0.00  0.00    +0.000 C 
BRANCH  17  18
ATOM     18  C   UNL     1       5.305   3.739  12.914  0.00  0.00    +0.000 C 
BRANCH  18  20
ATOM     19  C   UNL     1       3.695   3.177  11.041  0.00  0.00    +0.000 C 
ATOM     20  C   UNL     1       5.115   3.037  11.561  0.00  0.00    +0.000 C 
ENDBRANCH  18  20
ENDBRANCH  17  18
ENDBRANCH  12  17
ENDBRANCH   1  14
TORSDOF 6
ENDMDL
MODEL 6
REMARK VINA RESULT:      -6.9      3.378      4.911
REMARK  Name = 
REMARK  8 active torsions:
REMARK  status: ('A' for Active; 'I' for Inactive)
REMARK    1  A    between atoms: C_1  and  C_2
REMARK    2  A    between atoms: C_2  and  C_3
REMARK    3  A    between atoms: C_3  and  C_4
REMARK    4  A    between atoms: C_4  and  C_5
REMARK    5  A    between atoms: C_7  and  C_8
REMARK    6  A    between atoms: C_8  and  N_9
REMARK    7  A    between atoms: C_15  and  C_16
REMARK    8  A    between atoms: C_16  and  C_17
REMARK                            x       y       z     vdW  Elec       q    Type
REMARK                         _______ _______ _______ _____ _____    ______ ____
ROOT
ATOM      1  C   UNL     1       5.209   4.559  18.632  0.00  0.00    +0.000 C 
ENDROOT
BRANCH   1   2
ATOM      2  N   UNL     1       4.198   4.952  19.678  0.00  0.00    +0.000 NA
ATOM      3  C   UNL     1       3.348   6.077  19.242  0.00  0.00    +0.000 C 
ATOM      4  C   UNL     1       2.426   5.758  18.048  0.00  0.00    +0.000 C 
ATOM      5  N   UNL     1       1.972   4.377  17.973  0.00  0.00    +0.000 N 
ATOM      6  C   UNL     1       2.562   3.357  18.684  0.00  0.00    +0.000 C 
ATOM      7  O   UNL     1       2.415   2.186  18.341  0.00  0.00    +0.000 OA
ATOM      8  C   UNL     1       3.314   3.774  19.966  0.00  0.00    +0.000 C 
ATOM      9  H   UNL     1       1.490   4.071  17.141  0.00  0.00    +0.000 HD
BRANCH   8  10
ATOM     10  C   UNL     1       2.187   3.949  21.021  0.00  0.00    +0.000 C 
ATOM     11  C   UNL     1       1.287   2.759  21.294  0.00  0.00    +0.000 C 
ENDBRANCH   8  10
ENDBRANCH   1   2
BRANCH   1  14
ATOM     12  C   UNL     1       7.511   7.144  17.913  0.00  0.00    +0.000 A 
ATOM     13  N   UNL     1       6.424   6.490  17.572  0.00  0.00    +0.000 NA
ATOM     14  C   UNL     1       6.374   5.500  18.529  0.00  0.00    +0.000 A 
ATOM     15  N   UNL     1       7.441   5.455  19.340  0.00  0.00    +0.000 NA
ATOM     16  O   UNL     1       8.195   6.563  18.941  0.00  0.00    +0.000 OA
BRANCH  12  17
ATOM     17  C   UNL     1       7.925   8.512  17.515  0.00  0.00    +0.000 C 
BRANCH  17  18
ATOM     18  C   UNL     1       8.710   9.182  18.654  0.00  0.00    +0.000 C 
BRANCH  18  20
ATOM     19  C   UNL     1      10.092  11.189  19.346  0.00  0.00    +0.000 C 
ATOM     20  C   UNL     1       9.141  10.616  18.311  0.00  0.00    +0.000 C 
ENDBRANCH  18  20
ENDBRANCH  17  18
ENDBRANCH  12  17
ENDBRANCH   1  14
TORSDOF 6
ENDMDL
MODEL 7
REMARK VINA RESULT:      -6.9      2.948      4.480
REMARK  Name = 
REMARK  8 active torsions:
REMARK  status: ('A' for Active; 'I' for Inactive)
REMARK    1  A    between atoms: C_1  and  C_2
REMARK    2  A    between atoms: C_2  and  C_3
REMARK    3  A    between atoms: C_3  and  C_4
REMARK    4  A    between atoms: C_4  and  C_5
REMARK    5  A    between atoms: C_7  and  C_8
REMARK    6  A    between atoms: C_8  and  N_9
REMARK    7  A    between atoms: C_15  and  C_16
REMARK    8  A    between atoms: C_16  and  C_17
REMARK                            x       y       z     vdW  Elec       q    Type
REMARK                         _______ _______ _______ _____ _____    ______ ____
ROOT
ATOM      1  C   UNL     1       5.245   4.051  17.546  0.00  0.00    +0.000 C 
ENDROOT
BRANCH   1   2
ATOM      2  N   UNL     1       3.888   4.400  18.102  0.00  0.00    +0.000 NA
ATOM      3  C   UNL     1       2.796   3.708  17.388  0.00  0.00    +0.000 C 
ATOM      4  C   UNL     1       2.795   2.175  17.551  0.00  0.00    +0.000 C 
ATOM      5  N   UNL     1       3.310   1.691  18.824  0.00  0.00    +0.000 N 
ATOM      6  C   UNL     1       4.048   2.478  19.679  0.00  0.00    +0.000 C 
ATOM      7  O   UNL     1       4.763   1.969  20.540  0.00  0.00    +0.000 OA
ATOM      8  C   UNL     1       3.837   4.001  19.547  0.00  0.00    +0.000 C 
ATOM      9  H   UNL     1       3.471   0.702  18.935  0.00  0.00    +0.000 HD
BRANCH   8  10
ATOM     10  C   UNL     1       2.522   4.266  20.330  0.00  0.00    +0.000 C 
ATOM     11  C   UNL     1       2.310   3.509  21.628  0.00  0.00    +0.000 C 
ENDBRANCH   8  10
ENDBRANCH   1   2
BRANCH   1  14
ATOM     12  C   UNL     1       7.334   6.901  17.622  0.00  0.00    +0.000 A 
ATOM     13  N   UNL     1       6.419   6.204  16.988  0.00  0.00    +0.000 NA
ATOM     14  C   UNL     1       6.292   5.096  17.797  0.00  0.00    +0.000 A 
ATOM     15  N   UNL     1       7.174   5.039  18.806  0.00  0.00    +0.000 NA
ATOM     16  O   UNL     1       7.861   6.252  18.700  0.00  0.00    +0.000 OA
BRANCH  12  17
ATOM     17  C   UNL     1       7.661   8.341  17.474  0.00  0.00    +0.000 C 
BRANCH  17  18
ATOM     18  C   UNL     1       8.572   8.799  18.625  0.00  0.00    +0.000 C 
BRANCH  18  20
ATOM     19  C   UNL     1       9.683  10.792  19.724  0.00  0.00    +0.000 C 
ATOM     20  C   UNL     1       9.056  10.247  18.454  0.00  0.00    +0.000 C 
ENDBRANCH  18  20
ENDBRANCH  17  18
ENDBRANCH  12  17
ENDBRANCH   1  14
TORSDOF 6
ENDMDL
MODEL 8
REMARK VINA RESULT:      -6.9      2.891      4.062
REMARK  Name = 
REMARK  8 active torsions:
REMARK  status: ('A' for Active; 'I' for Inactive)
REMARK    1  A    between atoms: C_1  and  C_2
REMARK    2  A    between atoms: C_2  and  C_3
REMARK    3  A    between atoms: C_3  and  C_4
REMARK    4  A    between atoms: C_4  and  C_5
REMARK    5  A    between atoms: C_7  and  C_8
REMARK    6  A    between atoms: C_8  and  N_9
REMARK    7  A    between atoms: C_15  and  C_16
REMARK    8  A    between atoms: C_16  and  C_17
REMARK                            x       y       z     vdW  Elec       q    Type
REMARK                         _______ _______ _______ _____ _____    ______ ____
ROOT
ATOM      1  C   UNL     1       3.799   3.495  18.096  0.00  0.00    +0.000 C 
ENDROOT
BRANCH   1   2
ATOM      2  N   UNL     1       2.672   4.395  18.532  0.00  0.00    +0.000 NA
ATOM      3  C   UNL     1       1.357   3.911  18.068  0.00  0.00    +0.000 C 
ATOM      4  C   UNL     1       0.915   2.569  18.684  0.00  0.00    +0.000 C 
ATOM      5  N   UNL     1       1.389   2.328  20.040  0.00  0.00    +0.000 N 
ATOM      6  C   UNL     1       2.412   3.050  20.612  0.00  0.00    +0.000 C 
ATOM      7  O   UNL     1       3.027   2.607  21.581  0.00  0.00    +0.000 OA
ATOM      8  C   UNL     1       2.652   4.459  20.031  0.00  0.00    +0.000 C 
ATOM      9  H   UNL     1       1.259   1.412  20.441  0.00  0.00    +0.000 HD
BRANCH   8  10
ATOM     10  C   UNL     1       1.563   5.334  20.709  0.00  0.00    +0.000 C 
ATOM     11  C   UNL     1       1.740   6.841  20.664  0.00  0.00    +0.000 C 
ENDBRANCH   8  10
ENDBRANCH   1   2
BRANCH   1  14
ATOM     12  C   UNL     1       6.757   5.350  17.546  0.00  0.00    +0.000 A 
ATOM     13  N   UNL     1       5.648   4.846  17.055  0.00  0.00    +0.000 NA
ATOM     14  C   UNL     1       5.150   4.149  18.134  0.00  0.00    +0.000 A 
ATOM     15  N   UNL     1       5.967   4.107  19.196  0.00  0.00    +0.000 NA
ATOM     16  O   UNL     1       7.035   4.923  18.812  0.00  0.00    +0.000 OA
BRANCH  12  17
ATOM     17  C   UNL     1       7.567   6.478  17.021  0.00  0.00    +0.000 C 
BRANCH  17  18
ATOM     18  C   UNL     1       7.948   7.435  18.162  0.00  0.00    +0.000 C 
BRANCH  18  20
ATOM     19  C   UNL     1       8.823   9.769  18.605  0.00  0.00    +0.000 C 
ATOM     20  C   UNL     1       7.936   8.907  17.726  0.00  0.00    +0.000 C 
ENDBRANCH  18  20
ENDBRANCH  17  18
ENDBRANCH  12  17
ENDBRANCH   1  14
TORSDOF 6
ENDMDL
MODEL 9
REMARK VINA RESULT:      -6.9      2.104      2.848
REMARK  Name = 
REMARK  8 active torsions:
REMARK  status: ('A' for Active; 'I' for Inactive)
REMARK    1  A    between atoms: C_1  and  C_2
REMARK    2  A    between atoms: C_2  and  C_3
REMARK    3  A    between atoms: C_3  and  C_4
REMARK    4  A    between atoms: C_4  and  C_5
REMARK    5  A    between atoms: C_7  and  C_8
REMARK    6  A    between atoms: C_8  and  N_9
REMARK    7  A    between atoms: C_15  and  C_16
REMARK    8  A    between atoms: C_16  and  C_17
REMARK                            x       y       z     vdW  Elec       q    Type
REMARK                         _______ _______ _______ _____ _____    ______ ____
ROOT
ATOM      1  C   UNL     1       4.948   5.730  17.023  0.00  0.00    +0.000 C 
ENDROOT
BRANCH   1   2
ATOM      2  N   UNL     1       4.999   4.847  18.243  0.00  0.00    +0.000 NA
ATOM      3  C   UNL     1       4.528   5.541  19.458  0.00  0.00    +0.000 C 
ATOM      4  C   UNL     1       3.035   5.926  19.436  0.00  0.00    +0.000 C 
ATOM      5  N   UNL     1       2.177   5.022  18.685  0.00  0.00    +0.000 N 
ATOM      6  C   UNL     1       2.667   4.099  17.789  0.00  0.00    +0.000 C 
ATOM      7  O   UNL     1       1.939   3.618  16.923  0.00  0.00    +0.000 OA
ATOM      8  C   UNL     1       4.126   3.648  18.013  0.00  0.00    +0.000 C 
ATOM      9  H   UNL     1       1.222   5.295  18.511  0.00  0.00    +0.000 HD
BRANCH   8  10
ATOM     10  C   UNL     1       4.023   2.594  19.148  0.00  0.00    +0.000 C 
ATOM     11  C   UNL     1       3.665   1.172  18.758  0.00  0.00    +0.000 C 
ENDBRANCH   8  10
ENDBRANCH   1   2
BRANCH   1  14
ATOM     12  C   UNL     1       6.516   4.369  14.163  0.00  0.00    +0.000 A 
ATOM     13  N   UNL     1       5.504   4.344  14.999  0.00  0.00    +0.000 NA
ATOM     14  C   UNL     1       5.871   5.300  15.921  0.00  0.00    +0.000 A 
ATOM     15  N   UNL     1       7.105   5.797  15.747  0.00  0.00    +0.000 NA
ATOM     16  O   UNL     1       7.532   5.188  14.563  0.00  0.00    +0.000 OA
BRANCH  12  17
ATOM     17  C   UNL     1       6.578   3.846  12.775  0.00  0.00    +0.000 C 
BRANCH  17  18
ATOM     18  C   UNL     1       5.221   3.243  12.375  0.00  0.00    +0.000 C 
BRANCH  18  20
ATOM     19  C   UNL     1       6.447   1.338  11.242  0.00  0.00    +0.000 C 
ATOM     20  C   UNL     1       5.318   2.347  11.131  0.00  0.00    +0.000 C 
ENDBRANCH  18  20
ENDBRANCH  17  18
ENDBRANCH  12  17
ENDBRANCH   1  14
TORSDOF 6
ENDMDL
