MODEL 1
REMARK VINA RESULT:      -9.1      0.000      0.000
REMARK  Name = 
REMARK  7 active torsions:
REMARK  status: ('A' for Active; 'I' for Inactive)
REMARK    1  A    between atoms: C_1  and  O_2
REMARK    2  A    between atoms: O_2  and  C_3
REMARK    3  A    between atoms: C_3  and  C_4
REMARK    4  A    between atoms: N_9  and  C_10
REMARK    5  A    between atoms: N_22  and  S_23
REMARK    6  A    between atoms: S_23  and  C_26
REMARK    7  A    between atoms: C_29  and  C_30
REMARK                            x       y       z     vdW  Elec       q    Type
REMARK                         _______ _______ _______ _____ _____    ______ ____
ROOT
ATOM      1  C   UNL     1       0.095  10.112  20.035  0.00  0.00    +0.000 C 
ATOM      2  C   UNL     1       1.178  10.264  18.905  0.00  0.00    +0.000 C 
ATOM      3  C   UNL     1       1.884   8.993  18.662  0.00  0.00    +0.000 A 
ATOM      4  C   UNL     1       2.803   8.608  17.683  0.00  0.00    +0.000 A 
ATOM      5  N   UNL     1       3.261   7.373  17.895  0.00  0.00    +0.000 NA
ATOM      6  N   UNL     1       2.489   6.895  18.920  0.00  0.00    +0.000 N 
ATOM      7  C   UNL     1       1.817   7.938  19.540  0.00  0.00    +0.000 A 
ATOM      8  C   UNL     1       1.203   7.952  20.817  0.00  0.00    +0.000 C 
ATOM      9  C   UNL     1       0.414   9.018  21.098  0.00  0.00    +0.000 C 
ATOM     10  C   UNL     1      -0.374   9.145  22.392  0.00  0.00    +0.000 C 
ATOM     11  C   UNL     1      -0.627  10.582  22.890  0.00  0.00    +0.000 C 
ATOM     12  N   UNL     1      -0.961  11.541  21.794  0.00  0.00    +0.000 NA
ATOM     13  C   UNL     1       0.023  11.506  20.690  0.00  0.00    +0.000 C 
ENDROOT
BRANCH   6  14
ATOM     14  C   UNL     1       2.363   5.488  19.072  0.00  0.00    +0.000 A 
ATOM     15  C   UNL     1       1.913   4.726  17.980  0.00  0.00    +0.000 A 
ATOM     16  C   UNL     1       1.698   3.356  18.123  0.00  0.00    +0.000 A 
ATOM     17  C   UNL     1       1.895   2.760  19.362  0.00  0.00    +0.000 A 
ATOM     18  F   UNL     1       1.666   1.449  19.507  0.00  0.00    +0.000 F 
ATOM     19  C   UNL     1       2.308   3.509  20.461  0.00  0.00    +0.000 A 
ATOM     20  C   UNL     1       2.556   4.877  20.318  0.00  0.00    +0.000 A 
ENDBRANCH   6  14
BRANCH  12  21
ATOM     21  S   UNL     1      -1.413  13.127  22.295  0.00  0.00    +0.000 S 
ATOM     22  O   UNL     1      -0.692  13.469  23.501  0.00  0.00    +0.000 OA
ATOM     23  O   UNL     1      -1.354  13.980  21.129  0.00  0.00    +0.000 OA
BRANCH  21  24
ATOM     24  C   UNL     1      -3.133  12.932  22.719  0.00  0.00    +0.000 A 
ATOM     25  C   UNL     1      -4.137  13.085  21.756  0.00  0.00    +0.000 A 
ATOM     26  C   UNL     1      -5.475  13.064  22.165  0.00  0.00    +0.000 A 
ATOM     27  C   UNL     1      -5.808  12.878  23.516  0.00  0.00    +0.000 A 
ATOM     28  C   UNL     1      -7.233  12.936  23.985  0.00  0.00    +0.000 C 
ATOM     29  C   UNL     1      -4.790  12.665  24.453  0.00  0.00    +0.000 A 
ATOM     30  C   UNL     1      -3.457  12.672  24.054  0.00  0.00    +0.000 A 
ENDBRANCH  21  24
ENDBRANCH  12  21
BRANCH   1  31
ATOM     31  C   UNL     1      -1.268   9.666  19.438  0.00  0.00    +0.000 C 
BRANCH  31  33
ATOM     32  C   UNL     1      -2.568   9.958  17.525  0.00  0.00    +0.000 C 
ATOM     33  O   UNL     1      -1.849  10.625  18.562  0.00  0.00    +0.000 OA
ENDBRANCH  31  33
ENDBRANCH   1  31
TORSDOF 5
ENDMDL
MODEL 2
REMARK VINA RESULT:      -8.8      0.275      1.221
REMARK  Name = 
REMARK  7 active torsions:
REMARK  status: ('A' for Active; 'I' for Inactive)
REMARK    1  A    between atoms: C_1  and  O_2
REMARK    2  A    between atoms: O_2  and  C_3
REMARK    3  A    between atoms: C_3  and  C_4
REMARK    4  A    between atoms: N_9  and  C_10
REMARK    5  A    between atoms: N_22  and  S_23
REMARK    6  A    between atoms: S_23  and  C_26
REMARK    7  A    between atoms: C_29  and  C_30
REMARK                            x       y       z     vdW  Elec       q    Type
REMARK                         _______ _______ _______ _____ _____    ______ ____
ROOT
ATOM      1  C   UNL     1       0.200  10.208  19.999  0.00  0.00    +0.000 C 
ATOM      2  C   UNL     1       1.326  10.288  18.903  0.00  0.00    +0.000 C 
ATOM      3  C   UNL     1       1.946   8.971  18.672  0.00  0.00    +0.000 A 
ATOM      4  C   UNL     1       2.865   8.525  17.719  0.00  0.00    +0.000 A 
ATOM      5  N   UNL     1       3.227   7.260  17.937  0.00  0.00    +0.000 NA
ATOM      6  N   UNL     1       2.391   6.833  18.935  0.00  0.00    +0.000 N 
ATOM      7  C   UNL     1       1.777   7.919  19.540  0.00  0.00    +0.000 A 
ATOM      8  C   UNL     1       1.126   7.971  20.799  0.00  0.00    +0.000 C 
ATOM      9  C   UNL     1       0.407   9.090  21.063  0.00  0.00    +0.000 C 
ATOM     10  C   UNL     1      -0.409   9.266  22.333  0.00  0.00    +0.000 C 
ATOM     11  C   UNL     1      -0.573  10.715  22.833  0.00  0.00    +0.000 C 
ATOM     12  N   UNL     1      -0.804  11.701  21.734  0.00  0.00    +0.000 NA
ATOM     13  C   UNL     1       0.208  11.601  20.661  0.00  0.00    +0.000 C 
ENDROOT
BRANCH   6  14
ATOM     14  C   UNL     1       2.161   5.439  19.072  0.00  0.00    +0.000 A 
ATOM     15  C   UNL     1       2.422   4.827  20.310  0.00  0.00    +0.000 A 
ATOM     16  C   UNL     1       2.288   3.446  20.452  0.00  0.00    +0.000 A 
ATOM     17  C   UNL     1       1.932   2.679  19.351  0.00  0.00    +0.000 A 
ATOM     18  F   UNL     1       1.826   1.351  19.480  0.00  0.00    +0.000 F 
ATOM     19  C   UNL     1       1.702   3.267  18.110  0.00  0.00    +0.000 A 
ATOM     20  C   UNL     1       1.805   4.654  17.967  0.00  0.00    +0.000 A 
ENDBRANCH   6  14
BRANCH  12  21
ATOM     21  S   UNL     1      -1.157  13.312  22.233  0.00  0.00    +0.000 S 
ATOM     22  O   UNL     1      -0.402  13.618  23.428  0.00  0.00    +0.000 OA
ATOM     23  O   UNL     1      -1.064  14.155  21.062  0.00  0.00    +0.000 OA
BRANCH  21  24
ATOM     24  C   UNL     1      -2.879  13.220  22.681  0.00  0.00    +0.000 A 
ATOM     25  C   UNL     1      -3.276  13.154  24.021  0.00  0.00    +0.000 A 
ATOM     26  C   UNL     1      -4.626  12.939  24.318  0.00  0.00    +0.000 A 
ATOM     27  C   UNL     1      -5.573  12.806  23.289  0.00  0.00    +0.000 A 
ATOM     28  C   UNL     1      -7.010  12.492  23.585  0.00  0.00    +0.000 C 
ATOM     29  C   UNL     1      -5.164  12.936  21.957  0.00  0.00    +0.000 A 
ATOM     30  C   UNL     1      -3.825  13.162  21.653  0.00  0.00    +0.000 A 
ENDBRANCH  21  24
ENDBRANCH  12  21
BRANCH   1  31
ATOM     31  C   UNL     1      -1.172   9.865  19.357  0.00  0.00    +0.000 C 
BRANCH  31  33
ATOM     32  C   UNL     1      -2.482   9.905  17.429  0.00  0.00    +0.000 C 
ATOM     33  O   UNL     1      -1.417  10.544  18.132  0.00  0.00    +0.000 OA
ENDBRANCH  31  33
ENDBRANCH   1  31
TORSDOF 5
ENDMDL
MODEL 3
REMARK VINA RESULT:      -8.3      0.927      1.120
REMARK  Name = 
REMARK  7 active torsions:
REMARK  status: ('A' for Active; 'I' for Inactive)
REMARK    1  A    between atoms: C_1  and  O_2
REMARK    2  A    between atoms: O_2  and  C_3
REMARK    3  A    between atoms: C_3  and  C_4
REMARK    4  A    between atoms: N_9  and  C_10
REMARK    5  A    between atoms: N_22  and  S_23
REMARK    6  A    between atoms: S_23  and  C_26
REMARK    7  A    between atoms: C_29  and  C_30
REMARK                            x       y       z     vdW  Elec       q    Type
REMARK                         _______ _______ _______ _____ _____    ______ ____
ROOT
ATOM      1  C   UNL     1       0.295  10.301  19.942  0.00  0.00    +0.000 C 
ATOM      2  C   UNL     1       1.425  10.349  18.848  0.00  0.00    +0.000 C 
ATOM      3  C   UNL     1       2.014   9.017  18.625  0.00  0.00    +0.000 A 
ATOM      4  C   UNL     1       2.923   8.545  17.675  0.00  0.00    +0.000 A 
ATOM      5  N   UNL     1       3.255   7.272  17.899  0.00  0.00    +0.000 NA
ATOM      6  N   UNL     1       2.408   6.870  18.898  0.00  0.00    +0.000 N 
ATOM      7  C   UNL     1       1.819   7.973  19.497  0.00  0.00    +0.000 A 
ATOM      8  C   UNL     1       1.167   8.046  20.754  0.00  0.00    +0.000 C 
ATOM      9  C   UNL     1       0.474   9.183  21.012  0.00  0.00    +0.000 C 
ATOM     10  C   UNL     1      -0.341   9.385  22.280  0.00  0.00    +0.000 C 
ATOM     11  C   UNL     1      -0.472  10.840  22.772  0.00  0.00    +0.000 C 
ATOM     12  N   UNL     1      -0.677  11.825  21.669  0.00  0.00    +0.000 NA
ATOM     13  C   UNL     1       0.335  11.696  20.598  0.00  0.00    +0.000 C 
ENDROOT
BRANCH   6  14
ATOM     14  C   UNL     1       2.144   5.482  19.041  0.00  0.00    +0.000 A 
ATOM     15  C   UNL     1       2.020   4.692  17.885  0.00  0.00    +0.000 A 
ATOM     16  C   UNL     1       1.677   3.345  17.991  0.00  0.00    +0.000 A 
ATOM     17  C   UNL     1       1.422   2.802  19.243  0.00  0.00    +0.000 A 
ATOM     18  F   UNL     1       1.069   1.515  19.344  0.00  0.00    +0.000 F 
ATOM     19  C   UNL     1       1.509   3.581  20.394  0.00  0.00    +0.000 A 
ATOM     20  C   UNL     1       1.882   4.925  20.300  0.00  0.00    +0.000 A 
ENDBRANCH   6  14
BRANCH  12  21
ATOM     21  S   UNL     1      -0.992  13.447  22.159  0.00  0.00    +0.000 S 
ATOM     22  O   UNL     1      -0.823  13.554  23.591  0.00  0.00    +0.000 OA
ATOM     23  O   UNL     1      -0.267  14.317  21.260  0.00  0.00    +0.000 OA
BRANCH  21  24
ATOM     24  C   UNL     1      -2.726  13.640  21.795  0.00  0.00    +0.000 A 
ATOM     25  C   UNL     1      -3.192  14.731  21.053  0.00  0.00    +0.000 A 
ATOM     26  C   UNL     1      -4.572  14.915  20.914  0.00  0.00    +0.000 A 
ATOM     27  C   UNL     1      -5.477  14.013  21.497  0.00  0.00    +0.000 A 
ATOM     28  C   UNL     1      -6.959  14.240  21.431  0.00  0.00    +0.000 C 
ATOM     29  C   UNL     1      -4.989  12.895  22.183  0.00  0.00    +0.000 A 
ATOM     30  C   UNL     1      -3.618  12.697  22.315  0.00  0.00    +0.000 A 
ENDBRANCH  21  24
ENDBRANCH  12  21
BRANCH   1  31
ATOM     31  C   UNL     1      -1.083   9.987  19.299  0.00  0.00    +0.000 C 
BRANCH  31  33
ATOM     32  C   UNL     1      -2.051  11.450  17.763  0.00  0.00    +0.000 C 
ATOM     33  O   UNL     1      -1.167  10.341  17.924  0.00  0.00    +0.000 OA
ENDBRANCH  31  33
ENDBRANCH   1  31
TORSDOF 5
ENDMDL
MODEL 4
REMARK VINA RESULT:      -8.3      1.447      1.760
REMARK  Name = 
REMARK  7 active torsions:
REMARK  status: ('A' for Active; 'I' for Inactive)
REMARK    1  A    between atoms: C_1  and  O_2
REMARK    2  A    between atoms: O_2  and  C_3
REMARK    3  A    between atoms: C_3  and  C_4
REMARK    4  A    between atoms: N_9  and  C_10
REMARK    5  A    between atoms: N_22  and  S_23
REMARK    6  A    between atoms: S_23  and  C_26
REMARK    7  A    between atoms: C_29  and  C_30
REMARK                            x       y       z     vdW  Elec       q    Type
REMARK                         _______ _______ _______ _____ _____    ______ ____
ROOT
ATOM      1  C   UNL     1       0.298  10.277  19.853  0.00  0.00    +0.000 C 
ATOM      2  C   UNL     1       1.438  10.306  18.769  0.00  0.00    +0.000 C 
ATOM      3  C   UNL     1       2.032   8.971  18.578  0.00  0.00    +0.000 A 
ATOM      4  C   UNL     1       2.952   8.482  17.646  0.00  0.00    +0.000 A 
ATOM      5  N   UNL     1       3.284   7.215  17.899  0.00  0.00    +0.000 NA
ATOM      6  N   UNL     1       2.428   6.831  18.897  0.00  0.00    +0.000 N 
ATOM      7  C   UNL     1       1.831   7.944  19.469  0.00  0.00    +0.000 A 
ATOM      8  C   UNL     1       1.167   8.041  20.718  0.00  0.00    +0.000 C 
ATOM      9  C   UNL     1       0.469   9.180  20.946  0.00  0.00    +0.000 C 
ATOM     10  C   UNL     1      -0.358   9.405  22.202  0.00  0.00    +0.000 C 
ATOM     11  C   UNL     1      -0.497  10.869  22.664  0.00  0.00    +0.000 C 
ATOM     12  N   UNL     1      -0.694  11.832  21.539  0.00  0.00    +0.000 NA
ATOM     13  C   UNL     1       0.328  11.684  20.481  0.00  0.00    +0.000 C 
ENDROOT
BRANCH   6  14
ATOM     14  C   UNL     1       2.167   5.445  19.066  0.00  0.00    +0.000 A 
ATOM     15  C   UNL     1       2.387   4.861  20.325  0.00  0.00    +0.000 A 
ATOM     16  C   UNL     1       2.221   3.488  20.500  0.00  0.00    +0.000 A 
ATOM     17  C   UNL     1       1.875   2.699  19.412  0.00  0.00    +0.000 A 
ATOM     18  F   UNL     1       1.739   1.377  19.572  0.00  0.00    +0.000 F 
ATOM     19  C   UNL     1       1.686   3.259  18.151  0.00  0.00    +0.000 A 
ATOM     20  C   UNL     1       1.820   4.639  17.973  0.00  0.00    +0.000 A 
ENDBRANCH   6  14
BRANCH  12  21
ATOM     21  S   UNL     1      -1.018  13.462  21.994  0.00  0.00    +0.000 S 
ATOM     22  O   UNL     1      -1.144  13.541  23.432  0.00  0.00    +0.000 OA
ATOM     23  O   UNL     1      -0.077  14.302  21.286  0.00  0.00    +0.000 OA
BRANCH  21  24
ATOM     24  C   UNL     1      -2.626  13.759  21.284  0.00  0.00    +0.000 A 
ATOM     25  C   UNL     1      -3.293  14.972  21.487  0.00  0.00    +0.000 A 
ATOM     26  C   UNL     1      -4.609  15.105  21.031  0.00  0.00    +0.000 A 
ATOM     27  C   UNL     1      -5.247  14.045  20.367  0.00  0.00    +0.000 A 
ATOM     28  C   UNL     1      -6.685  14.138  19.946  0.00  0.00    +0.000 C 
ATOM     29  C   UNL     1      -4.540  12.863  20.121  0.00  0.00    +0.000 A 
ATOM     30  C   UNL     1      -3.227  12.726  20.559  0.00  0.00    +0.000 A 
ENDBRANCH  21  24
ENDBRANCH  12  21
BRANCH   1  31
ATOM     31  C   UNL     1      -1.074   9.946  19.203  0.00  0.00    +0.000 C 
BRANCH  31  33
ATOM     32  C   UNL     1      -2.247  10.018  17.189  0.00  0.00    +0.000 C 
ATOM     33  O   UNL     1      -1.368  10.735  18.056  0.00  0.00    +0.000 OA
ENDBRANCH  31  33
ENDBRANCH   1  31
TORSDOF 5
ENDMDL
MODEL 5
REMARK VINA RESULT:      -8.2      2.390      3.551
REMARK  Name = 
REMARK  7 active torsions:
REMARK  status: ('A' for Active; 'I' for Inactive)
REMARK    1  A    between atoms: C_1  and  O_2
REMARK    2  A    between atoms: O_2  and  C_3
REMARK    3  A    between atoms: C_3  and  C_4
REMARK    4  A    between atoms: N_9  and  C_10
REMARK    5  A    between atoms: N_22  and  S_23
REMARK    6  A    between atoms: S_23  and  C_26
REMARK    7  A    between atoms: C_29  and  C_30
REMARK                            x       y       z     vdW  Elec       q    Type
REMARK                         _______ _______ _______ _____ _____    ______ ____
ROOT
ATOM      1  C   UNL     1       0.253  10.227  19.956  0.00  0.00    +0.000 C 
ATOM      2  C   UNL     1       1.373  10.297  18.854  0.00  0.00    +0.000 C 
ATOM      3  C   UNL     1       1.989   8.977  18.628  0.00  0.00    +0.000 A 
ATOM      4  C   UNL     1       2.901   8.523  17.672  0.00  0.00    +0.000 A 
ATOM      5  N   UNL     1       3.261   7.258  17.896  0.00  0.00    +0.000 NA
ATOM      6  N   UNL     1       2.430   6.840  18.901  0.00  0.00    +0.000 N 
ATOM      7  C   UNL     1       1.822   7.931  19.504  0.00  0.00    +0.000 A 
ATOM      8  C   UNL     1       1.178   7.993  20.765  0.00  0.00    +0.000 C 
ATOM      9  C   UNL     1       0.463   9.115  21.026  0.00  0.00    +0.000 C 
ATOM     10  C   UNL     1      -0.345   9.302  22.300  0.00  0.00    +0.000 C 
ATOM     11  C   UNL     1      -0.503  10.755  22.791  0.00  0.00    +0.000 C 
ATOM     12  N   UNL     1      -0.738  11.734  21.687  0.00  0.00    +0.000 NA
ATOM     13  C   UNL     1       0.268  11.624  20.609  0.00  0.00    +0.000 C 
ENDROOT
BRANCH   6  14
ATOM     14  C   UNL     1       2.197   5.447  19.049  0.00  0.00    +0.000 A 
ATOM     15  C   UNL     1       2.134   4.643  17.898  0.00  0.00    +0.000 A 
ATOM     16  C   UNL     1       1.822   3.289  18.004  0.00  0.00    +0.000 A 
ATOM     17  C   UNL     1       1.537   2.751  19.252  0.00  0.00    +0.000 A 
ATOM     18  F   UNL     1       1.213   1.456  19.353  0.00  0.00    +0.000 F 
ATOM     19  C   UNL     1       1.563   3.542  20.398  0.00  0.00    +0.000 A 
ATOM     20  C   UNL     1       1.904   4.894  20.303  0.00  0.00    +0.000 A 
ENDBRANCH   6  14
BRANCH  12  21
ATOM     21  S   UNL     1      -1.083  13.349  22.177  0.00  0.00    +0.000 S 
ATOM     22  O   UNL     1      -2.481  13.632  21.937  0.00  0.00    +0.000 OA
ATOM     23  O   UNL     1      -0.504  13.535  23.489  0.00  0.00    +0.000 OA
BRANCH  21  24
ATOM     24  C   UNL     1      -0.122  14.323  21.035  0.00  0.00    +0.000 A 
ATOM     25  C   UNL     1      -0.640  14.698  19.790  0.00  0.00    +0.000 A 
ATOM     26  C   UNL     1       0.200  15.338  18.873  0.00  0.00    +0.000 A 
ATOM     27  C   UNL     1       1.538  15.614  19.198  0.00  0.00    +0.000 A 
ATOM     28  C   UNL     1       2.477  16.223  18.198  0.00  0.00    +0.000 C 
ATOM     29  C   UNL     1       2.018  15.285  20.471  0.00  0.00    +0.000 A 
ATOM     30  C   UNL     1       1.187  14.659  21.394  0.00  0.00    +0.000 A 
ENDBRANCH  21  24
ENDBRANCH  12  21
BRANCH   1  31
ATOM     31  C   UNL     1      -1.123   9.883  19.324  0.00  0.00    +0.000 C 
BRANCH  31  33
ATOM     32  C   UNL     1      -2.054   9.951  17.187  0.00  0.00    +0.000 C 
ATOM     33  O   UNL     1      -1.482  10.729  18.238  0.00  0.00    +0.000 OA
ENDBRANCH  31  33
ENDBRANCH   1  31
TORSDOF 5
ENDMDL
MODEL 6
REMARK VINA RESULT:      -8.1      2.383      3.683
REMARK  Name = 
REMARK  7 active torsions:
REMARK  status: ('A' for Active; 'I' for Inactive)
REMARK    1  A    between atoms: C_1  and  O_2
REMARK    2  A    between atoms: O_2  and  C_3
REMARK    3  A    between atoms: C_3  and  C_4
REMARK    4  A    between atoms: N_9  and  C_10
REMARK    5  A    between atoms: N_22  and  S_23
REMARK    6  A    between atoms: S_23  and  C_26
REMARK    7  A    between atoms: C_29  and  C_30
REMARK                            x       y       z     vdW  Elec       q    Type
REMARK                         _______ _______ _______ _____ _____    ______ ____
ROOT
ATOM      1  C   UNL     1       0.275  10.215  19.921  0.00  0.00    +0.000 C 
ATOM      2  C   UNL     1       1.410  10.260  18.833  0.00  0.00    +0.000 C 
ATOM      3  C   UNL     1       2.008   8.929  18.624  0.00  0.00    +0.000 A 
ATOM      4  C   UNL     1       2.925   8.454  17.683  0.00  0.00    +0.000 A 
ATOM      5  N   UNL     1       3.262   7.185  17.920  0.00  0.00    +0.000 NA
ATOM      6  N   UNL     1       2.413   6.787  18.918  0.00  0.00    +0.000 N 
ATOM      7  C   UNL     1       1.814   7.892  19.505  0.00  0.00    +0.000 A 
ATOM      8  C   UNL     1       1.156   7.972  20.758  0.00  0.00    +0.000 C 
ATOM      9  C   UNL     1       0.455   9.107  21.002  0.00  0.00    +0.000 C 
ATOM     10  C   UNL     1      -0.367   9.315  22.264  0.00  0.00    +0.000 C 
ATOM     11  C   UNL     1      -0.508  10.774  22.743  0.00  0.00    +0.000 C 
ATOM     12  N   UNL     1      -0.714  11.749  21.630  0.00  0.00    +0.000 NA
ATOM     13  C   UNL     1       0.304  11.616  20.565  0.00  0.00    +0.000 C 
ENDROOT
BRANCH   6  14
ATOM     14  C   UNL     1       2.156   5.399  19.072  0.00  0.00    +0.000 A 
ATOM     15  C   UNL     1       2.396   4.799  20.321  0.00  0.00    +0.000 A 
ATOM     16  C   UNL     1       2.236   3.424  20.480  0.00  0.00    +0.000 A 
ATOM     17  C   UNL     1       1.875   2.648  19.387  0.00  0.00    +0.000 A 
ATOM     18  F   UNL     1       1.745   1.324  19.533  0.00  0.00    +0.000 F 
ATOM     19  C   UNL     1       1.667   3.223  18.136  0.00  0.00    +0.000 A 
ATOM     20  C   UNL     1       1.796   4.606  17.975  0.00  0.00    +0.000 A 
ENDBRANCH   6  14
BRANCH  12  21
ATOM     21  S   UNL     1      -1.041  13.372  22.104  0.00  0.00    +0.000 S 
ATOM     22  O   UNL     1      -2.445  13.654  21.908  0.00  0.00    +0.000 OA
ATOM     23  O   UNL     1      -0.416  13.579  23.392  0.00  0.00    +0.000 OA
BRANCH  21  24
ATOM     24  C   UNL     1      -0.118  14.325  20.913  0.00  0.00    +0.000 A 
ATOM     25  C   UNL     1       1.175  14.778  21.195  0.00  0.00    +0.000 A 
ATOM     26  C   UNL     1       1.803  15.640  20.289  0.00  0.00    +0.000 A 
ATOM     27  C   UNL     1       1.154  16.034  19.108  0.00  0.00    +0.000 A 
ATOM     28  C   UNL     1       1.776  17.023  18.166  0.00  0.00    +0.000 C 
ATOM     29  C   UNL     1      -0.115  15.520  18.817  0.00  0.00    +0.000 A 
ATOM     30  C   UNL     1      -0.742  14.653  19.706  0.00  0.00    +0.000 A 
ENDBRANCH  21  24
ENDBRANCH  12  21
BRANCH   1  31
ATOM     31  C   UNL     1      -1.098   9.887  19.275  0.00  0.00    +0.000 C 
BRANCH  31  33
ATOM     32  C   UNL     1      -1.908  10.012  17.092  0.00  0.00    +0.000 C 
ATOM     33  O   UNL     1      -1.456  10.767  18.216  0.00  0.00    +0.000 OA
ENDBRANCH  31  33
ENDBRANCH   1  31
TORSDOF 5
ENDMDL
MODEL 7
REMARK VINA RESULT:      -8.1      5.067     10.343
REMARK  Name = 
REMARK  7 active torsions:
REMARK  status: ('A' for Active; 'I' for Inactive)
REMARK    1  A    between atoms: C_1  and  O_2
REMARK    2  A    between atoms: O_2  and  C_3
REMARK    3  A    between atoms: C_3  and  C_4
REMARK    4  A    between atoms: N_9  and  C_10
REMARK    5  A    between atoms: N_22  and  S_23
REMARK    6  A    between atoms: S_23  and  C_26
REMARK    7  A    between atoms: C_29  and  C_30
REMARK                            x       y       z     vdW  Elec       q    Type
REMARK                         _______ _______ _______ _____ _____    ______ ____
ROOT
ATOM      1  C   UNL     1       2.581   6.769  19.291  0.00  0.00    +0.000 C 
ATOM      2  C   UNL     1       2.164   7.112  20.769  0.00  0.00    +0.000 C 
ATOM      3  C   UNL     1       1.162   8.192  20.807  0.00  0.00    +0.000 A 
ATOM      4  C   UNL     1       0.405   8.726  21.853  0.00  0.00    +0.000 A 
ATOM      5  N   UNL     1      -0.323   9.770  21.451  0.00  0.00    +0.000 NA
ATOM      6  N   UNL     1      -0.169   9.790  20.090  0.00  0.00    +0.000 N 
ATOM      7  C   UNL     1       0.903   8.991  19.719  0.00  0.00    +0.000 A 
ATOM      8  C   UNL     1       1.617   8.991  18.495  0.00  0.00    +0.000 C 
ATOM      9  C   UNL     1       2.473   7.959  18.292  0.00  0.00    +0.000 C 
ATOM     10  C   UNL     1       3.254   7.775  17.001  0.00  0.00    +0.000 C 
ATOM     11  C   UNL     1       4.616   7.066  17.133  0.00  0.00    +0.000 C 
ATOM     12  N   UNL     1       4.600   5.917  18.087  0.00  0.00    +0.000 NA
ATOM     13  C   UNL     1       4.040   6.283  19.406  0.00  0.00    +0.000 C 
ENDROOT
BRANCH   6  14
ATOM     14  C   UNL     1      -1.162  10.435  19.307  0.00  0.00    +0.000 A 
ATOM     15  C   UNL     1      -1.798  11.577  19.824  0.00  0.00    +0.000 A 
ATOM     16  C   UNL     1      -2.836  12.182  19.117  0.00  0.00    +0.000 A 
ATOM     17  C   UNL     1      -3.260  11.625  17.918  0.00  0.00    +0.000 A 
ATOM     18  F   UNL     1      -4.272  12.190  17.250  0.00  0.00    +0.000 F 
ATOM     19  C   UNL     1      -2.661  10.475  17.409  0.00  0.00    +0.000 A 
ATOM     20  C   UNL     1      -1.599   9.880  18.097  0.00  0.00    +0.000 A 
ENDBRANCH   6  14
BRANCH  12  21
ATOM     21  S   UNL     1       6.044   4.981  18.162  0.00  0.00    +0.000 S 
ATOM     22  O   UNL     1       7.138   5.824  18.592  0.00  0.00    +0.000 OA
ATOM     23  O   UNL     1       5.730   3.758  18.866  0.00  0.00    +0.000 OA
BRANCH  21  24
ATOM     24  C   UNL     1       6.323   4.549  16.455  0.00  0.00    +0.000 A 
ATOM     25  C   UNL     1       7.376   5.116  15.728  0.00  0.00    +0.000 A 
ATOM     26  C   UNL     1       7.469   4.856  14.357  0.00  0.00    +0.000 A 
ATOM     27  C   UNL     1       6.531   4.027  13.720  0.00  0.00    +0.000 A 
ATOM     28  C   UNL     1       6.564   3.804  12.236  0.00  0.00    +0.000 C 
ATOM     29  C   UNL     1       5.522   3.421  14.478  0.00  0.00    +0.000 A 
ATOM     30  C   UNL     1       5.430   3.664  15.845  0.00  0.00    +0.000 A 
ENDBRANCH  21  24
ENDBRANCH  12  21
BRANCH   1  31
ATOM     31  C   UNL     1       1.643   5.688  18.689  0.00  0.00    +0.000 C 
BRANCH  31  33
ATOM     32  C   UNL     1       1.893   3.407  18.275  0.00  0.00    +0.000 C 
ATOM     33  O   UNL     1       1.786   4.406  19.288  0.00  0.00    +0.000 OA
ENDBRANCH  31  33
ENDBRANCH   1  31
TORSDOF 5
ENDMDL
MODEL 8
REMARK VINA RESULT:      -8.0      1.120      1.298
REMARK  Name = 
REMARK  7 active torsions:
REMARK  status: ('A' for Active; 'I' for Inactive)
REMARK    1  A    between atoms: C_1  and  O_2
REMARK    2  A    between atoms: O_2  and  C_3
REMARK    3  A    between atoms: C_3  and  C_4
REMARK    4  A    between atoms: N_9  and  C_10
REMARK    5  A    between atoms: N_22  and  S_23
REMARK    6  A    between atoms: S_23  and  C_26
REMARK    7  A    between atoms: C_29  and  C_30
REMARK                            x       y       z     vdW  Elec       q    Type
REMARK                         _______ _______ _______ _____ _____    ______ ____
ROOT
ATOM      1  C   UNL     1       0.974   9.731  19.086  0.00  0.00    +0.000 C 
ATOM      2  C   UNL     1       2.148   9.684  18.041  0.00  0.00    +0.000 C 
ATOM      3  C   UNL     1       2.735   8.335  17.952  0.00  0.00    +0.000 A 
ATOM      4  C   UNL     1       3.680   7.782  17.084  0.00  0.00    +0.000 A 
ATOM      5  N   UNL     1       3.991   6.531  17.426  0.00  0.00    +0.000 NA
ATOM      6  N   UNL     1       3.100   6.216  18.417  0.00  0.00    +0.000 N 
ATOM      7  C   UNL     1       2.496   7.367  18.898  0.00  0.00    +0.000 A 
ATOM      8  C   UNL     1       1.793   7.547  20.117  0.00  0.00    +0.000 C 
ATOM      9  C   UNL     1       1.099   8.704  20.251  0.00  0.00    +0.000 C 
ATOM     10  C   UNL     1       0.234   9.013  21.462  0.00  0.00    +0.000 C 
ATOM     11  C   UNL     1       0.094  10.504  21.828  0.00  0.00    +0.000 C 
ATOM     12  N   UNL     1      -0.057  11.397  20.639  0.00  0.00    +0.000 NA
ATOM     13  C   UNL     1       0.997  11.175  19.626  0.00  0.00    +0.000 C 
ENDROOT
BRANCH   6  14
ATOM     14  C   UNL     1       2.820   4.846  18.663  0.00  0.00    +0.000 A 
ATOM     15  C   UNL     1       1.655   4.283  18.115  0.00  0.00    +0.000 A 
ATOM     16  C   UNL     1       1.308   2.965  18.409  0.00  0.00    +0.000 A 
ATOM     17  C   UNL     1       2.102   2.228  19.276  0.00  0.00    +0.000 A 
ATOM     18  F   UNL     1       1.758   0.970  19.579  0.00  0.00    +0.000 F 
ATOM     19  C   UNL     1       3.242   2.783  19.853  0.00  0.00    +0.000 A 
ATOM     20  C   UNL     1       3.613   4.094  19.540  0.00  0.00    +0.000 A 
ENDBRANCH   6  14
BRANCH  12  21
ATOM     21  S   UNL     1      -0.379  13.054  20.981  0.00  0.00    +0.000 S 
ATOM     22  O   UNL     1       0.589  13.541  21.938  0.00  0.00    +0.000 OA
ATOM     23  O   UNL     1      -0.573  13.726  19.715  0.00  0.00    +0.000 OA
BRANCH  21  24
ATOM     24  C   UNL     1      -1.966  12.990  21.790  0.00  0.00    +0.000 A 
ATOM     25  C   UNL     1      -3.149  12.865  21.053  0.00  0.00    +0.000 A 
ATOM     26  C   UNL     1      -4.375  12.961  21.720  0.00  0.00    +0.000 A 
ATOM     27  C   UNL     1      -4.421  13.167  23.108  0.00  0.00    +0.000 A 
ATOM     28  C   UNL     1      -5.724  13.357  23.828  0.00  0.00    +0.000 C 
ATOM     29  C   UNL     1      -3.226  13.228  23.834  0.00  0.00    +0.000 A 
ATOM     30  C   UNL     1      -2.002  13.120  23.181  0.00  0.00    +0.000 A 
ENDBRANCH  21  24
ENDBRANCH  12  21
BRANCH   1  31
ATOM     31  C   UNL     1      -0.379   9.371  18.414  0.00  0.00    +0.000 C 
BRANCH  31  33
ATOM     32  C   UNL     1      -2.432  10.203  17.684  0.00  0.00    +0.000 C 
ATOM     33  O   UNL     1      -1.039  10.485  17.824  0.00  0.00    +0.000 OA
ENDBRANCH  31  33
ENDBRANCH   1  31
TORSDOF 5
ENDMDL
MODEL 9
REMARK VINA RESULT:      -7.8      2.428      4.112
REMARK  Name = 
REMARK  7 active torsions:
REMARK  status: ('A' for Active; 'I' for Inactive)
REMARK    1  A    between atoms: C_1  and  O_2
REMARK    2  A    between atoms: O_2  and  C_3
REMARK    3  A    between atoms: C_3  and  C_4
REMARK    4  A    between atoms: N_9  and  C_10
REMARK    5  A    between atoms: N_22  and  S_23
REMARK    6  A    between atoms: S_23  and  C_26
REMARK    7  A    between atoms: C_29  and  C_30
REMARK                            x       y       z     vdW  Elec       q    Type
REMARK                         _______ _______ _______ _____ _____    ______ ____
ROOT
ATOM      1  C   UNL     1       0.362  10.409  19.565  0.00  0.00    +0.000 C 
ATOM      2  C   UNL     1       1.500  10.281  18.487  0.00  0.00    +0.000 C 
ATOM      3  C   UNL     1       2.062   8.919  18.456  0.00  0.00    +0.000 A 
ATOM      4  C   UNL     1       2.969   8.302  17.591  0.00  0.00    +0.000 A 
ATOM      5  N   UNL     1       3.271   7.067  17.993  0.00  0.00    +0.000 NA
ATOM      6  N   UNL     1       2.409   6.824  19.029  0.00  0.00    +0.000 N 
ATOM      7  C   UNL     1       1.839   8.011  19.464  0.00  0.00    +0.000 A 
ATOM      8  C   UNL     1       1.180   8.272  20.691  0.00  0.00    +0.000 C 
ATOM      9  C   UNL     1       0.509   9.447  20.781  0.00  0.00    +0.000 C 
ATOM     10  C   UNL     1      -0.310   9.840  22.001  0.00  0.00    +0.000 C 
ATOM     11  C   UNL     1      -0.414  11.351  22.285  0.00  0.00    +0.000 C 
ATOM     12  N   UNL     1      -0.590  12.178  21.053  0.00  0.00    +0.000 NA
ATOM     13  C   UNL     1       0.426  11.880  20.020  0.00  0.00    +0.000 C 
ENDROOT
BRANCH   6  14
ATOM     14  C   UNL     1       2.115   5.475  19.362  0.00  0.00    +0.000 A 
ATOM     15  C   UNL     1       2.264   5.057  20.695  0.00  0.00    +0.000 A 
ATOM     16  C   UNL     1       2.066   3.720  21.037  0.00  0.00    +0.000 A 
ATOM     17  C   UNL     1       1.759   2.801  20.044  0.00  0.00    +0.000 A 
ATOM     18  F   UNL     1       1.592   1.512  20.367  0.00  0.00    +0.000 F 
ATOM     19  C   UNL     1       1.640   3.194  18.713  0.00  0.00    +0.000 A 
ATOM     20  C   UNL     1       1.807   4.538  18.366  0.00  0.00    +0.000 A 
ENDBRANCH   6  14
BRANCH  12  21
ATOM     21  S   UNL     1      -0.874  13.857  21.309  0.00  0.00    +0.000 S 
ATOM     22  O   UNL     1      -2.030  14.268  20.545  0.00  0.00    +0.000 OA
ATOM     23  O   UNL     1      -0.806  14.093  22.735  0.00  0.00    +0.000 OA
BRANCH  21  24
ATOM     24  C   UNL     1       0.564  14.617  20.581  0.00  0.00    +0.000 A 
ATOM     25  C   UNL     1       0.523  15.154  19.289  0.00  0.00    +0.000 A 
ATOM     26  C   UNL     1       1.711  15.610  18.708  0.00  0.00    +0.000 A 
ATOM     27  C   UNL     1       2.924  15.546  19.412  0.00  0.00    +0.000 A 
ATOM     28  C   UNL     1       4.221  15.951  18.775  0.00  0.00    +0.000 C 
ATOM     29  C   UNL     1       2.932  15.062  20.726  0.00  0.00    +0.000 A 
ATOM     30  C   UNL     1       1.753  14.617  21.317  0.00  0.00    +0.000 A 
ENDBRANCH  21  24
ENDBRANCH  12  21
BRANCH   1  31
ATOM     31  C   UNL     1      -1.018  10.036  18.958  0.00  0.00    +0.000 C 
BRANCH  31  33
ATOM     32  C   UNL     1      -2.354  10.086  17.048  0.00  0.00    +0.000 C 
ATOM     33  O   UNL     1      -1.019   9.966  17.537  0.00  0.00    +0.000 OA
ENDBRANCH  31  33
ENDBRANCH   1  31
TORSDOF 5
ENDMDL
