MODEL 1
REMARK VINA RESULT:      -8.7      0.000      0.000
REMARK  Name = 
REMARK  10 active torsions:
REMARK  status: ('A' for Active; 'I' for Inactive)
REMARK    1  A    between atoms: C_1  and  C_2
REMARK    2  A    between atoms: C_3  and  C_4
REMARK    3  A    between atoms: C_7  and  C_8
REMARK    4  A    between atoms: C_9  and  C_10
REMARK    5  A    between atoms: N_15  and  C_16
REMARK    6  A    between atoms: C_16  and  C_17
REMARK    7  A    between atoms: C_20  and  C_21
REMARK    8  A    between atoms: N_23  and  C_24
REMARK    9  A    between atoms: C_24  and  C_25
REMARK   10  A    between atoms: C_28  and  C_29
REMARK                            x       y       z     vdW  Elec       q    Type
REMARK                         _______ _______ _______ _____ _____    ______ ____
ROOT
ATOM      1  C   UNL     1       0.682  11.929  19.380  0.00  0.00    +0.000 C 
ENDROOT
BRANCH   1   8
ATOM      2  C   UNL     1      -4.301  11.446  18.454  0.00  0.00    +0.000 C 
ATOM      3  C   UNL     1      -3.098  12.039  19.088  0.00  0.00    +0.000 C 
ATOM      4  C   UNL     1      -3.011  12.817  20.179  0.00  0.00    +0.000 C 
ATOM      5  S   UNL     1      -1.381  13.232  20.548  0.00  0.00    +0.000 S 
ATOM      6  O   UNL     1      -0.992  12.816  21.881  0.00  0.00    +0.000 OA
ATOM      7  O   UNL     1      -1.063  14.547  20.037  0.00  0.00    +0.000 OA
ATOM      8  N   UNL     1      -0.754  12.120  19.471  0.00  0.00    +0.000 N 
ATOM      9  C   UNL     1      -1.743  11.661  18.587  0.00  0.00    +0.000 C 
ATOM     10  O   UNL     1      -1.536  11.014  17.577  0.00  0.00    +0.000 OA
BRANCH   4  11
ATOM     11  C   UNL     1      -4.002  13.215  21.160  0.00  0.00    +0.000 A 
ATOM     12  C   UNL     1      -4.848  14.287  20.859  0.00  0.00    +0.000 A 
ATOM     13  C   UNL     1      -5.779  14.740  21.791  0.00  0.00    +0.000 A 
ATOM     14  C   UNL     1      -5.881  14.142  23.054  0.00  0.00    +0.000 A 
ATOM     15  C   UNL     1      -6.914  14.665  24.014  0.00  0.00    +0.000 C 
ATOM     16  C   UNL     1      -5.022  13.072  23.378  0.00  0.00    +0.000 A 
ATOM     17  C   UNL     1      -5.060  12.373  24.712  0.00  0.00    +0.000 C 
ATOM     18  C   UNL     1      -4.081  12.624  22.425  0.00  0.00    +0.000 A 
ENDBRANCH   4  11
ENDBRANCH   1   8
BRANCH   1  19
ATOM     19  C   UNL     1       1.104  10.479  19.236  0.00  0.00    +0.000 A 
ATOM     20  C   UNL     1       1.695  10.020  18.052  0.00  0.00    +0.000 A 
ATOM     21  C   UNL     1       2.178   8.707  17.956  0.00  0.00    +0.000 A 
ATOM     22  C   UNL     1       2.072   7.817  19.037  0.00  0.00    +0.000 A 
ATOM     23  C   UNL     1       1.419   8.254  20.196  0.00  0.00    +0.000 A 
ATOM     24  C   UNL     1       0.936   9.570  20.290  0.00  0.00    +0.000 A 
BRANCH  22  25
ATOM     25  C   UNL     1       2.664   6.447  18.879  0.00  0.00    +0.000 C 
ATOM     26  O   UNL     1       2.100   5.619  18.170  0.00  0.00    +0.000 OA
ATOM     27  N   UNL     1       3.848   6.169  19.533  0.00  0.00    +0.000 N 
ATOM     28  H   UNL     1       4.398   6.909  19.939  0.00  0.00    +0.000 HD
BRANCH  27  29
ATOM     29  C   UNL     1       4.513   4.894  19.357  0.00  0.00    +0.000 C 
BRANCH  29  30
ATOM     30  C   UNL     1       5.254   4.816  18.045  0.00  0.00    +0.000 A 
ATOM     31  C   UNL     1       4.874   3.888  17.064  0.00  0.00    +0.000 A 
ATOM     32  C   UNL     1       5.508   3.863  15.818  0.00  0.00    +0.000 A 
ATOM     33  C   UNL     1       6.533   4.769  15.525  0.00  0.00    +0.000 A 
ATOM     34  C   UNL     1       7.193   4.785  14.178  0.00  0.00    +0.000 C 
ATOM     35  C   UNL     1       6.921   5.690  16.504  0.00  0.00    +0.000 A 
ATOM     36  C   UNL     1       6.288   5.715  17.751  0.00  0.00    +0.000 A 
ENDBRANCH  29  30
ENDBRANCH  27  29
ENDBRANCH  22  25
ENDBRANCH   1  19
TORSDOF 6
ENDMDL
MODEL 2
REMARK VINA RESULT:      -8.6      1.187      1.271
REMARK  Name = 
REMARK  10 active torsions:
REMARK  status: ('A' for Active; 'I' for Inactive)
REMARK    1  A    between atoms: C_1  and  C_2
REMARK    2  A    between atoms: C_3  and  C_4
REMARK    3  A    between atoms: C_7  and  C_8
REMARK    4  A    between atoms: C_9  and  C_10
REMARK    5  A    between atoms: N_15  and  C_16
REMARK    6  A    between atoms: C_16  and  C_17
REMARK    7  A    between atoms: C_20  and  C_21
REMARK    8  A    between atoms: N_23  and  C_24
REMARK    9  A    between atoms: C_24  and  C_25
REMARK   10  A    between atoms: C_28  and  C_29
REMARK                            x       y       z     vdW  Elec       q    Type
REMARK                         _______ _______ _______ _____ _____    ______ ____
ROOT
ATOM      1  C   UNL     1       0.542  11.323  20.301  0.00  0.00    +0.000 C 
ENDROOT
BRANCH   1   8
ATOM      2  C   UNL     1      -3.852  11.119  17.738  0.00  0.00    +0.000 C 
ATOM      3  C   UNL     1      -2.900  11.653  18.742  0.00  0.00    +0.000 C 
ATOM      4  C   UNL     1      -3.138  12.448  19.797  0.00  0.00    +0.000 C 
ATOM      5  S   UNL     1      -1.706  12.773  20.697  0.00  0.00    +0.000 S 
ATOM      6  O   UNL     1      -1.820  12.365  22.083  0.00  0.00    +0.000 OA
ATOM      7  O   UNL     1      -1.150  14.055  20.323  0.00  0.00    +0.000 OA
ATOM      8  N   UNL     1      -0.824  11.602  19.899  0.00  0.00    +0.000 N 
ATOM      9  C   UNL     1      -1.482  11.182  18.731  0.00  0.00    +0.000 C 
ATOM     10  O   UNL     1      -0.987  10.502  17.853  0.00  0.00    +0.000 OA
BRANCH   4  11
ATOM     11  C   UNL     1      -4.375  12.928  20.383  0.00  0.00    +0.000 A 
ATOM     12  C   UNL     1      -4.455  14.268  20.773  0.00  0.00    +0.000 A 
ATOM     13  C   UNL     1      -5.603  14.761  21.389  0.00  0.00    +0.000 A 
ATOM     14  C   UNL     1      -6.698  13.925  21.643  0.00  0.00    +0.000 A 
ATOM     15  C   UNL     1      -7.915  14.516  22.298  0.00  0.00    +0.000 C 
ATOM     16  C   UNL     1      -6.625  12.567  21.271  0.00  0.00    +0.000 A 
ATOM     17  C   UNL     1      -7.751  11.597  21.508  0.00  0.00    +0.000 C 
ATOM     18  C   UNL     1      -5.454  12.079  20.649  0.00  0.00    +0.000 A 
ENDBRANCH   4  11
ENDBRANCH   1   8
BRANCH   1  19
ATOM     19  C   UNL     1       0.964   9.880  20.097  0.00  0.00    +0.000 A 
ATOM     20  C   UNL     1       1.576   9.474  18.904  0.00  0.00    +0.000 A 
ATOM     21  C   UNL     1       2.058   8.166  18.757  0.00  0.00    +0.000 A 
ATOM     22  C   UNL     1       1.929   7.227  19.793  0.00  0.00    +0.000 A 
ATOM     23  C   UNL     1       1.256   7.612  20.959  0.00  0.00    +0.000 A 
ATOM     24  C   UNL     1       0.773   8.923  21.104  0.00  0.00    +0.000 A 
BRANCH  22  25
ATOM     25  C   UNL     1       2.521   5.864  19.583  0.00  0.00    +0.000 C 
ATOM     26  O   UNL     1       1.794   4.926  19.268  0.00  0.00    +0.000 OA
ATOM     27  N   UNL     1       3.886   5.715  19.736  0.00  0.00    +0.000 N 
ATOM     28  H   UNL     1       4.489   6.520  19.792  0.00  0.00    +0.000 HD
BRANCH  27  29
ATOM     29  C   UNL     1       4.530   4.445  19.468  0.00  0.00    +0.000 C 
BRANCH  29  30
ATOM     30  C   UNL     1       5.198   4.421  18.116  0.00  0.00    +0.000 A 
ATOM     31  C   UNL     1       4.449   4.182  16.953  0.00  0.00    +0.000 A 
ATOM     32  C   UNL     1       5.050   4.235  15.691  0.00  0.00    +0.000 A 
ATOM     33  C   UNL     1       6.411   4.531  15.565  0.00  0.00    +0.000 A 
ATOM     34  C   UNL     1       7.061   4.634  14.217  0.00  0.00    +0.000 C 
ATOM     35  C   UNL     1       7.163   4.760  16.722  0.00  0.00    +0.000 A 
ATOM     36  C   UNL     1       6.563   4.707  17.985  0.00  0.00    +0.000 A 
ENDBRANCH  29  30
ENDBRANCH  27  29
ENDBRANCH  22  25
ENDBRANCH   1  19
TORSDOF 6
ENDMDL
MODEL 3
REMARK VINA RESULT:      -8.6      1.462      2.719
REMARK  Name = 
REMARK  10 active torsions:
REMARK  status: ('A' for Active; 'I' for Inactive)
REMARK    1  A    between atoms: C_1  and  C_2
REMARK    2  A    between atoms: C_3  and  C_4
REMARK    3  A    between atoms: C_7  and  C_8
REMARK    4  A    between atoms: C_9  and  C_10
REMARK    5  A    between atoms: N_15  and  C_16
REMARK    6  A    between atoms: C_16  and  C_17
REMARK    7  A    between atoms: C_20  and  C_21
REMARK    8  A    between atoms: N_23  and  C_24
REMARK    9  A    between atoms: C_24  and  C_25
REMARK   10  A    between atoms: C_28  and  C_29
REMARK                            x       y       z     vdW  Elec       q    Type
REMARK                         _______ _______ _______ _____ _____    ______ ____
ROOT
ATOM      1  C   UNL     1       0.964  11.634  19.563  0.00  0.00    +0.000 C 
ENDROOT
BRANCH   1   8
ATOM      2  C   UNL     1      -2.937  12.558  22.700  0.00  0.00    +0.000 C 
ATOM      3  C   UNL     1      -2.300  12.164  21.420  0.00  0.00    +0.000 C 
ATOM      4  C   UNL     1      -2.837  12.094  20.192  0.00  0.00    +0.000 C 
ATOM      5  S   UNL     1      -1.683  11.617  19.008  0.00  0.00    +0.000 S 
ATOM      6  O   UNL     1      -1.546  12.592  17.944  0.00  0.00    +0.000 OA
ATOM      7  O   UNL     1      -1.790  10.201  18.734  0.00  0.00    +0.000 OA
ATOM      8  N   UNL     1      -0.391  11.821  20.046  0.00  0.00    +0.000 N 
ATOM      9  C   UNL     1      -0.825  11.927  21.377  0.00  0.00    +0.000 C 
ATOM     10  O   UNL     1      -0.106  11.873  22.357  0.00  0.00    +0.000 OA
BRANCH   4  11
ATOM     11  C   UNL     1      -4.135  12.498  19.683  0.00  0.00    +0.000 A 
ATOM     12  C   UNL     1      -4.695  11.770  18.629  0.00  0.00    +0.000 A 
ATOM     13  C   UNL     1      -5.914  12.152  18.072  0.00  0.00    +0.000 A 
ATOM     14  C   UNL     1      -6.599  13.278  18.545  0.00  0.00    +0.000 A 
ATOM     15  C   UNL     1      -7.917  13.634  17.914  0.00  0.00    +0.000 C 
ATOM     16  C   UNL     1      -6.036  14.032  19.596  0.00  0.00    +0.000 A 
ATOM     17  C   UNL     1      -6.701  15.258  20.163  0.00  0.00    +0.000 C 
ATOM     18  C   UNL     1      -4.800  13.636  20.150  0.00  0.00    +0.000 A 
ENDBRANCH   4  11
ENDBRANCH   1   8
BRANCH   1  19
ATOM     19  C   UNL     1       1.337  10.185  19.315  0.00  0.00    +0.000 A 
ATOM     20  C   UNL     1       1.778   9.764  18.053  0.00  0.00    +0.000 A 
ATOM     21  C   UNL     1       2.220   8.449  17.852  0.00  0.00    +0.000 A 
ATOM     22  C   UNL     1       2.221   7.518  18.903  0.00  0.00    +0.000 A 
ATOM     23  C   UNL     1       1.715   7.918  20.146  0.00  0.00    +0.000 A 
ATOM     24  C   UNL     1       1.273   9.237  20.345  0.00  0.00    +0.000 A 
BRANCH  22  25
ATOM     25  C   UNL     1       2.762   6.146  18.625  0.00  0.00    +0.000 C 
ATOM     26  O   UNL     1       2.121   5.369  17.924  0.00  0.00    +0.000 OA
ATOM     27  N   UNL     1       3.990   5.808  19.162  0.00  0.00    +0.000 N 
ATOM     28  H   UNL     1       4.590   6.514  19.558  0.00  0.00    +0.000 HD
BRANCH  27  29
ATOM     29  C   UNL     1       4.605   4.531  18.865  0.00  0.00    +0.000 C 
BRANCH  29  30
ATOM     30  C   UNL     1       5.362   4.555  17.560  0.00  0.00    +0.000 A 
ATOM     31  C   UNL     1       4.928   3.788  16.468  0.00  0.00    +0.000 A 
ATOM     32  C   UNL     1       5.581   3.866  15.234  0.00  0.00    +0.000 A 
ATOM     33  C   UNL     1       6.680   4.714  15.065  0.00  0.00    +0.000 A 
ATOM     34  C   UNL     1       7.365   4.841  13.736  0.00  0.00    +0.000 C 
ATOM     35  C   UNL     1       7.122   5.473  16.154  0.00  0.00    +0.000 A 
ATOM     36  C   UNL     1       6.470   5.396  17.389  0.00  0.00    +0.000 A 
ENDBRANCH  29  30
ENDBRANCH  27  29
ENDBRANCH  22  25
ENDBRANCH   1  19
TORSDOF 6
ENDMDL
MODEL 4
REMARK VINA RESULT:      -8.5      1.479      2.577
REMARK  Name = 
REMARK  10 active torsions:
REMARK  status: ('A' for Active; 'I' for Inactive)
REMARK    1  A    between atoms: C_1  and  C_2
REMARK    2  A    between atoms: C_3  and  C_4
REMARK    3  A    between atoms: C_7  and  C_8
REMARK    4  A    between atoms: C_9  and  C_10
REMARK    5  A    between atoms: N_15  and  C_16
REMARK    6  A    between atoms: C_16  and  C_17
REMARK    7  A    between atoms: C_20  and  C_21
REMARK    8  A    between atoms: N_23  and  C_24
REMARK    9  A    between atoms: C_24  and  C_25
REMARK   10  A    between atoms: C_28  and  C_29
REMARK                            x       y       z     vdW  Elec       q    Type
REMARK                         _______ _______ _______ _____ _____    ______ ____
ROOT
ATOM      1  C   UNL     1       0.925  11.663  20.668  0.00  0.00    +0.000 C 
ENDROOT
BRANCH   1   8
ATOM      2  C   UNL     1      -3.218  12.234  23.571  0.00  0.00    +0.000 C 
ATOM      3  C   UNL     1      -2.469  12.130  22.295  0.00  0.00    +0.000 C 
ATOM      4  C   UNL     1      -2.846  12.494  21.060  0.00  0.00    +0.000 C 
ATOM      5  S   UNL     1      -1.610  12.205  19.896  0.00  0.00    +0.000 S 
ATOM      6  O   UNL     1      -1.221  13.410  19.191  0.00  0.00    +0.000 OA
ATOM      7  O   UNL     1      -1.846  10.958  19.202  0.00  0.00    +0.000 OA
ATOM      8  N   UNL     1      -0.450  11.907  21.060  0.00  0.00    +0.000 N 
ATOM      9  C   UNL     1      -1.040  11.694  22.317  0.00  0.00    +0.000 C 
ATOM     10  O   UNL     1      -0.467  11.256  23.296  0.00  0.00    +0.000 OA
BRANCH   4  11
ATOM     11  C   UNL     1      -4.009  13.217  20.580  0.00  0.00    +0.000 A 
ATOM     12  C   UNL     1      -4.909  12.553  19.741  0.00  0.00    +0.000 A 
ATOM     13  C   UNL     1      -6.011  13.222  19.212  0.00  0.00    +0.000 A 
ATOM     14  C   UNL     1      -6.236  14.574  19.498  0.00  0.00    +0.000 A 
ATOM     15  C   UNL     1      -7.450  15.240  18.910  0.00  0.00    +0.000 C 
ATOM     16  C   UNL     1      -5.326  15.261  20.328  0.00  0.00    +0.000 A 
ATOM     17  C   UNL     1      -5.488  16.715  20.684  0.00  0.00    +0.000 C 
ATOM     18  C   UNL     1      -4.212  14.573  20.856  0.00  0.00    +0.000 A 
ENDBRANCH   4  11
ENDBRANCH   1   8
BRANCH   1  19
ATOM     19  C   UNL     1       1.221  10.216  20.322  0.00  0.00    +0.000 A 
ATOM     20  C   UNL     1       1.532   9.842  19.008  0.00  0.00    +0.000 A 
ATOM     21  C   UNL     1       1.905   8.525  18.709  0.00  0.00    +0.000 A 
ATOM     22  C   UNL     1       1.966   7.544  19.712  0.00  0.00    +0.000 A 
ATOM     23  C   UNL     1       1.588   7.900  21.013  0.00  0.00    +0.000 A 
ATOM     24  C   UNL     1       1.214   9.222  21.311  0.00  0.00    +0.000 A 
BRANCH  22  25
ATOM     25  C   UNL     1       2.430   6.171  19.325  0.00  0.00    +0.000 C 
ATOM     26  O   UNL     1       1.736   5.480  18.584  0.00  0.00    +0.000 OA
ATOM     27  N   UNL     1       3.647   5.733  19.809  0.00  0.00    +0.000 N 
ATOM     28  H   UNL     1       4.291   6.376  20.242  0.00  0.00    +0.000 HD
BRANCH  27  29
ATOM     29  C   UNL     1       4.189   4.450  19.408  0.00  0.00    +0.000 C 
BRANCH  29  30
ATOM     30  C   UNL     1       4.982   4.545  18.128  0.00  0.00    +0.000 A 
ATOM     31  C   UNL     1       4.561   3.866  16.974  0.00  0.00    +0.000 A 
ATOM     32  C   UNL     1       5.249   4.011  15.766  0.00  0.00    +0.000 A 
ATOM     33  C   UNL     1       6.371   4.842  15.684  0.00  0.00    +0.000 A 
ATOM     34  C   UNL     1       7.095   5.042  14.385  0.00  0.00    +0.000 C 
ATOM     35  C   UNL     1       6.801   5.513  16.834  0.00  0.00    +0.000 A 
ATOM     36  C   UNL     1       6.113   5.368  18.043  0.00  0.00    +0.000 A 
ENDBRANCH  29  30
ENDBRANCH  27  29
ENDBRANCH  22  25
ENDBRANCH   1  19
TORSDOF 6
ENDMDL
MODEL 5
REMARK VINA RESULT:      -8.1      2.594     11.898
REMARK  Name = 
REMARK  10 active torsions:
REMARK  status: ('A' for Active; 'I' for Inactive)
REMARK    1  A    between atoms: C_1  and  C_2
REMARK    2  A    between atoms: C_3  and  C_4
REMARK    3  A    between atoms: C_7  and  C_8
REMARK    4  A    between atoms: C_9  and  C_10
REMARK    5  A    between atoms: N_15  and  C_16
REMARK    6  A    between atoms: C_16  and  C_17
REMARK    7  A    between atoms: C_20  and  C_21
REMARK    8  A    between atoms: N_23  and  C_24
REMARK    9  A    between atoms: C_24  and  C_25
REMARK   10  A    between atoms: C_28  and  C_29
REMARK                            x       y       z     vdW  Elec       q    Type
REMARK                         _______ _______ _______ _____ _____    ______ ____
ROOT
ATOM      1  C   UNL     1       2.963   5.990  20.343  0.00  0.00    +0.000 C 
ENDROOT
BRANCH   1   8
ATOM      2  C   UNL     1       2.766   2.451  16.689  0.00  0.00    +0.000 C 
ATOM      3  C   UNL     1       3.402   3.517  17.501  0.00  0.00    +0.000 C 
ATOM      4  C   UNL     1       4.500   4.241  17.239  0.00  0.00    +0.000 C 
ATOM      5  S   UNL     1       4.827   5.393  18.477  0.00  0.00    +0.000 S 
ATOM      6  O   UNL     1       4.870   6.751  17.972  0.00  0.00    +0.000 OA
ATOM      7  O   UNL     1       5.827   4.887  19.391  0.00  0.00    +0.000 OA
ATOM      8  N   UNL     1       3.340   5.174  19.204  0.00  0.00    +0.000 N 
ATOM      9  C   UNL     1       2.714   4.008  18.733  0.00  0.00    +0.000 C 
ATOM     10  O   UNL     1       1.731   3.490  19.228  0.00  0.00    +0.000 OA
BRANCH   4  11
ATOM     11  C   UNL     1       5.335   4.333  16.055  0.00  0.00    +0.000 A 
ATOM     12  C   UNL     1       6.569   4.983  16.156  0.00  0.00    +0.000 A 
ATOM     13  C   UNL     1       7.380   5.143  15.035  0.00  0.00    +0.000 A 
ATOM     14  C   UNL     1       6.975   4.667  13.781  0.00  0.00    +0.000 A 
ATOM     15  C   UNL     1       7.900   4.856  12.610  0.00  0.00    +0.000 C 
ATOM     16  C   UNL     1       5.726   4.025  13.661  0.00  0.00    +0.000 A 
ATOM     17  C   UNL     1       5.210   3.486  12.353  0.00  0.00    +0.000 C 
ATOM     18  C   UNL     1       4.912   3.872  14.805  0.00  0.00    +0.000 A 
ENDBRANCH   4  11
ENDBRANCH   1   8
BRANCH   1  19
ATOM     19  C   UNL     1       2.190   7.243  19.977  0.00  0.00    +0.000 A 
ATOM     20  C   UNL     1       1.439   7.929  20.941  0.00  0.00    +0.000 A 
ATOM     21  C   UNL     1       0.810   9.141  20.626  0.00  0.00    +0.000 A 
ATOM     22  C   UNL     1       0.904   9.693  19.338  0.00  0.00    +0.000 A 
ATOM     23  C   UNL     1       1.596   8.973  18.357  0.00  0.00    +0.000 A 
ATOM     24  C   UNL     1       2.226   7.758  18.674  0.00  0.00    +0.000 A 
BRANCH  22  25
ATOM     25  C   UNL     1       0.252  11.022  19.094  0.00  0.00    +0.000 C 
ATOM     26  O   UNL     1       0.870  11.905  18.507  0.00  0.00    +0.000 OA
ATOM     27  N   UNL     1      -1.047  11.202  19.531  0.00  0.00    +0.000 N 
ATOM     28  H   UNL     1      -1.604  10.415  19.824  0.00  0.00    +0.000 HD
BRANCH  27  29
ATOM     29  C   UNL     1      -1.761  12.432  19.255  0.00  0.00    +0.000 C 
BRANCH  29  30
ATOM     30  C   UNL     1      -3.255  12.257  19.365  0.00  0.00    +0.000 A 
ATOM     31  C   UNL     1      -3.962  11.524  18.399  0.00  0.00    +0.000 A 
ATOM     32  C   UNL     1      -5.334  11.296  18.537  0.00  0.00    +0.000 A 
ATOM     33  C   UNL     1      -6.029  11.792  19.645  0.00  0.00    +0.000 A 
ATOM     34  C   UNL     1      -7.493  11.518  19.829  0.00  0.00    +0.000 C 
ATOM     35  C   UNL     1      -5.330  12.531  20.606  0.00  0.00    +0.000 A 
ATOM     36  C   UNL     1      -3.957  12.761  20.468  0.00  0.00    +0.000 A 
ENDBRANCH  29  30
ENDBRANCH  27  29
ENDBRANCH  22  25
ENDBRANCH   1  19
TORSDOF 6
ENDMDL
MODEL 6
REMARK VINA RESULT:      -8.1      1.046      1.401
REMARK  Name = 
REMARK  10 active torsions:
REMARK  status: ('A' for Active; 'I' for Inactive)
REMARK    1  A    between atoms: C_1  and  C_2
REMARK    2  A    between atoms: C_3  and  C_4
REMARK    3  A    between atoms: C_7  and  C_8
REMARK    4  A    between atoms: C_9  and  C_10
REMARK    5  A    between atoms: N_15  and  C_16
REMARK    6  A    between atoms: C_16  and  C_17
REMARK    7  A    between atoms: C_20  and  C_21
REMARK    8  A    between atoms: N_23  and  C_24
REMARK    9  A    between atoms: C_24  and  C_25
REMARK   10  A    between atoms: C_28  and  C_29
REMARK                            x       y       z     vdW  Elec       q    Type
REMARK                         _______ _______ _______ _____ _____    ______ ____
ROOT
ATOM      1  C   UNL     1       0.641  11.741  20.230  0.00  0.00    +0.000 C 
ENDROOT
BRANCH   1   8
ATOM      2  C   UNL     1      -4.136  11.737  18.472  0.00  0.00    +0.000 C 
ATOM      3  C   UNL     1      -3.037  12.125  19.389  0.00  0.00    +0.000 C 
ATOM      4  C   UNL     1      -3.107  12.669  20.614  0.00  0.00    +0.000 C 
ATOM      5  S   UNL     1      -1.549  12.909  21.305  0.00  0.00    +0.000 S 
ATOM      6  O   UNL     1      -1.392  12.221  22.570  0.00  0.00    +0.000 OA
ATOM      7  O   UNL     1      -1.117  14.278  21.124  0.00  0.00    +0.000 OA
ATOM      8  N   UNL     1      -0.784  11.994  20.136  0.00  0.00    +0.000 N 
ATOM      9  C   UNL     1      -1.629  11.773  19.036  0.00  0.00    +0.000 C 
ATOM     10  O   UNL     1      -1.279  11.324  17.961  0.00  0.00    +0.000 OA
BRANCH   4  11
ATOM     11  C   UNL     1      -4.234  12.926  21.491  0.00  0.00    +0.000 A 
ATOM     12  C   UNL     1      -4.015  13.654  22.665  0.00  0.00    +0.000 A 
ATOM     13  C   UNL     1      -5.054  13.880  23.565  0.00  0.00    +0.000 A 
ATOM     14  C   UNL     1      -6.337  13.374  23.322  0.00  0.00    +0.000 A 
ATOM     15  C   UNL     1      -7.423  13.661  24.322  0.00  0.00    +0.000 C 
ATOM     16  C   UNL     1      -6.569  12.622  22.151  0.00  0.00    +0.000 A 
ATOM     17  C   UNL     1      -7.915  12.038  21.813  0.00  0.00    +0.000 C 
ATOM     18  C   UNL     1      -5.506  12.399  21.249  0.00  0.00    +0.000 A 
ENDBRANCH   4  11
ENDBRANCH   1   8
BRANCH   1  19
ATOM     19  C   UNL     1       1.028  10.292  20.001  0.00  0.00    +0.000 A 
ATOM     20  C   UNL     1       1.475   9.859  18.746  0.00  0.00    +0.000 A 
ATOM     21  C   UNL     1       1.929   8.546  18.563  0.00  0.00    +0.000 A 
ATOM     22  C   UNL     1       1.937   7.628  19.626  0.00  0.00    +0.000 A 
ATOM     23  C   UNL     1       1.426   8.039  20.862  0.00  0.00    +0.000 A 
ATOM     24  C   UNL     1       0.971   9.356  21.044  0.00  0.00    +0.000 A 
BRANCH  22  25
ATOM     25  C   UNL     1       2.492   6.258  19.366  0.00  0.00    +0.000 C 
ATOM     26  O   UNL     1       1.727   5.323  19.150  0.00  0.00    +0.000 OA
ATOM     27  N   UNL     1       3.865   6.100  19.363  0.00  0.00    +0.000 N 
ATOM     28  H   UNL     1       4.475   6.901  19.338  0.00  0.00    +0.000 HD
BRANCH  27  29
ATOM     29  C   UNL     1       4.465   4.822  19.039  0.00  0.00    +0.000 C 
BRANCH  29  30
ATOM     30  C   UNL     1       4.910   4.752  17.599  0.00  0.00    +0.000 A 
ATOM     31  C   UNL     1       5.003   5.916  16.822  0.00  0.00    +0.000 A 
ATOM     32  C   UNL     1       5.487   5.866  15.511  0.00  0.00    +0.000 A 
ATOM     33  C   UNL     1       5.891   4.650  14.951  0.00  0.00    +0.000 A 
ATOM     34  C   UNL     1       6.453   4.585  13.561  0.00  0.00    +0.000 C 
ATOM     35  C   UNL     1       5.791   3.484  15.719  0.00  0.00    +0.000 A 
ATOM     36  C   UNL     1       5.307   3.534  17.030  0.00  0.00    +0.000 A 
ENDBRANCH  29  30
ENDBRANCH  27  29
ENDBRANCH  22  25
ENDBRANCH   1  19
TORSDOF 6
ENDMDL
MODEL 7
REMARK VINA RESULT:      -8.0      2.426     11.989
REMARK  Name = 
REMARK  10 active torsions:
REMARK  status: ('A' for Active; 'I' for Inactive)
REMARK    1  A    between atoms: C_1  and  C_2
REMARK    2  A    between atoms: C_3  and  C_4
REMARK    3  A    between atoms: C_7  and  C_8
REMARK    4  A    between atoms: C_9  and  C_10
REMARK    5  A    between atoms: N_15  and  C_16
REMARK    6  A    between atoms: C_16  and  C_17
REMARK    7  A    between atoms: C_20  and  C_21
REMARK    8  A    between atoms: N_23  and  C_24
REMARK    9  A    between atoms: C_24  and  C_25
REMARK   10  A    between atoms: C_28  and  C_29
REMARK                            x       y       z     vdW  Elec       q    Type
REMARK                         _______ _______ _______ _____ _____    ______ ____
ROOT
ATOM      1  C   UNL     1       3.111   6.006  20.309  0.00  0.00    +0.000 C 
ENDROOT
BRANCH   1   8
ATOM      2  C   UNL     1       2.712   2.507  16.634  0.00  0.00    +0.000 C 
ATOM      3  C   UNL     1       3.402   3.542  17.441  0.00  0.00    +0.000 C 
ATOM      4  C   UNL     1       4.521   4.228  17.161  0.00  0.00    +0.000 C 
ATOM      5  S   UNL     1       4.914   5.357  18.401  0.00  0.00    +0.000 S 
ATOM      6  O   UNL     1       4.997   6.717  17.906  0.00  0.00    +0.000 OA
ATOM      7  O   UNL     1       5.913   4.808  19.291  0.00  0.00    +0.000 OA
ATOM      8  N   UNL     1       3.435   5.187  19.157  0.00  0.00    +0.000 N 
ATOM      9  C   UNL     1       2.758   4.049  18.690  0.00  0.00    +0.000 C 
ATOM     10  O   UNL     1       1.767   3.563  19.201  0.00  0.00    +0.000 OA
BRANCH   4  11
ATOM     11  C   UNL     1       5.335   4.299  15.962  0.00  0.00    +0.000 A 
ATOM     12  C   UNL     1       6.589   4.913  16.040  0.00  0.00    +0.000 A 
ATOM     13  C   UNL     1       7.382   5.052  14.903  0.00  0.00    +0.000 A 
ATOM     14  C   UNL     1       6.939   4.592  13.657  0.00  0.00    +0.000 A 
ATOM     15  C   UNL     1       7.845   4.757  12.467  0.00  0.00    +0.000 C 
ATOM     16  C   UNL     1       5.669   3.987  13.560  0.00  0.00    +0.000 A 
ATOM     17  C   UNL     1       5.112   3.468  12.261  0.00  0.00    +0.000 C 
ATOM     18  C   UNL     1       4.873   3.854  14.719  0.00  0.00    +0.000 A 
ENDBRANCH   4  11
ENDBRANCH   1   8
BRANCH   1  19
ATOM     19  C   UNL     1       2.228   7.198  19.991  0.00  0.00    +0.000 A 
ATOM     20  C   UNL     1       1.378   7.740  20.964  0.00  0.00    +0.000 A 
ATOM     21  C   UNL     1       0.640   8.902  20.701  0.00  0.00    +0.000 A 
ATOM     22  C   UNL     1       0.723   9.546  19.456  0.00  0.00    +0.000 A 
ATOM     23  C   UNL     1       1.519   8.966  18.460  0.00  0.00    +0.000 A 
ATOM     24  C   UNL     1       2.258   7.801  18.726  0.00  0.00    +0.000 A 
BRANCH  22  25
ATOM     25  C   UNL     1      -0.052  10.817  19.270  0.00  0.00    +0.000 C 
ATOM     26  O   UNL     1      -0.745  10.966  18.267  0.00  0.00    +0.000 OA
ATOM     27  N   UNL     1       0.030  11.782  20.256  0.00  0.00    +0.000 N 
ATOM     28  H   UNL     1       0.432  11.567  21.154  0.00  0.00    +0.000 HD
BRANCH  27  29
ATOM     29  C   UNL     1      -0.756  12.996  20.175  0.00  0.00    +0.000 C 
BRANCH  29  30
ATOM     30  C   UNL     1      -1.940  12.969  21.111  0.00  0.00    +0.000 A 
ATOM     31  C   UNL     1      -1.867  12.291  22.337  0.00  0.00    +0.000 A 
ATOM     32  C   UNL     1      -2.934  12.327  23.240  0.00  0.00    +0.000 A 
ATOM     33  C   UNL     1      -4.095  13.046  22.938  0.00  0.00    +0.000 A 
ATOM     34  C   UNL     1      -5.231  13.130  23.915  0.00  0.00    +0.000 C 
ATOM     35  C   UNL     1      -4.176  13.716  21.712  0.00  0.00    +0.000 A 
ATOM     36  C   UNL     1      -3.109  13.680  20.808  0.00  0.00    +0.000 A 
ENDBRANCH  29  30
ENDBRANCH  27  29
ENDBRANCH  22  25
ENDBRANCH   1  19
TORSDOF 6
ENDMDL
MODEL 8
REMARK VINA RESULT:      -8.0      5.673     11.480
REMARK  Name = 
REMARK  10 active torsions:
REMARK  status: ('A' for Active; 'I' for Inactive)
REMARK    1  A    between atoms: C_1  and  C_2
REMARK    2  A    between atoms: C_3  and  C_4
REMARK    3  A    between atoms: C_7  and  C_8
REMARK    4  A    between atoms: C_9  and  C_10
REMARK    5  A    between atoms: N_15  and  C_16
REMARK    6  A    between atoms: C_16  and  C_17
REMARK    7  A    between atoms: C_20  and  C_21
REMARK    8  A    between atoms: N_23  and  C_24
REMARK    9  A    between atoms: C_24  and  C_25
REMARK   10  A    between atoms: C_28  and  C_29
REMARK                            x       y       z     vdW  Elec       q    Type
REMARK                         _______ _______ _______ _____ _____    ______ ____
ROOT
ATOM      1  C   UNL     1       3.360  16.076  19.434  0.00  0.00    +0.000 C 
ENDROOT
BRANCH   1   8
ATOM      2  C   UNL     1       7.300  14.165  22.028  0.00  0.00    +0.000 C 
ATOM      3  C   UNL     1       6.639  14.848  20.890  0.00  0.00    +0.000 C 
ATOM      4  C   UNL     1       7.100  15.067  19.649  0.00  0.00    +0.000 C 
ATOM      5  S   UNL     1       5.944  15.876  18.662  0.00  0.00    +0.000 S 
ATOM      6  O   UNL     1       5.612  15.124  17.469  0.00  0.00    +0.000 OA
ATOM      7  O   UNL     1       6.219  17.295  18.617  0.00  0.00    +0.000 OA
ATOM      8  N   UNL     1       4.707  15.649  19.761  0.00  0.00    +0.000 N 
ATOM      9  C   UNL     1       5.209  15.263  21.014  0.00  0.00    +0.000 C 
ATOM     10  O   UNL     1       4.568  15.230  22.047  0.00  0.00    +0.000 OA
BRANCH   4  11
ATOM     11  C   UNL     1       8.298  14.607  18.970  0.00  0.00    +0.000 A 
ATOM     12  C   UNL     1       9.144  15.557  18.390  0.00  0.00    +0.000 A 
ATOM     13  C   UNL     1      10.277  15.160  17.682  0.00  0.00    +0.000 A 
ATOM     14  C   UNL     1      10.587  13.803  17.525  0.00  0.00    +0.000 A 
ATOM     15  C   UNL     1      11.831  13.436  16.763  0.00  0.00    +0.000 C 
ATOM     16  C   UNL     1       9.733  12.834  18.090  0.00  0.00    +0.000 A 
ATOM     17  C   UNL     1       9.988  11.355  17.967  0.00  0.00    +0.000 C 
ATOM     18  C   UNL     1       8.587  13.249  18.803  0.00  0.00    +0.000 A 
ENDBRANCH   4  11
ENDBRANCH   1   8
BRANCH   1  19
ATOM     19  C   UNL     1       2.384  14.935  19.220  0.00  0.00    +0.000 A 
ATOM     20  C   UNL     1       1.003  15.140  19.340  0.00  0.00    +0.000 A 
ATOM     21  C   UNL     1       0.099  14.112  19.042  0.00  0.00    +0.000 A 
ATOM     22  C   UNL     1       0.551  12.848  18.629  0.00  0.00    +0.000 A 
ATOM     23  C   UNL     1       1.932  12.621  18.576  0.00  0.00    +0.000 A 
ATOM     24  C   UNL     1       2.837  13.653  18.875  0.00  0.00    +0.000 A 
BRANCH  22  25
ATOM     25  C   UNL     1      -0.478  11.816  18.273  0.00  0.00    +0.000 C 
ATOM     26  O   UNL     1      -0.369  10.672  18.704  0.00  0.00    +0.000 OA
ATOM     27  N   UNL     1      -1.538  12.200  17.473  0.00  0.00    +0.000 N 
ATOM     28  H   UNL     1      -1.723  13.175  17.298  0.00  0.00    +0.000 HD
BRANCH  27  29
ATOM     29  C   UNL     1      -2.607  11.274  17.160  0.00  0.00    +0.000 C 
BRANCH  29  30
ATOM     30  C   UNL     1      -3.888  11.621  17.879  0.00  0.00    +0.000 A 
ATOM     31  C   UNL     1      -3.859  12.127  19.187  0.00  0.00    +0.000 A 
ATOM     32  C   UNL     1      -5.037  12.521  19.829  0.00  0.00    +0.000 A 
ATOM     33  C   UNL     1      -6.268  12.421  19.175  0.00  0.00    +0.000 A 
ATOM     34  C   UNL     1      -7.536  12.880  19.833  0.00  0.00    +0.000 C 
ATOM     35  C   UNL     1      -6.304  11.909  17.873  0.00  0.00    +0.000 A 
ATOM     36  C   UNL     1      -5.126  11.514  17.231  0.00  0.00    +0.000 A 
ENDBRANCH  29  30
ENDBRANCH  27  29
ENDBRANCH  22  25
ENDBRANCH   1  19
TORSDOF 6
ENDMDL
MODEL 9
REMARK VINA RESULT:      -8.0      6.111     11.349
REMARK  Name = 
REMARK  10 active torsions:
REMARK  status: ('A' for Active; 'I' for Inactive)
REMARK    1  A    between atoms: C_1  and  C_2
REMARK    2  A    between atoms: C_3  and  C_4
REMARK    3  A    between atoms: C_7  and  C_8
REMARK    4  A    between atoms: C_9  and  C_10
REMARK    5  A    between atoms: N_15  and  C_16
REMARK    6  A    between atoms: C_16  and  C_17
REMARK    7  A    between atoms: C_20  and  C_21
REMARK    8  A    between atoms: N_23  and  C_24
REMARK    9  A    between atoms: C_24  and  C_25
REMARK   10  A    between atoms: C_28  and  C_29
REMARK                            x       y       z     vdW  Elec       q    Type
REMARK                         _______ _______ _______ _____ _____    ______ ____
ROOT
ATOM      1  C   UNL     1       4.145  16.311  19.877  0.00  0.00    +0.000 C 
ENDROOT
BRANCH   1   8
ATOM      2  C   UNL     1       8.404  14.699  22.152  0.00  0.00    +0.000 C 
ATOM      3  C   UNL     1       7.594  15.240  21.033  0.00  0.00    +0.000 C 
ATOM      4  C   UNL     1       7.886  15.293  19.724  0.00  0.00    +0.000 C 
ATOM      5  S   UNL     1       6.606  15.984  18.804  0.00  0.00    +0.000 S 
ATOM      6  O   UNL     1       6.122  15.091  17.770  0.00  0.00    +0.000 OA
ATOM      7  O   UNL     1       6.864  17.383  18.543  0.00  0.00    +0.000 OA
ATOM      8  N   UNL     1       5.526  15.913  20.075  0.00  0.00    +0.000 N 
ATOM      9  C   UNL     1       6.191  15.683  21.290  0.00  0.00    +0.000 C 
ATOM     10  O   UNL     1       5.693  15.790  22.395  0.00  0.00    +0.000 OA
BRANCH   4  11
ATOM     11  C   UNL     1       8.986  14.737  18.958  0.00  0.00    +0.000 A 
ATOM     12  C   UNL     1       9.852  15.615  18.298  0.00  0.00    +0.000 A 
ATOM     13  C   UNL     1      10.889  15.126  17.507  0.00  0.00    +0.000 A 
ATOM     14  C   UNL     1      11.082  13.748  17.345  0.00  0.00    +0.000 A 
ATOM     15  C   UNL     1      12.228  13.280  16.490  0.00  0.00    +0.000 C 
ATOM     16  C   UNL     1      10.206  12.852  17.991  0.00  0.00    +0.000 A 
ATOM     17  C   UNL     1      10.337  11.357  17.869  0.00  0.00    +0.000 C 
ATOM     18  C   UNL     1       9.157  13.360  18.788  0.00  0.00    +0.000 A 
ENDBRANCH   4  11
ENDBRANCH   1   8
BRANCH   1  19
ATOM     19  C   UNL     1       3.175  15.149  19.774  0.00  0.00    +0.000 A 
ATOM     20  C   UNL     1       2.612  14.793  18.542  0.00  0.00    +0.000 A 
ATOM     21  C   UNL     1       1.797  13.657  18.429  0.00  0.00    +0.000 A 
ATOM     22  C   UNL     1       1.516  12.855  19.547  0.00  0.00    +0.000 A 
ATOM     23  C   UNL     1       2.022  13.250  20.792  0.00  0.00    +0.000 A 
ATOM     24  C   UNL     1       2.838  14.388  20.903  0.00  0.00    +0.000 A 
BRANCH  22  25
ATOM     25  C   UNL     1       0.685  11.624  19.337  0.00  0.00    +0.000 C 
ATOM     26  O   UNL     1       0.581  10.798  20.239  0.00  0.00    +0.000 OA
ATOM     27  N   UNL     1       0.042  11.471  18.123  0.00  0.00    +0.000 N 
ATOM     28  H   UNL     1      -0.031  12.241  17.478  0.00  0.00    +0.000 HD
BRANCH  27  29
ATOM     29  C   UNL     1      -0.841  10.346  17.886  0.00  0.00    +0.000 C 
BRANCH  29  30
ATOM     30  C   UNL     1      -2.282  10.773  17.760  0.00  0.00    +0.000 A 
ATOM     31  C   UNL     1      -2.932  11.420  18.822  0.00  0.00    +0.000 A 
ATOM     32  C   UNL     1      -4.244  11.885  18.682  0.00  0.00    +0.000 A 
ATOM     33  C   UNL     1      -4.932  11.716  17.476  0.00  0.00    +0.000 A 
ATOM     34  C   UNL     1      -6.323  12.247  17.296  0.00  0.00    +0.000 C 
ATOM     35  C   UNL     1      -4.291  11.063  16.418  0.00  0.00    +0.000 A 
ATOM     36  C   UNL     1      -2.979  10.597  16.557  0.00  0.00    +0.000 A 
ENDBRANCH  29  30
ENDBRANCH  27  29
ENDBRANCH  22  25
ENDBRANCH   1  19
TORSDOF 6
ENDMDL
