MODEL 1
REMARK VINA RESULT:      -7.4      0.000      0.000
REMARK  Name = 
REMARK  17 active torsions:
REMARK  status: ('A' for Active; 'I' for Inactive)
REMARK    1  A    between atoms: C_1  and  O_2
REMARK    2  A    between atoms: O_2  and  C_3
REMARK    3  A    between atoms: C_6  and  C_7
REMARK    4  A    between atoms: C_7  and  N_8
REMARK    5  A    between atoms: N_8  and  C_9
REMARK    6  A    between atoms: C_9  and  C_10
REMARK    7  A    between atoms: N_12  and  C_13
REMARK    8  A    between atoms: C_13  and  C_14
REMARK    9  A    between atoms: C_13  and  C_15
REMARK   10  A    between atoms: C_16  and  C_18
REMARK   11  A    between atoms: C_18  and  C_19
REMARK   12  A    between atoms: C_19  and  C_20
REMARK   13  A    between atoms: C_20  and  C_21
REMARK   14  A    between atoms: C_21  and  C_22
REMARK   15  A    between atoms: C_22  and  N_23
REMARK   16  A    between atoms: C_27  and  C_28
REMARK   17  A    between atoms: N_29  and  O_30
REMARK                            x       y       z     vdW  Elec       q    Type
REMARK                         _______ _______ _______ _____ _____    ______ ____
ROOT
ATOM      1  N   UNL     1       5.033   5.528  17.888  0.00  0.00    +0.000 N 
ATOM      2  C   UNL     1       6.037   6.204  17.184  0.00  0.00    +0.000 C 
ATOM      3  O   UNL     1       5.800   6.830  16.151  0.00  0.00    +0.000 OA
ENDROOT
BRANCH   1   4
ATOM      4  C   UNL     1       3.651   5.819  17.478  0.00  0.00    +0.000 C 
BRANCH   4   8
ATOM      5  C   UNL     1       1.474   9.077  19.323  0.00  0.00    +0.000 A 
ATOM      6  C   UNL     1       1.716   7.915  20.055  0.00  0.00    +0.000 A 
ATOM      7  C   UNL     1       2.450   6.857  19.503  0.00  0.00    +0.000 A 
ATOM      8  C   UNL     1       2.933   6.938  18.196  0.00  0.00    +0.000 A 
ATOM      9  C   UNL     1       2.743   8.141  17.493  0.00  0.00    +0.000 A 
ATOM     10  C   UNL     1       2.000   9.190  18.039  0.00  0.00    +0.000 A 
BRANCH   5  12
ATOM     11  C   UNL     1       1.006  10.266  21.314  0.00  0.00    +0.000 C 
ATOM     12  O   UNL     1       0.699  10.017  19.946  0.00  0.00    +0.000 OA
ENDBRANCH   5  12
ENDBRANCH   4   8
ENDBRANCH   1   4
BRANCH   1  13
ATOM     13  C   UNL     1       5.212   4.989  19.249  0.00  0.00    +0.000 C 
BRANCH  13  14
ATOM     14  C   UNL     1       4.512   3.674  19.631  0.00  0.00    +0.000 C 
ATOM     15  O   UNL     1       5.135   2.614  19.614  0.00  0.00    +0.000 OA
ATOM     16  N   UNL     1       3.156   3.737  19.841  0.00  0.00    +0.000 N 
ATOM     17  H   UNL     1       2.737   4.661  19.902  0.00  0.00    +0.000 HD
BRANCH  16  18
ATOM     18  C   UNL     1       2.314   2.586  20.185  0.00  0.00    +0.000 C 
ATOM     19  C   UNL     1       1.360   2.863  21.348  0.00  0.00    +0.000 C 
ATOM     20  C   UNL     1       1.550   2.038  18.981  0.00  0.00    +0.000 C 
ENDBRANCH  16  18
ENDBRANCH  13  14
ENDBRANCH   1  13
BRANCH   2  21
ATOM     21  C   UNL     1       7.451   6.156  17.752  0.00  0.00    +0.000 C 
BRANCH  21  22
ATOM     22  C   UNL     1       7.794   7.393  18.591  0.00  0.00    +0.000 C 
BRANCH  22  23
ATOM     23  C   UNL     1       7.876   8.651  17.723  0.00  0.00    +0.000 C 
BRANCH  23  24
ATOM     24  C   UNL     1       8.825   9.693  18.318  0.00  0.00    +0.000 C 
BRANCH  24  25
ATOM     25  C   UNL     1       8.345  11.114  18.016  0.00  0.00    +0.000 C 
BRANCH  25  26
ATOM     26  N   UNL     1       9.425  12.082  17.994  0.00  0.00    +0.000 N 
ATOM     27  C   UNL     1      10.726  11.772  17.694  0.00  0.00    +0.000 A 
ATOM     28  C   UNL     1      11.405  12.963  17.738  0.00  0.00    +0.000 A 
ATOM     29  N   UNL     1      10.557  13.985  18.065  0.00  0.00    +0.000 NA
ATOM     30  C   UNL     1       9.358  13.442  18.212  0.00  0.00    +0.000 A 
BRANCH  30  31
ATOM     31  C   UNL     1       8.216  14.261  18.536  0.00  0.00    +0.000 C 
ATOM     32  N   UNL     1       7.736  15.153  17.725  0.00  0.00    +0.000 NA
BRANCH  32  33
ATOM     33  O   UNL     1       6.654  15.796  18.341  0.00  0.00    +0.000 OA
ATOM     34  H   UNL     1       6.046  15.056  18.530  0.00  0.00    +0.000 HD
ENDBRANCH  32  33
ENDBRANCH  30  31
ENDBRANCH  25  26
ENDBRANCH  24  25
ENDBRANCH  23  24
ENDBRANCH  22  23
ENDBRANCH  21  22
ENDBRANCH   2  21
TORSDOF 14
ENDMDL
MODEL 2
REMARK VINA RESULT:      -7.3      4.668      9.058
REMARK  Name = 
REMARK  17 active torsions:
REMARK  status: ('A' for Active; 'I' for Inactive)
REMARK    1  A    between atoms: C_1  and  O_2
REMARK    2  A    between atoms: O_2  and  C_3
REMARK    3  A    between atoms: C_6  and  C_7
REMARK    4  A    between atoms: C_7  and  N_8
REMARK    5  A    between atoms: N_8  and  C_9
REMARK    6  A    between atoms: C_9  and  C_10
REMARK    7  A    between atoms: N_12  and  C_13
REMARK    8  A    between atoms: C_13  and  C_14
REMARK    9  A    between atoms: C_13  and  C_15
REMARK   10  A    between atoms: C_16  and  C_18
REMARK   11  A    between atoms: C_18  and  C_19
REMARK   12  A    between atoms: C_19  and  C_20
REMARK   13  A    between atoms: C_20  and  C_21
REMARK   14  A    between atoms: C_21  and  C_22
REMARK   15  A    between atoms: C_22  and  N_23
REMARK   16  A    between atoms: C_27  and  C_28
REMARK   17  A    between atoms: N_29  and  O_30
REMARK                            x       y       z     vdW  Elec       q    Type
REMARK                         _______ _______ _______ _____ _____    ______ ____
ROOT
ATOM      1  N   UNL     1       3.150   6.759  18.292  0.00  0.00    +0.000 N 
ATOM      2  C   UNL     1       3.262   5.934  19.417  0.00  0.00    +0.000 C 
ATOM      3  O   UNL     1       4.354   5.553  19.841  0.00  0.00    +0.000 OA
ENDROOT
BRANCH   1   4
ATOM      4  C   UNL     1       4.403   7.354  17.802  0.00  0.00    +0.000 C 
BRANCH   4   8
ATOM      5  C   UNL     1       6.655   4.980  14.964  0.00  0.00    +0.000 A 
ATOM      6  C   UNL     1       5.521   5.671  14.532  0.00  0.00    +0.000 A 
ATOM      7  C   UNL     1       4.792   6.477  15.414  0.00  0.00    +0.000 A 
ATOM      8  C   UNL     1       5.174   6.587  16.753  0.00  0.00    +0.000 A 
ATOM      9  C   UNL     1       6.357   5.944  17.159  0.00  0.00    +0.000 A 
ATOM     10  C   UNL     1       7.076   5.129  16.283  0.00  0.00    +0.000 A 
BRANCH   5  12
ATOM     11  C   UNL     1       6.417   3.748  12.959  0.00  0.00    +0.000 C 
ATOM     12  O   UNL     1       7.251   4.181  14.028  0.00  0.00    +0.000 OA
ENDBRANCH   5  12
ENDBRANCH   4   8
ENDBRANCH   1   4
BRANCH   1  13
ATOM     13  C   UNL     1       1.905   7.445  17.903  0.00  0.00    +0.000 C 
BRANCH  13  14
ATOM     14  C   UNL     1       1.754   8.947  18.200  0.00  0.00    +0.000 C 
ATOM     15  O   UNL     1       2.510   9.761  17.673  0.00  0.00    +0.000 OA
ATOM     16  N   UNL     1       0.848   9.294  19.172  0.00  0.00    +0.000 N 
ATOM     17  H   UNL     1       0.220   8.567  19.505  0.00  0.00    +0.000 HD
BRANCH  16  18
ATOM     18  C   UNL     1       0.586  10.669  19.611  0.00  0.00    +0.000 C 
ATOM     19  C   UNL     1      -0.838  11.139  19.308  0.00  0.00    +0.000 C 
ATOM     20  C   UNL     1       0.923  10.888  21.085  0.00  0.00    +0.000 C 
ENDBRANCH  16  18
ENDBRANCH  13  14
ENDBRANCH   1  13
BRANCH   2  21
ATOM     21  C   UNL     1       1.975   5.529  20.125  0.00  0.00    +0.000 C 
BRANCH  21  22
ATOM     22  C   UNL     1       2.225   4.637  21.347  0.00  0.00    +0.000 C 
BRANCH  22  23
ATOM     23  C   UNL     1       1.390   3.356  21.283  0.00  0.00    +0.000 C 
BRANCH  23  24
ATOM     24  C   UNL     1       0.646   3.227  19.951  0.00  0.00    +0.000 C 
BRANCH  24  25
ATOM     25  C   UNL     1       1.228   2.095  19.101  0.00  0.00    +0.000 C 
BRANCH  25  26
ATOM     26  N   UNL     1       2.342   2.524  18.277  0.00  0.00    +0.000 N 
ATOM     27  C   UNL     1       2.207   3.258  17.127  0.00  0.00    +0.000 A 
ATOM     28  C   UNL     1       3.485   3.488  16.687  0.00  0.00    +0.000 A 
ATOM     29  N   UNL     1       4.392   2.908  17.531  0.00  0.00    +0.000 NA
ATOM     30  C   UNL     1       3.690   2.331  18.494  0.00  0.00    +0.000 A 
BRANCH  30  31
ATOM     31  C   UNL     1       4.353   1.644  19.576  0.00  0.00    +0.000 C 
ATOM     32  N   UNL     1       4.916   2.265  20.564  0.00  0.00    +0.000 NA
BRANCH  32  33
ATOM     33  O   UNL     1       5.495   1.324  21.426  0.00  0.00    +0.000 OA
ATOM     34  H   UNL     1       6.374   1.708  21.603  0.00  0.00    +0.000 HD
ENDBRANCH  32  33
ENDBRANCH  30  31
ENDBRANCH  25  26
ENDBRANCH  24  25
ENDBRANCH  23  24
ENDBRANCH  22  23
ENDBRANCH  21  22
ENDBRANCH   2  21
TORSDOF 14
ENDMDL
MODEL 3
REMARK VINA RESULT:      -7.3      3.117      4.981
REMARK  Name = 
REMARK  17 active torsions:
REMARK  status: ('A' for Active; 'I' for Inactive)
REMARK    1  A    between atoms: C_1  and  O_2
REMARK    2  A    between atoms: O_2  and  C_3
REMARK    3  A    between atoms: C_6  and  C_7
REMARK    4  A    between atoms: C_7  and  N_8
REMARK    5  A    between atoms: N_8  and  C_9
REMARK    6  A    between atoms: C_9  and  C_10
REMARK    7  A    between atoms: N_12  and  C_13
REMARK    8  A    between atoms: C_13  and  C_14
REMARK    9  A    between atoms: C_13  and  C_15
REMARK   10  A    between atoms: C_16  and  C_18
REMARK   11  A    between atoms: C_18  and  C_19
REMARK   12  A    between atoms: C_19  and  C_20
REMARK   13  A    between atoms: C_20  and  C_21
REMARK   14  A    between atoms: C_21  and  C_22
REMARK   15  A    between atoms: C_22  and  N_23
REMARK   16  A    between atoms: C_27  and  C_28
REMARK   17  A    between atoms: N_29  and  O_30
REMARK                            x       y       z     vdW  Elec       q    Type
REMARK                         _______ _______ _______ _____ _____    ______ ____
ROOT
ATOM      1  N   UNL     1       6.379   5.729  17.563  0.00  0.00    +0.000 N 
ATOM      2  C   UNL     1       7.314   6.550  18.204  0.00  0.00    +0.000 C 
ATOM      3  O   UNL     1       7.777   6.271  19.311  0.00  0.00    +0.000 OA
ENDROOT
BRANCH   1   4
ATOM      4  C   UNL     1       6.177   4.398  18.155  0.00  0.00    +0.000 C 
BRANCH   4   8
ATOM      5  C   UNL     1       2.543   3.984  20.476  0.00  0.00    +0.000 A 
ATOM      6  C   UNL     1       3.344   2.863  20.252  0.00  0.00    +0.000 A 
ATOM      7  C   UNL     1       4.545   2.969  19.538  0.00  0.00    +0.000 A 
ATOM      8  C   UNL     1       4.951   4.198  19.016  0.00  0.00    +0.000 A 
ATOM      9  C   UNL     1       4.173   5.332  19.308  0.00  0.00    +0.000 A 
ATOM     10  C   UNL     1       2.970   5.224  20.007  0.00  0.00    +0.000 A 
BRANCH   5  12
ATOM     11  C   UNL     1       1.282   2.503  21.822  0.00  0.00    +0.000 C 
ATOM     12  O   UNL     1       1.369   3.747  21.135  0.00  0.00    +0.000 OA
ENDBRANCH   5  12
ENDBRANCH   4   8
ENDBRANCH   1   4
BRANCH   1  13
ATOM     13  C   UNL     1       5.996   5.880  16.147  0.00  0.00    +0.000 C 
BRANCH  13  14
ATOM     14  C   UNL     1       6.653   4.974  15.093  0.00  0.00    +0.000 C 
ATOM     15  O   UNL     1       7.852   4.709  15.165  0.00  0.00    +0.000 OA
ATOM     16  N   UNL     1       5.876   4.612  14.020  0.00  0.00    +0.000 N 
ATOM     17  H   UNL     1       4.881   4.817  14.076  0.00  0.00    +0.000 HD
BRANCH  16  18
ATOM     18  C   UNL     1       6.334   3.778  12.904  0.00  0.00    +0.000 C 
ATOM     19  C   UNL     1       5.187   3.158  12.103  0.00  0.00    +0.000 C 
ATOM     20  C   UNL     1       7.299   4.517  11.979  0.00  0.00    +0.000 C 
ENDBRANCH  16  18
ENDBRANCH  13  14
ENDBRANCH   1  13
BRANCH   2  21
ATOM     21  C   UNL     1       7.764   7.811  17.475  0.00  0.00    +0.000 C 
BRANCH  21  22
ATOM     22  C   UNL     1       8.402   8.842  18.413  0.00  0.00    +0.000 C 
BRANCH  22  23
ATOM     23  C   UNL     1       8.923  10.054  17.636  0.00  0.00    +0.000 C 
BRANCH  23  24
ATOM     24  C   UNL     1       8.951  11.316  18.502  0.00  0.00    +0.000 C 
BRANCH  24  25
ATOM     25  C   UNL     1      10.374  11.634  18.968  0.00  0.00    +0.000 C 
BRANCH  25  26
ATOM     26  N   UNL     1      10.439  12.803  19.825  0.00  0.00    +0.000 N 
ATOM     27  C   UNL     1      10.943  14.015  19.430  0.00  0.00    +0.000 A 
ATOM     28  C   UNL     1      10.778  14.848  20.508  0.00  0.00    +0.000 A 
ATOM     29  N   UNL     1      10.197  14.174  21.547  0.00  0.00    +0.000 NA
ATOM     30  C   UNL     1       9.990  12.938  21.121  0.00  0.00    +0.000 A 
BRANCH  30  31
ATOM     31  C   UNL     1       9.358  11.963  21.977  0.00  0.00    +0.000 C 
ATOM     32  N   UNL     1       8.728  12.283  23.064  0.00  0.00    +0.000 NA
BRANCH  32  33
ATOM     33  O   UNL     1       8.257  11.116  23.680  0.00  0.00    +0.000 OA
ATOM     34  H   UNL     1       8.639  10.412  23.123  0.00  0.00    +0.000 HD
ENDBRANCH  32  33
ENDBRANCH  30  31
ENDBRANCH  25  26
ENDBRANCH  24  25
ENDBRANCH  23  24
ENDBRANCH  22  23
ENDBRANCH  21  22
ENDBRANCH   2  21
TORSDOF 14
ENDMDL
MODEL 4
REMARK VINA RESULT:      -7.2      1.552      1.957
REMARK  Name = 
REMARK  17 active torsions:
REMARK  status: ('A' for Active; 'I' for Inactive)
REMARK    1  A    between atoms: C_1  and  O_2
REMARK    2  A    between atoms: O_2  and  C_3
REMARK    3  A    between atoms: C_6  and  C_7
REMARK    4  A    between atoms: C_7  and  N_8
REMARK    5  A    between atoms: N_8  and  C_9
REMARK    6  A    between atoms: C_9  and  C_10
REMARK    7  A    between atoms: N_12  and  C_13
REMARK    8  A    between atoms: C_13  and  C_14
REMARK    9  A    between atoms: C_13  and  C_15
REMARK   10  A    between atoms: C_16  and  C_18
REMARK   11  A    between atoms: C_18  and  C_19
REMARK   12  A    between atoms: C_19  and  C_20
REMARK   13  A    between atoms: C_20  and  C_21
REMARK   14  A    between atoms: C_21  and  C_22
REMARK   15  A    between atoms: C_22  and  N_23
REMARK   16  A    between atoms: C_27  and  C_28
REMARK   17  A    between atoms: N_29  and  O_30
REMARK                            x       y       z     vdW  Elec       q    Type
REMARK                         _______ _______ _______ _____ _____    ______ ____
ROOT
ATOM      1  N   UNL     1       4.911   5.923  17.971  0.00  0.00    +0.000 N 
ATOM      2  C   UNL     1       5.815   6.736  17.278  0.00  0.00    +0.000 C 
ATOM      3  O   UNL     1       5.488   7.362  16.269  0.00  0.00    +0.000 OA
ENDROOT
BRANCH   1   4
ATOM      4  C   UNL     1       3.497   6.057  17.588  0.00  0.00    +0.000 C 
BRANCH   4   8
ATOM      5  C   UNL     1       1.348   9.194  19.662  0.00  0.00    +0.000 A 
ATOM      6  C   UNL     1       1.695   9.372  18.323  0.00  0.00    +0.000 A 
ATOM      7  C   UNL     1       2.357   8.364  17.611  0.00  0.00    +0.000 A 
ATOM      8  C   UNL     1       2.703   7.166  18.239  0.00  0.00    +0.000 A 
ATOM      9  C   UNL     1       2.286   6.970  19.568  0.00  0.00    +0.000 A 
ATOM     10  C   UNL     1       1.639   7.981  20.281  0.00  0.00    +0.000 A 
BRANCH   5  12
ATOM     11  C   UNL     1       0.485  10.128  21.657  0.00  0.00    +0.000 C 
ATOM     12  O   UNL     1       0.756  10.269  20.267  0.00  0.00    +0.000 OA
ENDBRANCH   5  12
ENDBRANCH   4   8
ENDBRANCH   1   4
BRANCH   1  13
ATOM     13  C   UNL     1       5.176   5.366  19.311  0.00  0.00    +0.000 C 
BRANCH  13  14
ATOM     14  C   UNL     1       4.625   3.974  19.665  0.00  0.00    +0.000 C 
ATOM     15  O   UNL     1       5.308   2.971  19.470  0.00  0.00    +0.000 OA
ATOM     16  N   UNL     1       3.311   3.914  20.060  0.00  0.00    +0.000 N 
ATOM     17  H   UNL     1       2.844   4.796  20.259  0.00  0.00    +0.000 HD
BRANCH  16  18
ATOM     18  C   UNL     1       2.604   2.678  20.410  0.00  0.00    +0.000 C 
ATOM     19  C   UNL     1       1.660   2.840  21.604  0.00  0.00    +0.000 C 
ATOM     20  C   UNL     1       1.866   2.067  19.220  0.00  0.00    +0.000 C 
ENDBRANCH  16  18
ENDBRANCH  13  14
ENDBRANCH   1  13
BRANCH   2  21
ATOM     21  C   UNL     1       7.233   6.841  17.826  0.00  0.00    +0.000 C 
BRANCH  21  22
ATOM     22  C   UNL     1       7.907   8.173  17.474  0.00  0.00    +0.000 C 
BRANCH  22  23
ATOM     23  C   UNL     1       8.485   8.851  18.719  0.00  0.00    +0.000 C 
BRANCH  23  24
ATOM     24  C   UNL     1       9.409  10.016  18.356  0.00  0.00    +0.000 C 
BRANCH  24  25
ATOM     25  C   UNL     1       8.608  11.288  18.072  0.00  0.00    +0.000 C 
BRANCH  25  26
ATOM     26  N   UNL     1       9.324  12.498  18.431  0.00  0.00    +0.000 N 
ATOM     27  C   UNL     1       9.981  13.295  17.530  0.00  0.00    +0.000 A 
ATOM     28  C   UNL     1      10.475  14.344  18.262  0.00  0.00    +0.000 A 
ATOM     29  N   UNL     1      10.145  14.203  19.582  0.00  0.00    +0.000 NA
ATOM     30  C   UNL     1       9.442  13.084  19.673  0.00  0.00    +0.000 A 
BRANCH  30  31
ATOM     31  C   UNL     1       8.910  12.653  20.942  0.00  0.00    +0.000 C 
ATOM     32  N   UNL     1       9.305  11.572  21.541  0.00  0.00    +0.000 NA
BRANCH  32  33
ATOM     33  O   UNL     1       8.579  11.417  22.730  0.00  0.00    +0.000 OA
ATOM     34  H   UNL     1       9.188  11.783  23.400  0.00  0.00    +0.000 HD
ENDBRANCH  32  33
ENDBRANCH  30  31
ENDBRANCH  25  26
ENDBRANCH  24  25
ENDBRANCH  23  24
ENDBRANCH  22  23
ENDBRANCH  21  22
ENDBRANCH   2  21
TORSDOF 14
ENDMDL
MODEL 5
REMARK VINA RESULT:      -7.2      2.793      4.724
REMARK  Name = 
REMARK  17 active torsions:
REMARK  status: ('A' for Active; 'I' for Inactive)
REMARK    1  A    between atoms: C_1  and  O_2
REMARK    2  A    between atoms: O_2  and  C_3
REMARK    3  A    between atoms: C_6  and  C_7
REMARK    4  A    between atoms: C_7  and  N_8
REMARK    5  A    between atoms: N_8  and  C_9
REMARK    6  A    between atoms: C_9  and  C_10
REMARK    7  A    between atoms: N_12  and  C_13
REMARK    8  A    between atoms: C_13  and  C_14
REMARK    9  A    between atoms: C_13  and  C_15
REMARK   10  A    between atoms: C_16  and  C_18
REMARK   11  A    between atoms: C_18  and  C_19
REMARK   12  A    between atoms: C_19  and  C_20
REMARK   13  A    between atoms: C_20  and  C_21
REMARK   14  A    between atoms: C_21  and  C_22
REMARK   15  A    between atoms: C_22  and  N_23
REMARK   16  A    between atoms: C_27  and  C_28
REMARK   17  A    between atoms: N_29  and  O_30
REMARK                            x       y       z     vdW  Elec       q    Type
REMARK                         _______ _______ _______ _____ _____    ______ ____
ROOT
ATOM      1  N   UNL     1       5.746   5.379  16.740  0.00  0.00    +0.000 N 
ATOM      2  C   UNL     1       5.890   6.242  17.834  0.00  0.00    +0.000 C 
ATOM      3  O   UNL     1       4.919   6.740  18.403  0.00  0.00    +0.000 OA
ENDROOT
BRANCH   1   4
ATOM      4  C   UNL     1       4.381   4.899  16.474  0.00  0.00    +0.000 C 
BRANCH   4   8
ATOM      5  C   UNL     1       2.100   2.900  19.565  0.00  0.00    +0.000 A 
ATOM      6  C   UNL     1       3.427   2.529  19.346  0.00  0.00    +0.000 A 
ATOM      7  C   UNL     1       4.205   3.180  18.381  0.00  0.00    +0.000 A 
ATOM      8  C   UNL     1       3.657   4.201  17.601  0.00  0.00    +0.000 A 
ATOM      9  C   UNL     1       2.341   4.612  17.879  0.00  0.00    +0.000 A 
ATOM     10  C   UNL     1       1.562   3.954  18.832  0.00  0.00    +0.000 A 
BRANCH   5  12
ATOM     11  C   UNL     1       1.535   2.595  21.842  0.00  0.00    +0.000 C 
ATOM     12  O   UNL     1       1.425   2.155  20.493  0.00  0.00    +0.000 OA
ENDBRANCH   5  12
ENDBRANCH   4   8
ENDBRANCH   1   4
BRANCH   1  13
ATOM     13  C   UNL     1       6.845   4.562  16.194  0.00  0.00    +0.000 C 
BRANCH  13  14
ATOM     14  C   UNL     1       7.051   4.507  14.671  0.00  0.00    +0.000 C 
ATOM     15  O   UNL     1       7.738   5.357  14.108  0.00  0.00    +0.000 OA
ATOM     16  N   UNL     1       6.323   3.566  13.985  0.00  0.00    +0.000 N 
ATOM     17  H   UNL     1       5.837   2.862  14.535  0.00  0.00    +0.000 HD
BRANCH  16  18
ATOM     18  C   UNL     1       6.365   3.380  12.531  0.00  0.00    +0.000 C 
ATOM     19  C   UNL     1       4.979   3.386  11.881  0.00  0.00    +0.000 C 
ATOM     20  C   UNL     1       7.288   4.381  11.838  0.00  0.00    +0.000 C 
ENDBRANCH  16  18
ENDBRANCH  13  14
ENDBRANCH   1  13
BRANCH   2  21
ATOM     21  C   UNL     1       7.305   6.535  18.318  0.00  0.00    +0.000 C 
BRANCH  21  22
ATOM     22  C   UNL     1       8.038   7.546  17.427  0.00  0.00    +0.000 C 
BRANCH  22  23
ATOM     23  C   UNL     1       7.749   8.985  17.862  0.00  0.00    +0.000 C 
BRANCH  23  24
ATOM     24  C   UNL     1       8.982   9.652  18.478  0.00  0.00    +0.000 C 
BRANCH  24  25
ATOM     25  C   UNL     1       8.981  11.160  18.217  0.00  0.00    +0.000 C 
BRANCH  25  26
ATOM     26  N   UNL     1      10.094  11.843  18.849  0.00  0.00    +0.000 N 
ATOM     27  C   UNL     1      10.997  11.230  19.679  0.00  0.00    +0.000 A 
ATOM     28  C   UNL     1      11.902  12.204  20.018  0.00  0.00    +0.000 A 
ATOM     29  N   UNL     1      11.569  13.391  19.425  0.00  0.00    +0.000 NA
ATOM     30  C   UNL     1      10.476  13.160  18.715  0.00  0.00    +0.000 A 
BRANCH  30  31
ATOM     31  C   UNL     1       9.872  14.213  17.935  0.00  0.00    +0.000 C 
ATOM     32  N   UNL     1      10.565  15.113  17.310  0.00  0.00    +0.000 NA
BRANCH  32  33
ATOM     33  O   UNL     1       9.690  16.005  16.674  0.00  0.00    +0.000 OA
ATOM     34  H   UNL     1       9.718  15.705  15.746  0.00  0.00    +0.000 HD
ENDBRANCH  32  33
ENDBRANCH  30  31
ENDBRANCH  25  26
ENDBRANCH  24  25
ENDBRANCH  23  24
ENDBRANCH  22  23
ENDBRANCH  21  22
ENDBRANCH   2  21
TORSDOF 14
ENDMDL
MODEL 6
REMARK VINA RESULT:      -7.1      2.206      3.703
REMARK  Name = 
REMARK  17 active torsions:
REMARK  status: ('A' for Active; 'I' for Inactive)
REMARK    1  A    between atoms: C_1  and  O_2
REMARK    2  A    between atoms: O_2  and  C_3
REMARK    3  A    between atoms: C_6  and  C_7
REMARK    4  A    between atoms: C_7  and  N_8
REMARK    5  A    between atoms: N_8  and  C_9
REMARK    6  A    between atoms: C_9  and  C_10
REMARK    7  A    between atoms: N_12  and  C_13
REMARK    8  A    between atoms: C_13  and  C_14
REMARK    9  A    between atoms: C_13  and  C_15
REMARK   10  A    between atoms: C_16  and  C_18
REMARK   11  A    between atoms: C_18  and  C_19
REMARK   12  A    between atoms: C_19  and  C_20
REMARK   13  A    between atoms: C_20  and  C_21
REMARK   14  A    between atoms: C_21  and  C_22
REMARK   15  A    between atoms: C_22  and  N_23
REMARK   16  A    between atoms: C_27  and  C_28
REMARK   17  A    between atoms: N_29  and  O_30
REMARK                            x       y       z     vdW  Elec       q    Type
REMARK                         _______ _______ _______ _____ _____    ______ ____
ROOT
ATOM      1  N   UNL     1       4.800   6.135  17.711  0.00  0.00    +0.000 N 
ATOM      2  C   UNL     1       5.784   5.691  18.602  0.00  0.00    +0.000 C 
ATOM      3  O   UNL     1       5.510   5.316  19.742  0.00  0.00    +0.000 OA
ENDROOT
BRANCH   1   4
ATOM      4  C   UNL     1       3.407   5.889  18.113  0.00  0.00    +0.000 C 
BRANCH   4   8
ATOM      5  C   UNL     1       1.223   9.272  19.709  0.00  0.00    +0.000 A 
ATOM      6  C   UNL     1       1.595   9.270  18.364  0.00  0.00    +0.000 A 
ATOM      7  C   UNL     1       2.269   8.176  17.806  0.00  0.00    +0.000 A 
ATOM      8  C   UNL     1       2.601   7.073  18.595  0.00  0.00    +0.000 A 
ATOM      9  C   UNL     1       2.160   7.056  19.930  0.00  0.00    +0.000 A 
ATOM     10  C   UNL     1       1.501   8.153  20.489  0.00  0.00    +0.000 A 
BRANCH   5  12
ATOM     11  C   UNL     1      -0.740  10.590  19.776  0.00  0.00    +0.000 C 
ATOM     12  O   UNL     1       0.622  10.417  20.153  0.00  0.00    +0.000 OA
ENDBRANCH   5  12
ENDBRANCH   4   8
ENDBRANCH   1   4
BRANCH   1  13
ATOM     13  C   UNL     1       5.037   6.344  16.271  0.00  0.00    +0.000 C 
BRANCH  13  14
ATOM     14  C   UNL     1       5.419   5.140  15.393  0.00  0.00    +0.000 C 
ATOM     15  O   UNL     1       5.064   4.006  15.710  0.00  0.00    +0.000 OA
ATOM     16  N   UNL     1       6.276   5.387  14.349  0.00  0.00    +0.000 N 
ATOM     17  H   UNL     1       6.462   6.360  14.119  0.00  0.00    +0.000 HD
BRANCH  16  18
ATOM     18  C   UNL     1       6.774   4.364  13.422  0.00  0.00    +0.000 C 
ATOM     19  C   UNL     1       5.655   3.594  12.716  0.00  0.00    +0.000 C 
ATOM     20  C   UNL     1       7.764   4.927  12.405  0.00  0.00    +0.000 C 
ENDBRANCH  16  18
ENDBRANCH  13  14
ENDBRANCH   1  13
BRANCH   2  21
ATOM     21  C   UNL     1       7.225   5.666  18.106  0.00  0.00    +0.000 C 
BRANCH  21  22
ATOM     22  C   UNL     1       8.086   6.769  18.731  0.00  0.00    +0.000 C 
BRANCH  22  23
ATOM     23  C   UNL     1       7.871   8.111  18.026  0.00  0.00    +0.000 C 
BRANCH  23  24
ATOM     24  C   UNL     1       9.002   9.098  18.323  0.00  0.00    +0.000 C 
BRANCH  24  25
ATOM     25  C   UNL     1       8.524  10.545  18.179  0.00  0.00    +0.000 C 
BRANCH  25  26
ATOM     26  N   UNL     1       8.984  11.401  19.256  0.00  0.00    +0.000 N 
ATOM     27  C   UNL     1       9.365  10.942  20.490  0.00  0.00    +0.000 A 
ATOM     28  C   UNL     1       9.769  12.054  21.185  0.00  0.00    +0.000 A 
ATOM     29  N   UNL     1       9.636  13.175  20.412  0.00  0.00    +0.000 NA
ATOM     30  C   UNL     1       9.165  12.768  19.243  0.00  0.00    +0.000 A 
BRANCH  30  31
ATOM     31  C   UNL     1       8.933  13.711  18.176  0.00  0.00    +0.000 C 
ATOM     32  N   UNL     1       8.713  14.972  18.386  0.00  0.00    +0.000 NA
BRANCH  32  33
ATOM     33  O   UNL     1       8.497  15.609  17.157  0.00  0.00    +0.000 OA
ATOM     34  H   UNL     1       8.057  16.439  17.422  0.00  0.00    +0.000 HD
ENDBRANCH  32  33
ENDBRANCH  30  31
ENDBRANCH  25  26
ENDBRANCH  24  25
ENDBRANCH  23  24
ENDBRANCH  22  23
ENDBRANCH  21  22
ENDBRANCH   2  21
TORSDOF 14
ENDMDL
MODEL 7
REMARK VINA RESULT:      -6.9      4.506      7.622
REMARK  Name = 
REMARK  17 active torsions:
REMARK  status: ('A' for Active; 'I' for Inactive)
REMARK    1  A    between atoms: C_1  and  O_2
REMARK    2  A    between atoms: O_2  and  C_3
REMARK    3  A    between atoms: C_6  and  C_7
REMARK    4  A    between atoms: C_7  and  N_8
REMARK    5  A    between atoms: N_8  and  C_9
REMARK    6  A    between atoms: C_9  and  C_10
REMARK    7  A    between atoms: N_12  and  C_13
REMARK    8  A    between atoms: C_13  and  C_14
REMARK    9  A    between atoms: C_13  and  C_15
REMARK   10  A    between atoms: C_16  and  C_18
REMARK   11  A    between atoms: C_18  and  C_19
REMARK   12  A    between atoms: C_19  and  C_20
REMARK   13  A    between atoms: C_20  and  C_21
REMARK   14  A    between atoms: C_21  and  C_22
REMARK   15  A    between atoms: C_22  and  N_23
REMARK   16  A    between atoms: C_27  and  C_28
REMARK   17  A    between atoms: N_29  and  O_30
REMARK                            x       y       z     vdW  Elec       q    Type
REMARK                         _______ _______ _______ _____ _____    ______ ____
ROOT
ATOM      1  N   UNL     1       1.414   8.651  19.509  0.00  0.00    +0.000 N 
ATOM      2  C   UNL     1       2.265   7.894  18.694  0.00  0.00    +0.000 C 
ATOM      3  O   UNL     1       2.636   8.294  17.590  0.00  0.00    +0.000 OA
ENDROOT
BRANCH   1   4
ATOM      4  C   UNL     1       1.199  10.046  19.095  0.00  0.00    +0.000 C 
BRANCH   4   8
ATOM      5  C   UNL     1      -2.473  11.207  17.112  0.00  0.00    +0.000 A 
ATOM      6  C   UNL     1      -2.145   9.854  17.209  0.00  0.00    +0.000 A 
ATOM      7  C   UNL     1      -0.985   9.442  17.876  0.00  0.00    +0.000 A 
ATOM      8  C   UNL     1      -0.121  10.382  18.439  0.00  0.00    +0.000 A 
ATOM      9  C   UNL     1      -0.497  11.736  18.396  0.00  0.00    +0.000 A 
ATOM     10  C   UNL     1      -1.646  12.148  17.719  0.00  0.00    +0.000 A 
BRANCH   5  12
ATOM     11  C   UNL     1      -3.937  10.554  15.373  0.00  0.00    +0.000 C 
ATOM     12  O   UNL     1      -3.599  11.491  16.389  0.00  0.00    +0.000 OA
ENDBRANCH   5  12
ENDBRANCH   4   8
ENDBRANCH   1   4
BRANCH   1  13
ATOM     13  C   UNL     1       1.152   8.341  20.926  0.00  0.00    +0.000 C 
BRANCH  13  14
ATOM     14  C   UNL     1       0.980   9.498  21.925  0.00  0.00    +0.000 C 
ATOM     15  O   UNL     1       1.757   9.619  22.870  0.00  0.00    +0.000 OA
ATOM     16  N   UNL     1      -0.145  10.272  21.784  0.00  0.00    +0.000 N 
ATOM     17  H   UNL     1      -0.694  10.145  20.937  0.00  0.00    +0.000 HD
BRANCH  16  18
ATOM     18  C   UNL     1      -0.495  11.399  22.655  0.00  0.00    +0.000 C 
ATOM     19  C   UNL     1      -0.573  12.734  21.912  0.00  0.00    +0.000 C 
ATOM     20  C   UNL     1      -1.775  11.149  23.450  0.00  0.00    +0.000 C 
ENDBRANCH  16  18
ENDBRANCH  13  14
ENDBRANCH   1  13
BRANCH   2  21
ATOM     21  C   UNL     1       2.740   6.549  19.229  0.00  0.00    +0.000 C 
BRANCH  21  22
ATOM     22  C   UNL     1       1.850   5.384  18.778  0.00  0.00    +0.000 C 
BRANCH  22  23
ATOM     23  C   UNL     1       2.587   4.046  18.884  0.00  0.00    +0.000 C 
BRANCH  23  24
ATOM     24  C   UNL     1       4.105   4.223  18.797  0.00  0.00    +0.000 C 
BRANCH  24  25
ATOM     25  C   UNL     1       4.588   4.134  17.347  0.00  0.00    +0.000 C 
BRANCH  25  26
ATOM     26  N   UNL     1       5.673   5.052  17.056  0.00  0.00    +0.000 N 
ATOM     27  C   UNL     1       5.992   6.133  17.837  0.00  0.00    +0.000 A 
ATOM     28  C   UNL     1       7.091   6.701  17.244  0.00  0.00    +0.000 A 
ATOM     29  N   UNL     1       7.442   6.002  16.122  0.00  0.00    +0.000 NA
ATOM     30  C   UNL     1       6.580   5.001  16.020  0.00  0.00    +0.000 A 
BRANCH  30  31
ATOM     31  C   UNL     1       6.689   4.045  14.945  0.00  0.00    +0.000 C 
ATOM     32  N   UNL     1       5.859   4.007  13.950  0.00  0.00    +0.000 NA
BRANCH  32  33
ATOM     33  O   UNL     1       6.216   2.953  13.097  0.00  0.00    +0.000 OA
ATOM     34  H   UNL     1       5.358   2.688  12.716  0.00  0.00    +0.000 HD
ENDBRANCH  32  33
ENDBRANCH  30  31
ENDBRANCH  25  26
ENDBRANCH  24  25
ENDBRANCH  23  24
ENDBRANCH  22  23
ENDBRANCH  21  22
ENDBRANCH   2  21
TORSDOF 14
ENDMDL
MODEL 8
REMARK VINA RESULT:      -6.9      2.148      4.568
REMARK  Name = 
REMARK  17 active torsions:
REMARK  status: ('A' for Active; 'I' for Inactive)
REMARK    1  A    between atoms: C_1  and  O_2
REMARK    2  A    between atoms: O_2  and  C_3
REMARK    3  A    between atoms: C_6  and  C_7
REMARK    4  A    between atoms: C_7  and  N_8
REMARK    5  A    between atoms: N_8  and  C_9
REMARK    6  A    between atoms: C_9  and  C_10
REMARK    7  A    between atoms: N_12  and  C_13
REMARK    8  A    between atoms: C_13  and  C_14
REMARK    9  A    between atoms: C_13  and  C_15
REMARK   10  A    between atoms: C_16  and  C_18
REMARK   11  A    between atoms: C_18  and  C_19
REMARK   12  A    between atoms: C_19  and  C_20
REMARK   13  A    between atoms: C_20  and  C_21
REMARK   14  A    between atoms: C_21  and  C_22
REMARK   15  A    between atoms: C_22  and  N_23
REMARK   16  A    between atoms: C_27  and  C_28
REMARK   17  A    between atoms: N_29  and  O_30
REMARK                            x       y       z     vdW  Elec       q    Type
REMARK                         _______ _______ _______ _____ _____    ______ ____
ROOT
ATOM      1  N   UNL     1       5.161   6.298  17.255  0.00  0.00    +0.000 N 
ATOM      2  C   UNL     1       6.498   6.621  17.521  0.00  0.00    +0.000 C 
ATOM      3  O   UNL     1       7.362   5.756  17.665  0.00  0.00    +0.000 OA
ENDROOT
BRANCH   1   4
ATOM      4  C   UNL     1       4.895   4.895  16.903  0.00  0.00    +0.000 C 
BRANCH   4   8
ATOM      5  C   UNL     1       2.277   2.811  19.653  0.00  0.00    +0.000 A 
ATOM      6  C   UNL     1       1.831   3.088  18.360  0.00  0.00    +0.000 A 
ATOM      7  C   UNL     1       2.665   3.726  17.433  0.00  0.00    +0.000 A 
ATOM      8  C   UNL     1       3.955   4.119  17.796  0.00  0.00    +0.000 A 
ATOM      9  C   UNL     1       4.417   3.772  19.078  0.00  0.00    +0.000 A 
ATOM     10  C   UNL     1       3.581   3.148  20.005  0.00  0.00    +0.000 A 
BRANCH   5  12
ATOM     11  C   UNL     1       1.490   2.543  21.867  0.00  0.00    +0.000 C 
ATOM     12  O   UNL     1       1.355   2.236  20.484  0.00  0.00    +0.000 OA
ENDBRANCH   5  12
ENDBRANCH   4   8
ENDBRANCH   1   4
BRANCH   1  13
ATOM     13  C   UNL     1       4.154   7.283  16.822  0.00  0.00    +0.000 C 
BRANCH  13  14
ATOM     14  C   UNL     1       3.108   7.779  17.836  0.00  0.00    +0.000 C 
ATOM     15  O   UNL     1       2.716   7.036  18.734  0.00  0.00    +0.000 OA
ATOM     16  N   UNL     1       2.552   9.011  17.594  0.00  0.00    +0.000 N 
ATOM     17  H   UNL     1       2.984   9.583  16.872  0.00  0.00    +0.000 HD
BRANCH  16  18
ATOM     18  C   UNL     1       1.522   9.637  18.430  0.00  0.00    +0.000 C 
ATOM     19  C   UNL     1       1.775  11.124  18.686  0.00  0.00    +0.000 C 
ATOM     20  C   UNL     1       0.112   9.416  17.887  0.00  0.00    +0.000 C 
ENDBRANCH  16  18
ENDBRANCH  13  14
ENDBRANCH   1  13
BRANCH   2  21
ATOM     21  C   UNL     1       6.861   8.098  17.609  0.00  0.00    +0.000 C 
BRANCH  21  22
ATOM     22  C   UNL     1       8.376   8.334  17.658  0.00  0.00    +0.000 C 
BRANCH  22  23
ATOM     23  C   UNL     1       8.761   9.244  18.826  0.00  0.00    +0.000 C 
BRANCH  23  24
ATOM     24  C   UNL     1       8.950  10.696  18.379  0.00  0.00    +0.000 C 
BRANCH  24  25
ATOM     25  C   UNL     1      10.312  11.237  18.820  0.00  0.00    +0.000 C 
BRANCH  25  26
ATOM     26  N   UNL     1      10.209  12.457  19.599  0.00  0.00    +0.000 N 
ATOM     27  C   UNL     1      10.112  12.487  20.965  0.00  0.00    +0.000 A 
ATOM     28  C   UNL     1      10.085  13.816  21.301  0.00  0.00    +0.000 A 
ATOM     29  N   UNL     1      10.154  14.594  20.177  0.00  0.00    +0.000 NA
ATOM     30  C   UNL     1      10.235  13.760  19.152  0.00  0.00    +0.000 A 
BRANCH  30  31
ATOM     31  C   UNL     1      10.350  14.263  17.804  0.00  0.00    +0.000 C 
ATOM     32  N   UNL     1      11.266  13.863  16.979  0.00  0.00    +0.000 NA
BRANCH  32  33
ATOM     33  O   UNL     1      11.128  14.559  15.770  0.00  0.00    +0.000 OA
ATOM     34  H   UNL     1      11.207  15.491  16.050  0.00  0.00    +0.000 HD
ENDBRANCH  32  33
ENDBRANCH  30  31
ENDBRANCH  25  26
ENDBRANCH  24  25
ENDBRANCH  23  24
ENDBRANCH  22  23
ENDBRANCH  21  22
ENDBRANCH   2  21
TORSDOF 14
ENDMDL
MODEL 9
REMARK VINA RESULT:      -6.9      2.792      4.188
REMARK  Name = 
REMARK  17 active torsions:
REMARK  status: ('A' for Active; 'I' for Inactive)
REMARK    1  A    between atoms: C_1  and  O_2
REMARK    2  A    between atoms: O_2  and  C_3
REMARK    3  A    between atoms: C_6  and  C_7
REMARK    4  A    between atoms: C_7  and  N_8
REMARK    5  A    between atoms: N_8  and  C_9
REMARK    6  A    between atoms: C_9  and  C_10
REMARK    7  A    between atoms: N_12  and  C_13
REMARK    8  A    between atoms: C_13  and  C_14
REMARK    9  A    between atoms: C_13  and  C_15
REMARK   10  A    between atoms: C_16  and  C_18
REMARK   11  A    between atoms: C_18  and  C_19
REMARK   12  A    between atoms: C_19  and  C_20
REMARK   13  A    between atoms: C_20  and  C_21
REMARK   14  A    between atoms: C_21  and  C_22
REMARK   15  A    between atoms: C_22  and  N_23
REMARK   16  A    between atoms: C_27  and  C_28
REMARK   17  A    between atoms: N_29  and  O_30
REMARK                            x       y       z     vdW  Elec       q    Type
REMARK                         _______ _______ _______ _____ _____    ______ ____
ROOT
ATOM      1  N   UNL     1       5.288   4.670  17.359  0.00  0.00    +0.000 N 
ATOM      2  C   UNL     1       6.053   5.243  18.381  0.00  0.00    +0.000 C 
ATOM      3  O   UNL     1       5.536   5.747  19.378  0.00  0.00    +0.000 OA
ENDROOT
BRANCH   1   4
ATOM      4  C   UNL     1       3.861   4.469  17.656  0.00  0.00    +0.000 C 
BRANCH   4   8
ATOM      5  C   UNL     1       1.825   7.680  19.730  0.00  0.00    +0.000 A 
ATOM      6  C   UNL     1       2.364   7.916  18.465  0.00  0.00    +0.000 A 
ATOM      7  C   UNL     1       2.995   6.890  17.750  0.00  0.00    +0.000 A 
ATOM      8  C   UNL     1       3.118   5.614  18.304  0.00  0.00    +0.000 A 
ATOM      9  C   UNL     1       2.510   5.371  19.548  0.00  0.00    +0.000 A 
ATOM     10  C   UNL     1       1.892   6.396  20.266  0.00  0.00    +0.000 A 
BRANCH   5  12
ATOM     11  C   UNL     1       0.780   9.789  19.497  0.00  0.00    +0.000 C 
ATOM     12  O   UNL     1       1.283   8.771  20.354  0.00  0.00    +0.000 OA
ENDBRANCH   5  12
ENDBRANCH   4   8
ENDBRANCH   1   4
BRANCH   1  13
ATOM     13  C   UNL     1       5.855   3.834  16.285  0.00  0.00    +0.000 C 
BRANCH  13  14
ATOM     14  C   UNL     1       5.850   4.366  14.841  0.00  0.00    +0.000 C 
ATOM     15  O   UNL     1       5.674   5.563  14.623  0.00  0.00    +0.000 OA
ATOM     16  N   UNL     1       5.906   3.428  13.840  0.00  0.00    +0.000 N 
ATOM     17  H   UNL     1       6.121   2.471  14.109  0.00  0.00    +0.000 HD
BRANCH  16  18
ATOM     18  C   UNL     1       5.884   3.740  12.406  0.00  0.00    +0.000 C 
ATOM     19  C   UNL     1       7.239   4.206  11.869  0.00  0.00    +0.000 C 
ATOM     20  C   UNL     1       5.340   2.587  11.564  0.00  0.00    +0.000 C 
ENDBRANCH  16  18
ENDBRANCH  13  14
ENDBRANCH   1  13
BRANCH   2  21
ATOM     21  C   UNL     1       7.569   5.209  18.231  0.00  0.00    +0.000 C 
BRANCH  21  22
ATOM     22  C   UNL     1       8.266   6.348  18.985  0.00  0.00    +0.000 C 
BRANCH  22  23
ATOM     23  C   UNL     1       8.184   7.663  18.207  0.00  0.00    +0.000 C 
BRANCH  23  24
ATOM     24  C   UNL     1       8.542   8.866  19.083  0.00  0.00    +0.000 C 
BRANCH  24  25
ATOM     25  C   UNL     1       9.035  10.040  18.234  0.00  0.00    +0.000 C 
BRANCH  25  26
ATOM     26  N   UNL     1       9.670  11.080  19.022  0.00  0.00    +0.000 N 
ATOM     27  C   UNL     1       9.427  11.286  20.355  0.00  0.00    +0.000 A 
ATOM     28  C   UNL     1      10.253  12.318  20.722  0.00  0.00    +0.000 A 
ATOM     29  N   UNL     1      10.983  12.750  19.648  0.00  0.00    +0.000 NA
ATOM     30  C   UNL     1      10.627  11.989  18.625  0.00  0.00    +0.000 A 
BRANCH  30  31
ATOM     31  C   UNL     1      11.238  12.166  17.330  0.00  0.00    +0.000 C 
ATOM     32  N   UNL     1      11.892  13.237  17.001  0.00  0.00    +0.000 NA
BRANCH  32  33
ATOM     33  O   UNL     1      12.333  13.115  15.676  0.00  0.00    +0.000 OA
ATOM     34  H   UNL     1      11.735  12.433  15.315  0.00  0.00    +0.000 HD
ENDBRANCH  32  33
ENDBRANCH  30  31
ENDBRANCH  25  26
ENDBRANCH  24  25
ENDBRANCH  23  24
ENDBRANCH  22  23
ENDBRANCH  21  22
ENDBRANCH   2  21
TORSDOF 14
ENDMDL
