MODEL 1
REMARK VINA RESULT:      -7.3      0.000      0.000
REMARK  Name = 
REMARK  12 active torsions:
REMARK  status: ('A' for Active; 'I' for Inactive)
REMARK    1  A    between atoms: C_1  and  C_2
REMARK    2  A    between atoms: C_2  and  O_3
REMARK    3  A    between atoms: O_3  and  C_4
REMARK    4  A    between atoms: C_4  and  C_6
REMARK    5  A    between atoms: C_10  and  C_11
REMARK    6  A    between atoms: C_14  and  O_15
REMARK    7  A    between atoms: O_15  and  C_16
REMARK    8  A    between atoms: C_17  and  O_18
REMARK    9  A    between atoms: O_18  and  C_19
REMARK   10  A    between atoms: C_22  and  C_23
REMARK   11  A    between atoms: C_26  and  O_27
REMARK   12  A    between atoms: O_27  and  C_28
REMARK                            x       y       z     vdW  Elec       q    Type
REMARK                         _______ _______ _______ _____ _____    ______ ____
ROOT
ATOM      1  C   UNL     1       3.518   3.120  19.648  0.00  0.00    +0.000 C 
ATOM      2  C   UNL     1       2.149   3.415  19.077  0.00  0.00    +0.000 C 
ATOM      3  O   UNL     1       1.355   2.539  18.738  0.00  0.00    +0.000 OA
ATOM      4  C   UNL     1       1.704   4.833  18.983  0.00  0.00    +0.000 C 
ATOM      5  C   UNL     1       2.484   5.851  19.390  0.00  0.00    +0.000 C 
ATOM      6  C   UNL     1       3.835   5.597  20.023  0.00  0.00    +0.000 C 
ATOM      7  C   UNL     1       4.498   4.302  19.511  0.00  0.00    +0.000 C 
ENDROOT
BRANCH   5   8
ATOM      8  C   UNL     1       2.066   7.260  19.188  0.00  0.00    +0.000 A 
ATOM      9  C   UNL     1       2.318   7.909  17.973  0.00  0.00    +0.000 A 
ATOM     10  C   UNL     1       1.984   9.251  17.797  0.00  0.00    +0.000 A 
ATOM     11  C   UNL     1       1.392   9.984  18.829  0.00  0.00    +0.000 A 
ATOM     12  C   UNL     1       1.152   9.369  20.068  0.00  0.00    +0.000 A 
ATOM     13  C   UNL     1       1.485   8.011  20.227  0.00  0.00    +0.000 A 
BRANCH  11  14
ATOM     14  O   UNL     1       1.174  11.297  18.496  0.00  0.00    +0.000 OA
ATOM     15  C   UNL     1       2.324  12.078  18.197  0.00  0.00    +0.000 C 
ENDBRANCH  11  14
BRANCH  12  16
ATOM     16  O   UNL     1       0.636  10.146  21.071  0.00  0.00    +0.000 OA
ATOM     17  C   UNL     1      -0.147   9.520  22.077  0.00  0.00    +0.000 C 
ENDBRANCH  12  16
ENDBRANCH   5   8
BRANCH   7  18
ATOM     18  C   UNL     1       5.129   4.534  18.137  0.00  0.00    +0.000 A 
ATOM     19  C   UNL     1       6.521   4.685  18.042  0.00  0.00    +0.000 A 
ATOM     20  C   UNL     1       7.141   4.861  16.798  0.00  0.00    +0.000 A 
ATOM     21  C   UNL     1       6.386   4.875  15.629  0.00  0.00    +0.000 A 
ATOM     22  C   UNL     1       5.001   4.786  15.713  0.00  0.00    +0.000 A 
ATOM     23  C   UNL     1       4.381   4.626  16.954  0.00  0.00    +0.000 A 
BRANCH  21  24
ATOM     24  O   UNL     1       7.085   5.004  14.460  0.00  0.00    +0.000 OA
ATOM     25  C   UNL     1       6.628   4.168  13.396  0.00  0.00    +0.000 C 
ENDBRANCH  21  24
ENDBRANCH   7  18
BRANCH   1  26
ATOM     26  C   UNL     1       4.173   1.842  19.189  0.00  0.00    +0.000 C 
ATOM     27  O   UNL     1       3.730   1.181  18.255  0.00  0.00    +0.000 OA
BRANCH  26  28
ATOM     28  O   UNL     1       5.209   1.461  19.979  0.00  0.00    +0.000 OA
BRANCH  28  30
ATOM     29  C   UNL     1       5.982   0.336  21.989  0.00  0.00    +0.000 C 
ATOM     30  C   UNL     1       4.902   1.197  21.357  0.00  0.00    +0.000 C 
ENDBRANCH  28  30
ENDBRANCH  26  28
ENDBRANCH   1  26
TORSDOF 8
ENDMDL
MODEL 2
REMARK VINA RESULT:      -6.8      2.768      9.115
REMARK  Name = 
REMARK  12 active torsions:
REMARK  status: ('A' for Active; 'I' for Inactive)
REMARK    1  A    between atoms: C_1  and  C_2
REMARK    2  A    between atoms: C_2  and  O_3
REMARK    3  A    between atoms: O_3  and  C_4
REMARK    4  A    between atoms: C_4  and  C_6
REMARK    5  A    between atoms: C_10  and  C_11
REMARK    6  A    between atoms: C_14  and  O_15
REMARK    7  A    between atoms: O_15  and  C_16
REMARK    8  A    between atoms: C_17  and  O_18
REMARK    9  A    between atoms: O_18  and  C_19
REMARK   10  A    between atoms: C_22  and  C_23
REMARK   11  A    between atoms: C_26  and  O_27
REMARK   12  A    between atoms: O_27  and  C_28
REMARK                            x       y       z     vdW  Elec       q    Type
REMARK                         _______ _______ _______ _____ _____    ______ ____
ROOT
ATOM      1  C   UNL     1      -1.001  10.725  21.930  0.00  0.00    +0.000 C 
ATOM      2  C   UNL     1       0.086   9.930  22.618  0.00  0.00    +0.000 C 
ATOM      3  O   UNL     1       0.254   9.928  23.836  0.00  0.00    +0.000 OA
ATOM      4  C   UNL     1       0.954   9.045  21.793  0.00  0.00    +0.000 C 
ATOM      5  C   UNL     1       0.797   8.938  20.461  0.00  0.00    +0.000 C 
ATOM      6  C   UNL     1      -0.315   9.669  19.742  0.00  0.00    +0.000 C 
ATOM      7  C   UNL     1      -0.709  10.987  20.440  0.00  0.00    +0.000 C 
ENDROOT
BRANCH   5   8
ATOM      8  C   UNL     1       1.741   8.136  19.644  0.00  0.00    +0.000 A 
ATOM      9  C   UNL     1       2.094   8.550  18.354  0.00  0.00    +0.000 A 
ATOM     10  C   UNL     1       2.932   7.770  17.557  0.00  0.00    +0.000 A 
ATOM     11  C   UNL     1       3.438   6.554  18.025  0.00  0.00    +0.000 A 
ATOM     12  C   UNL     1       3.079   6.098  19.303  0.00  0.00    +0.000 A 
ATOM     13  C   UNL     1       2.241   6.901  20.100  0.00  0.00    +0.000 A 
BRANCH  11  14
ATOM     14  O   UNL     1       4.205   5.901  17.093  0.00  0.00    +0.000 OA
ATOM     15  C   UNL     1       5.120   6.695  16.350  0.00  0.00    +0.000 C 
ENDBRANCH  11  14
BRANCH  12  16
ATOM     16  O   UNL     1       3.541   4.868  19.689  0.00  0.00    +0.000 OA
ATOM     17  C   UNL     1       2.644   3.984  20.346  0.00  0.00    +0.000 C 
ENDBRANCH  12  16
ENDBRANCH   5   8
BRANCH   7  18
ATOM     18  C   UNL     1       0.299  12.088  20.106  0.00  0.00    +0.000 A 
ATOM     19  C   UNL     1      -0.007  13.008  19.090  0.00  0.00    +0.000 A 
ATOM     20  C   UNL     1       0.872  14.054  18.780  0.00  0.00    +0.000 A 
ATOM     21  C   UNL     1       2.062  14.208  19.486  0.00  0.00    +0.000 A 
ATOM     22  C   UNL     1       2.405  13.270  20.453  0.00  0.00    +0.000 A 
ATOM     23  C   UNL     1       1.536  12.219  20.752  0.00  0.00    +0.000 A 
BRANCH  21  24
ATOM     24  O   UNL     1       2.832  15.286  19.144  0.00  0.00    +0.000 OA
ATOM     25  C   UNL     1       4.240  15.055  19.196  0.00  0.00    +0.000 C 
ENDBRANCH  21  24
ENDBRANCH   7  18
BRANCH   1  26
ATOM     26  C   UNL     1      -1.428  12.002  22.611  0.00  0.00    +0.000 C 
ATOM     27  O   UNL     1      -0.643  12.694  23.251  0.00  0.00    +0.000 OA
BRANCH  26  28
ATOM     28  O   UNL     1      -2.765  12.226  22.533  0.00  0.00    +0.000 OA
BRANCH  28  30
ATOM     29  C   UNL     1      -4.007  13.747  23.964  0.00  0.00    +0.000 C 
ATOM     30  C   UNL     1      -3.471  12.337  23.778  0.00  0.00    +0.000 C 
ENDBRANCH  28  30
ENDBRANCH  26  28
ENDBRANCH   1  26
TORSDOF 8
ENDMDL
MODEL 3
REMARK VINA RESULT:      -6.8      1.878      2.928
REMARK  Name = 
REMARK  12 active torsions:
REMARK  status: ('A' for Active; 'I' for Inactive)
REMARK    1  A    between atoms: C_1  and  C_2
REMARK    2  A    between atoms: C_2  and  O_3
REMARK    3  A    between atoms: O_3  and  C_4
REMARK    4  A    between atoms: C_4  and  C_6
REMARK    5  A    between atoms: C_10  and  C_11
REMARK    6  A    between atoms: C_14  and  O_15
REMARK    7  A    between atoms: O_15  and  C_16
REMARK    8  A    between atoms: C_17  and  O_18
REMARK    9  A    between atoms: O_18  and  C_19
REMARK   10  A    between atoms: C_22  and  C_23
REMARK   11  A    between atoms: C_26  and  O_27
REMARK   12  A    between atoms: O_27  and  C_28
REMARK                            x       y       z     vdW  Elec       q    Type
REMARK                         _______ _______ _______ _____ _____    ______ ____
ROOT
ATOM      1  C   UNL     1       2.962   3.886  18.876  0.00  0.00    +0.000 C 
ATOM      2  C   UNL     1       1.984   4.565  17.942  0.00  0.00    +0.000 C 
ATOM      3  O   UNL     1       1.505   4.016  16.952  0.00  0.00    +0.000 OA
ATOM      4  C   UNL     1       1.519   5.940  18.272  0.00  0.00    +0.000 C 
ATOM      5  C   UNL     1       1.944   6.590  19.370  0.00  0.00    +0.000 C 
ATOM      6  C   UNL     1       2.875   5.926  20.361  0.00  0.00    +0.000 C 
ATOM      7  C   UNL     1       3.799   4.882  19.703  0.00  0.00    +0.000 C 
ENDROOT
BRANCH   5   8
ATOM      8  C   UNL     1       1.553   7.999  19.622  0.00  0.00    +0.000 A 
ATOM      9  C   UNL     1       1.577   8.939  18.586  0.00  0.00    +0.000 A 
ATOM     10  C   UNL     1       1.271  10.278  18.827  0.00  0.00    +0.000 A 
ATOM     11  C   UNL     1       0.934  10.716  20.111  0.00  0.00    +0.000 A 
ATOM     12  C   UNL     1       0.928   9.802  21.177  0.00  0.00    +0.000 A 
ATOM     13  C   UNL     1       1.230   8.452  20.915  0.00  0.00    +0.000 A 
BRANCH  11  14
ATOM     14  O   UNL     1       0.708  12.068  20.173  0.00  0.00    +0.000 OA
ATOM     15  C   UNL     1      -0.617  12.506  19.904  0.00  0.00    +0.000 C 
ENDBRANCH  11  14
BRANCH  12  16
ATOM     16  O   UNL     1       0.662  10.290  22.428  0.00  0.00    +0.000 OA
ATOM     17  C   UNL     1      -0.471   9.789  23.124  0.00  0.00    +0.000 C 
ENDBRANCH  12  16
ENDBRANCH   5   8
BRANCH   7  18
ATOM     18  C   UNL     1       4.965   5.574  18.995  0.00  0.00    +0.000 A 
ATOM     19  C   UNL     1       4.692   6.496  17.972  0.00  0.00    +0.000 A 
ATOM     20  C   UNL     1       5.730   7.180  17.326  0.00  0.00    +0.000 A 
ATOM     21  C   UNL     1       7.054   6.967  17.698  0.00  0.00    +0.000 A 
ATOM     22  C   UNL     1       7.343   6.014  18.669  0.00  0.00    +0.000 A 
ATOM     23  C   UNL     1       6.310   5.322  19.303  0.00  0.00    +0.000 A 
BRANCH  21  24
ATOM     24  O   UNL     1       7.993   7.716  17.043  0.00  0.00    +0.000 OA
ATOM     25  C   UNL     1       8.214   9.014  17.596  0.00  0.00    +0.000 C 
ENDBRANCH  21  24
ENDBRANCH   7  18
BRANCH   1  26
ATOM     26  C   UNL     1       3.854   2.836  18.262  0.00  0.00    +0.000 C 
ATOM     27  O   UNL     1       4.427   1.989  18.940  0.00  0.00    +0.000 OA
BRANCH  26  28
ATOM     28  O   UNL     1       4.036   3.006  16.926  0.00  0.00    +0.000 OA
BRANCH  28  30
ATOM     29  C   UNL     1       5.375   4.160  15.259  0.00  0.00    +0.000 C 
ATOM     30  C   UNL     1       5.378   3.269  16.490  0.00  0.00    +0.000 C 
ENDBRANCH  28  30
ENDBRANCH  26  28
ENDBRANCH   1  26
TORSDOF 8
ENDMDL
MODEL 4
REMARK VINA RESULT:      -6.8      1.909      3.373
REMARK  Name = 
REMARK  12 active torsions:
REMARK  status: ('A' for Active; 'I' for Inactive)
REMARK    1  A    between atoms: C_1  and  C_2
REMARK    2  A    between atoms: C_2  and  O_3
REMARK    3  A    between atoms: O_3  and  C_4
REMARK    4  A    between atoms: C_4  and  C_6
REMARK    5  A    between atoms: C_10  and  C_11
REMARK    6  A    between atoms: C_14  and  O_15
REMARK    7  A    between atoms: O_15  and  C_16
REMARK    8  A    between atoms: C_17  and  O_18
REMARK    9  A    between atoms: O_18  and  C_19
REMARK   10  A    between atoms: C_22  and  C_23
REMARK   11  A    between atoms: C_26  and  O_27
REMARK   12  A    between atoms: O_27  and  C_28
REMARK                            x       y       z     vdW  Elec       q    Type
REMARK                         _______ _______ _______ _____ _____    ______ ____
ROOT
ATOM      1  C   UNL     1       2.902   3.803  18.712  0.00  0.00    +0.000 C 
ATOM      2  C   UNL     1       1.870   4.628  17.975  0.00  0.00    +0.000 C 
ATOM      3  O   UNL     1       1.301   4.244  16.955  0.00  0.00    +0.000 OA
ATOM      4  C   UNL     1       1.465   5.942  18.548  0.00  0.00    +0.000 C 
ATOM      5  C   UNL     1       1.991   6.410  19.694  0.00  0.00    +0.000 C 
ATOM      6  C   UNL     1       2.980   5.590  20.494  0.00  0.00    +0.000 C 
ATOM      7  C   UNL     1       3.825   4.649  19.611  0.00  0.00    +0.000 C 
ENDROOT
BRANCH   5   8
ATOM      8  C   UNL     1       1.654   7.767  20.189  0.00  0.00    +0.000 A 
ATOM      9  C   UNL     1       1.413   7.988  21.550  0.00  0.00    +0.000 A 
ATOM     10  C   UNL     1       1.036   9.248  22.015  0.00  0.00    +0.000 A 
ATOM     11  C   UNL     1       0.886  10.321  21.133  0.00  0.00    +0.000 A 
ATOM     12  C   UNL     1       1.094  10.125  19.759  0.00  0.00    +0.000 A 
ATOM     13  C   UNL     1       1.484   8.850  19.306  0.00  0.00    +0.000 A 
BRANCH  11  14
ATOM     14  O   UNL     1       0.467  11.470  21.756  0.00  0.00    +0.000 OA
ATOM     15  C   UNL     1      -0.911  11.794  21.636  0.00  0.00    +0.000 C 
ENDBRANCH  11  14
BRANCH  12  16
ATOM     16  O   UNL     1       0.865  11.188  18.926  0.00  0.00    +0.000 OA
ATOM     17  C   UNL     1       1.984  11.888  18.400  0.00  0.00    +0.000 C 
ENDBRANCH  12  16
ENDBRANCH   5   8
BRANCH   7  18
ATOM     18  C   UNL     1       4.948   5.429  18.925  0.00  0.00    +0.000 A 
ATOM     19  C   UNL     1       4.619   6.384  17.950  0.00  0.00    +0.000 A 
ATOM     20  C   UNL     1       5.615   7.146  17.326  0.00  0.00    +0.000 A 
ATOM     21  C   UNL     1       6.952   6.979  17.674  0.00  0.00    +0.000 A 
ATOM     22  C   UNL     1       7.298   5.996  18.595  0.00  0.00    +0.000 A 
ATOM     23  C   UNL     1       6.307   5.226  19.206  0.00  0.00    +0.000 A 
BRANCH  21  24
ATOM     24  O   UNL     1       7.847   7.802  17.045  0.00  0.00    +0.000 OA
ATOM     25  C   UNL     1       8.156   9.001  17.756  0.00  0.00    +0.000 C 
ENDBRANCH  21  24
ENDBRANCH   7  18
BRANCH   1  26
ATOM     26  C   UNL     1       3.718   2.850  17.875  0.00  0.00    +0.000 C 
ATOM     27  O   UNL     1       4.159   1.798  18.326  0.00  0.00    +0.000 OA
BRANCH  26  28
ATOM     28  O   UNL     1       3.995   3.333  16.636  0.00  0.00    +0.000 OA
BRANCH  28  30
ATOM     29  C   UNL     1       5.625   4.217  15.066  0.00  0.00    +0.000 C 
ATOM     30  C   UNL     1       5.362   3.248  16.205  0.00  0.00    +0.000 C 
ENDBRANCH  28  30
ENDBRANCH  26  28
ENDBRANCH   1  26
TORSDOF 8
ENDMDL
MODEL 5
REMARK VINA RESULT:      -6.7      2.880      9.236
REMARK  Name = 
REMARK  12 active torsions:
REMARK  status: ('A' for Active; 'I' for Inactive)
REMARK    1  A    between atoms: C_1  and  C_2
REMARK    2  A    between atoms: C_2  and  O_3
REMARK    3  A    between atoms: O_3  and  C_4
REMARK    4  A    between atoms: C_4  and  C_6
REMARK    5  A    between atoms: C_10  and  C_11
REMARK    6  A    between atoms: C_14  and  O_15
REMARK    7  A    between atoms: O_15  and  C_16
REMARK    8  A    between atoms: C_17  and  O_18
REMARK    9  A    between atoms: O_18  and  C_19
REMARK   10  A    between atoms: C_22  and  C_23
REMARK   11  A    between atoms: C_26  and  O_27
REMARK   12  A    between atoms: O_27  and  C_28
REMARK                            x       y       z     vdW  Elec       q    Type
REMARK                         _______ _______ _______ _____ _____    ______ ____
ROOT
ATOM      1  C   UNL     1      -0.989  11.404  21.311  0.00  0.00    +0.000 C 
ATOM      2  C   UNL     1      -0.184  10.464  22.181  0.00  0.00    +0.000 C 
ATOM      3  O   UNL     1      -0.239  10.467  23.410  0.00  0.00    +0.000 OA
ATOM      4  C   UNL     1       0.666   9.433  21.524  0.00  0.00    +0.000 C 
ATOM      5  C   UNL     1       0.736   9.318  20.185  0.00  0.00    +0.000 C 
ATOM      6  C   UNL     1      -0.099  10.197  19.279  0.00  0.00    +0.000 C 
ATOM      7  C   UNL     1      -0.396  11.578  19.899  0.00  0.00    +0.000 C 
ENDROOT
BRANCH   5   8
ATOM      8  C   UNL     1       1.671   8.357  19.550  0.00  0.00    +0.000 A 
ATOM      9  C   UNL     1       2.159   8.588  18.259  0.00  0.00    +0.000 A 
ATOM     10  C   UNL     1       2.989   7.660  17.631  0.00  0.00    +0.000 A 
ATOM     11  C   UNL     1       3.351   6.473  18.274  0.00  0.00    +0.000 A 
ATOM     12  C   UNL     1       2.855   6.199  19.558  0.00  0.00    +0.000 A 
ATOM     13  C   UNL     1       2.026   7.151  20.183  0.00  0.00    +0.000 A 
BRANCH  11  14
ATOM     14  O   UNL     1       4.132   5.659  17.493  0.00  0.00    +0.000 OA
ATOM     15  C   UNL     1       4.916   6.295  16.493  0.00  0.00    +0.000 C 
ENDBRANCH  11  14
BRANCH  12  16
ATOM     16  O   UNL     1       3.179   4.992  20.118  0.00  0.00    +0.000 OA
ATOM     17  C   UNL     1       2.223   4.356  20.956  0.00  0.00    +0.000 C 
ENDBRANCH  12  16
ENDBRANCH   5   8
BRANCH   7  18
ATOM     18  C   UNL     1       0.818  12.498  19.757  0.00  0.00    +0.000 A 
ATOM     19  C   UNL     1       1.188  12.946  18.479  0.00  0.00    +0.000 A 
ATOM     20  C   UNL     1       2.271  13.820  18.311  0.00  0.00    +0.000 A 
ATOM     21  C   UNL     1       2.991  14.271  19.413  0.00  0.00    +0.000 A 
ATOM     22  C   UNL     1       2.673  13.789  20.677  0.00  0.00    +0.000 A 
ATOM     23  C   UNL     1       1.604  12.907  20.844  0.00  0.00    +0.000 A 
BRANCH  21  24
ATOM     24  O   UNL     1       4.000  15.159  19.153  0.00  0.00    +0.000 OA
ATOM     25  C   UNL     1       3.566  16.490  18.875  0.00  0.00    +0.000 C 
ENDBRANCH  21  24
ENDBRANCH   7  18
BRANCH   1  26
ATOM     26  C   UNL     1      -1.321  12.748  21.908  0.00  0.00    +0.000 C 
ATOM     27  O   UNL     1      -0.929  13.083  23.021  0.00  0.00    +0.000 OA
BRANCH  26  28
ATOM     28  O   UNL     1      -2.176  13.475  21.142  0.00  0.00    +0.000 OA
BRANCH  28  30
ATOM     29  C   UNL     1      -4.390  12.845  21.919  0.00  0.00    +0.000 C 
ATOM     30  C   UNL     1      -3.364  13.958  21.787  0.00  0.00    +0.000 C 
ENDBRANCH  28  30
ENDBRANCH  26  28
ENDBRANCH   1  26
TORSDOF 8
ENDMDL
MODEL 6
REMARK VINA RESULT:      -6.7      2.541      8.866
REMARK  Name = 
REMARK  12 active torsions:
REMARK  status: ('A' for Active; 'I' for Inactive)
REMARK    1  A    between atoms: C_1  and  C_2
REMARK    2  A    between atoms: C_2  and  O_3
REMARK    3  A    between atoms: O_3  and  C_4
REMARK    4  A    between atoms: C_4  and  C_6
REMARK    5  A    between atoms: C_10  and  C_11
REMARK    6  A    between atoms: C_14  and  O_15
REMARK    7  A    between atoms: O_15  and  C_16
REMARK    8  A    between atoms: C_17  and  O_18
REMARK    9  A    between atoms: O_18  and  C_19
REMARK   10  A    between atoms: C_22  and  C_23
REMARK   11  A    between atoms: C_26  and  O_27
REMARK   12  A    between atoms: O_27  and  C_28
REMARK                            x       y       z     vdW  Elec       q    Type
REMARK                         _______ _______ _______ _____ _____    ______ ____
ROOT
ATOM      1  C   UNL     1      -0.692  10.478  21.687  0.00  0.00    +0.000 C 
ATOM      2  C   UNL     1       0.312   9.637  22.443  0.00  0.00    +0.000 C 
ATOM      3  O   UNL     1       0.411   9.642  23.669  0.00  0.00    +0.000 OA
ATOM      4  C   UNL     1       1.180   8.699  21.678  0.00  0.00    +0.000 C 
ATOM      5  C   UNL     1       1.093   8.584  20.340  0.00  0.00    +0.000 C 
ATOM      6  C   UNL     1       0.062   9.361  19.552  0.00  0.00    +0.000 C 
ATOM      7  C   UNL     1      -0.303  10.706  20.213  0.00  0.00    +0.000 C 
ENDROOT
BRANCH   5   8
ATOM      8  C   UNL     1       2.040   7.724  19.586  0.00  0.00    +0.000 A 
ATOM      9  C   UNL     1       2.580   8.159  18.371  0.00  0.00    +0.000 A 
ATOM     10  C   UNL     1       3.422   7.333  17.626  0.00  0.00    +0.000 A 
ATOM     11  C   UNL     1       3.744   6.049  18.073  0.00  0.00    +0.000 A 
ATOM     12  C   UNL     1       3.195   5.574  19.274  0.00  0.00    +0.000 A 
ATOM     13  C   UNL     1       2.356   6.423  20.020  0.00  0.00    +0.000 A 
BRANCH  11  14
ATOM     14  O   UNL     1       4.545   5.363  17.195  0.00  0.00    +0.000 OA
ATOM     15  C   UNL     1       5.278   6.140  16.258  0.00  0.00    +0.000 C 
ENDBRANCH  11  14
BRANCH  12  16
ATOM     16  O   UNL     1       3.482   4.285  19.635  0.00  0.00    +0.000 OA
ATOM     17  C   UNL     1       2.613   3.627  20.547  0.00  0.00    +0.000 C 
ENDBRANCH  12  16
ENDBRANCH   5   8
BRANCH   7  18
ATOM     18  C   UNL     1       0.777  11.750  19.927  0.00  0.00    +0.000 A 
ATOM     19  C   UNL     1       1.277  11.874  18.620  0.00  0.00    +0.000 A 
ATOM     20  C   UNL     1       2.239  12.844  18.309  0.00  0.00    +0.000 A 
ATOM     21  C   UNL     1       2.707  13.714  19.289  0.00  0.00    +0.000 A 
ATOM     22  C   UNL     1       2.265  13.563  20.599  0.00  0.00    +0.000 A 
ATOM     23  C   UNL     1       1.318  12.588  20.913  0.00  0.00    +0.000 A 
BRANCH  21  24
ATOM     24  O   UNL     1       3.609  14.657  18.879  0.00  0.00    +0.000 OA
ATOM     25  C   UNL     1       4.332  15.291  19.934  0.00  0.00    +0.000 C 
ENDBRANCH  21  24
ENDBRANCH   7  18
BRANCH   1  26
ATOM     26  C   UNL     1      -1.091  11.783  22.330  0.00  0.00    +0.000 C 
ATOM     27  O   UNL     1      -0.520  12.222  23.324  0.00  0.00    +0.000 OA
BRANCH  26  28
ATOM     28  O   UNL     1      -2.195  12.338  21.768  0.00  0.00    +0.000 OA
BRANCH  28  30
ATOM     29  C   UNL     1      -1.824  14.398  20.534  0.00  0.00    +0.000 C 
ATOM     30  C   UNL     1      -2.298  13.769  21.833  0.00  0.00    +0.000 C 
ENDBRANCH  28  30
ENDBRANCH  26  28
ENDBRANCH   1  26
TORSDOF 8
ENDMDL
MODEL 7
REMARK VINA RESULT:      -6.6      3.008      9.388
REMARK  Name = 
REMARK  12 active torsions:
REMARK  status: ('A' for Active; 'I' for Inactive)
REMARK    1  A    between atoms: C_1  and  C_2
REMARK    2  A    between atoms: C_2  and  O_3
REMARK    3  A    between atoms: O_3  and  C_4
REMARK    4  A    between atoms: C_4  and  C_6
REMARK    5  A    between atoms: C_10  and  C_11
REMARK    6  A    between atoms: C_14  and  O_15
REMARK    7  A    between atoms: O_15  and  C_16
REMARK    8  A    between atoms: C_17  and  O_18
REMARK    9  A    between atoms: O_18  and  C_19
REMARK   10  A    between atoms: C_22  and  C_23
REMARK   11  A    between atoms: C_26  and  O_27
REMARK   12  A    between atoms: O_27  and  C_28
REMARK                            x       y       z     vdW  Elec       q    Type
REMARK                         _______ _______ _______ _____ _____    ______ ____
ROOT
ATOM      1  C   UNL     1      -1.287  11.446  21.427  0.00  0.00    +0.000 C 
ATOM      2  C   UNL     1      -0.385  10.564  22.262  0.00  0.00    +0.000 C 
ATOM      3  O   UNL     1      -0.386  10.570  23.492  0.00  0.00    +0.000 OA
ATOM      4  C   UNL     1       0.499   9.587  21.570  0.00  0.00    +0.000 C 
ATOM      5  C   UNL     1       0.517   9.470  20.230  0.00  0.00    +0.000 C 
ATOM      6  C   UNL     1      -0.412  10.290  19.360  0.00  0.00    +0.000 C 
ATOM      7  C   UNL     1      -0.769  11.652  19.990  0.00  0.00    +0.000 C 
ENDROOT
BRANCH   5   8
ATOM      8  C   UNL     1       1.482   8.567  19.556  0.00  0.00    +0.000 A 
ATOM      9  C   UNL     1       1.922   8.841  18.255  0.00  0.00    +0.000 A 
ATOM     10  C   UNL     1       2.781   7.965  17.591  0.00  0.00    +0.000 A 
ATOM     11  C   UNL     1       3.223   6.791  18.207  0.00  0.00    +0.000 A 
ATOM     12  C   UNL     1       2.777   6.475  19.500  0.00  0.00    +0.000 A 
ATOM     13  C   UNL     1       1.918   7.374  20.161  0.00  0.00    +0.000 A 
BRANCH  11  14
ATOM     14  O   UNL     1       4.023   6.029  17.393  0.00  0.00    +0.000 OA
ATOM     15  C   UNL     1       4.974   6.726  16.601  0.00  0.00    +0.000 C 
ENDBRANCH  11  14
BRANCH  12  16
ATOM     16  O   UNL     1       3.179   5.280  20.034  0.00  0.00    +0.000 OA
ATOM     17  C   UNL     1       2.255   4.201  20.051  0.00  0.00    +0.000 C 
ENDBRANCH  12  16
ENDBRANCH   5   8
BRANCH   7  18
ATOM     18  C   UNL     1       0.376  12.646  19.792  0.00  0.00    +0.000 A 
ATOM     19  C   UNL     1       0.188  13.742  18.934  0.00  0.00    +0.000 A 
ATOM     20  C   UNL     1       1.199  14.696  18.757  0.00  0.00    +0.000 A 
ATOM     21  C   UNL     1       2.405  14.581  19.440  0.00  0.00    +0.000 A 
ATOM     22  C   UNL     1       2.627  13.471  20.247  0.00  0.00    +0.000 A 
ATOM     23  C   UNL     1       1.626  12.512  20.413  0.00  0.00    +0.000 A 
BRANCH  21  24
ATOM     24  O   UNL     1       3.312  15.587  19.239  0.00  0.00    +0.000 OA
ATOM     25  C   UNL     1       2.764  16.904  19.293  0.00  0.00    +0.000 C 
ENDBRANCH  21  24
ENDBRANCH   7  18
BRANCH   1  26
ATOM     26  C   UNL     1      -1.678  12.770  22.036  0.00  0.00    +0.000 C 
ATOM     27  O   UNL     1      -2.674  13.386  21.672  0.00  0.00    +0.000 OA
BRANCH  26  28
ATOM     28  O   UNL     1      -0.763  13.239  22.923  0.00  0.00    +0.000 OA
BRANCH  28  30
ATOM     29  C   UNL     1       0.177  15.414  22.387  0.00  0.00    +0.000 C 
ATOM     30  C   UNL     1      -0.825  14.641  23.227  0.00  0.00    +0.000 C 
ENDBRANCH  28  30
ENDBRANCH  26  28
ENDBRANCH   1  26
TORSDOF 8
ENDMDL
MODEL 8
REMARK VINA RESULT:      -6.6      2.885      9.164
REMARK  Name = 
REMARK  12 active torsions:
REMARK  status: ('A' for Active; 'I' for Inactive)
REMARK    1  A    between atoms: C_1  and  C_2
REMARK    2  A    between atoms: C_2  and  O_3
REMARK    3  A    between atoms: O_3  and  C_4
REMARK    4  A    between atoms: C_4  and  C_6
REMARK    5  A    between atoms: C_10  and  C_11
REMARK    6  A    between atoms: C_14  and  O_15
REMARK    7  A    between atoms: O_15  and  C_16
REMARK    8  A    between atoms: C_17  and  O_18
REMARK    9  A    between atoms: O_18  and  C_19
REMARK   10  A    between atoms: C_22  and  C_23
REMARK   11  A    between atoms: C_26  and  O_27
REMARK   12  A    between atoms: O_27  and  C_28
REMARK                            x       y       z     vdW  Elec       q    Type
REMARK                         _______ _______ _______ _____ _____    ______ ____
ROOT
ATOM      1  C   UNL     1      -1.300  11.120  21.759  0.00  0.00    +0.000 C 
ATOM      2  C   UNL     1      -0.269  10.323  22.526  0.00  0.00    +0.000 C 
ATOM      3  O   UNL     1      -0.166  10.354  23.751  0.00  0.00    +0.000 OA
ATOM      4  C   UNL     1       0.622   9.396  21.775  0.00  0.00    +0.000 C 
ATOM      5  C   UNL     1       0.534   9.253  20.440  0.00  0.00    +0.000 C 
ATOM      6  C   UNL     1      -0.522   9.986  19.641  0.00  0.00    +0.000 C 
ATOM      7  C   UNL     1      -0.923  11.332  20.279  0.00  0.00    +0.000 C 
ENDROOT
BRANCH   5   8
ATOM      8  C   UNL     1       1.502   8.408  19.698  0.00  0.00    +0.000 A 
ATOM      9  C   UNL     1       1.941   8.782  18.423  0.00  0.00    +0.000 A 
ATOM     10  C   UNL     1       2.803   7.962  17.694  0.00  0.00    +0.000 A 
ATOM     11  C   UNL     1       3.247   6.745  18.218  0.00  0.00    +0.000 A 
ATOM     12  C   UNL     1       2.803   6.329  19.482  0.00  0.00    +0.000 A 
ATOM     13  C   UNL     1       1.941   7.172  20.210  0.00  0.00    +0.000 A 
BRANCH  11  14
ATOM     14  O   UNL     1       4.050   6.050  17.348  0.00  0.00    +0.000 OA
ATOM     15  C   UNL     1       5.032   6.802  16.647  0.00  0.00    +0.000 C 
ENDBRANCH  11  14
BRANCH  12  16
ATOM     16  O   UNL     1       3.208   5.097  19.923  0.00  0.00    +0.000 OA
ATOM     17  C   UNL     1       2.359   4.383  20.810  0.00  0.00    +0.000 C 
ENDBRANCH  12  16
ENDBRANCH   5   8
BRANCH   7  18
ATOM     18  C   UNL     1       0.126  12.401  19.969  0.00  0.00    +0.000 A 
ATOM     19  C   UNL     1       1.372  12.341  20.613  0.00  0.00    +0.000 A 
ATOM     20  C   UNL     1       2.373  13.279  20.328  0.00  0.00    +0.000 A 
ATOM     21  C   UNL     1       2.154  14.281  19.388  0.00  0.00    +0.000 A 
ATOM     22  C   UNL     1       0.905  14.388  18.786  0.00  0.00    +0.000 A 
ATOM     23  C   UNL     1      -0.098  13.463  19.081  0.00  0.00    +0.000 A 
BRANCH  21  24
ATOM     24  O   UNL     1       3.207  15.120  19.142  0.00  0.00    +0.000 OA
ATOM     25  C   UNL     1       3.256  15.643  17.815  0.00  0.00    +0.000 C 
ENDBRANCH  21  24
ENDBRANCH   7  18
BRANCH   1  26
ATOM     26  C   UNL     1      -1.734  12.425  22.379  0.00  0.00    +0.000 C 
ATOM     27  O   UNL     1      -2.813  12.946  22.116  0.00  0.00    +0.000 OA
BRANCH  26  28
ATOM     28  O   UNL     1      -0.771  12.995  23.149  0.00  0.00    +0.000 OA
BRANCH  28  30
ATOM     29  C   UNL     1      -0.068  15.224  22.487  0.00  0.00    +0.000 C 
ATOM     30  C   UNL     1      -0.920  14.395  23.432  0.00  0.00    +0.000 C 
ENDBRANCH  28  30
ENDBRANCH  26  28
ENDBRANCH   1  26
TORSDOF 8
ENDMDL
MODEL 9
REMARK VINA RESULT:      -6.6      3.532      9.484
REMARK  Name = 
REMARK  12 active torsions:
REMARK  status: ('A' for Active; 'I' for Inactive)
REMARK    1  A    between atoms: C_1  and  C_2
REMARK    2  A    between atoms: C_2  and  O_3
REMARK    3  A    between atoms: O_3  and  C_4
REMARK    4  A    between atoms: C_4  and  C_6
REMARK    5  A    between atoms: C_10  and  C_11
REMARK    6  A    between atoms: C_14  and  O_15
REMARK    7  A    between atoms: O_15  and  C_16
REMARK    8  A    between atoms: C_17  and  O_18
REMARK    9  A    between atoms: O_18  and  C_19
REMARK   10  A    between atoms: C_22  and  C_23
REMARK   11  A    between atoms: C_26  and  O_27
REMARK   12  A    between atoms: O_27  and  C_28
REMARK                            x       y       z     vdW  Elec       q    Type
REMARK                         _______ _______ _______ _____ _____    ______ ____
ROOT
ATOM      1  C   UNL     1      -0.252  12.545  20.440  0.00  0.00    +0.000 C 
ATOM      2  C   UNL     1       1.045  12.557  19.662  0.00  0.00    +0.000 C 
ATOM      3  O   UNL     1       1.626  13.590  19.334  0.00  0.00    +0.000 OA
ATOM      4  C   UNL     1       1.695  11.257  19.337  0.00  0.00    +0.000 C 
ATOM      5  C   UNL     1       1.161  10.082  19.713  0.00  0.00    +0.000 C 
ATOM      6  C   UNL     1      -0.103  10.026  20.544  0.00  0.00    +0.000 C 
ATOM      7  C   UNL     1      -1.037  11.227  20.288  0.00  0.00    +0.000 C 
ENDROOT
BRANCH   5   8
ATOM      8  C   UNL     1       1.767   8.797  19.285  0.00  0.00    +0.000 A 
ATOM      9  C   UNL     1       2.227   8.630  17.973  0.00  0.00    +0.000 A 
ATOM     10  C   UNL     1       2.741   7.406  17.545  0.00  0.00    +0.000 A 
ATOM     11  C   UNL     1       2.807   6.314  18.415  0.00  0.00    +0.000 A 
ATOM     12  C   UNL     1       2.327   6.441  19.728  0.00  0.00    +0.000 A 
ATOM     13  C   UNL     1       1.821   7.686  20.148  0.00  0.00    +0.000 A 
BRANCH  11  14
ATOM     14  O   UNL     1       3.296   5.181  17.814  0.00  0.00    +0.000 OA
ATOM     15  C   UNL     1       4.554   5.298  17.162  0.00  0.00    +0.000 C 
ENDBRANCH  11  14
BRANCH  12  16
ATOM     16  O   UNL     1       2.346   5.325  20.520  0.00  0.00    +0.000 OA
ATOM     17  C   UNL     1       1.208   4.474  20.519  0.00  0.00    +0.000 C 
ENDBRANCH  12  16
ENDBRANCH   5   8
BRANCH   7  18
ATOM     18  C   UNL     1      -1.821  11.024  18.990  0.00  0.00    +0.000 A 
ATOM     19  C   UNL     1      -3.064  11.659  18.838  0.00  0.00    +0.000 A 
ATOM     20  C   UNL     1      -3.794  11.530  17.649  0.00  0.00    +0.000 A 
ATOM     21  C   UNL     1      -3.293  10.779  16.591  0.00  0.00    +0.000 A 
ATOM     22  C   UNL     1      -2.092  10.097  16.749  0.00  0.00    +0.000 A 
ATOM     23  C   UNL     1      -1.370  10.213  17.938  0.00  0.00    +0.000 A 
BRANCH  21  24
ATOM     24  O   UNL     1      -4.056  10.751  15.455  0.00  0.00    +0.000 OA
ATOM     25  C   UNL     1      -3.430  10.133  14.331  0.00  0.00    +0.000 C 
ENDBRANCH  21  24
ENDBRANCH   7  18
BRANCH   1  26
ATOM     26  C   UNL     1      -1.167  13.725  20.233  0.00  0.00    +0.000 C 
ATOM     27  O   UNL     1      -1.049  14.482  19.274  0.00  0.00    +0.000 OA
BRANCH  26  28
ATOM     28  O   UNL     1      -2.035  13.914  21.261  0.00  0.00    +0.000 OA
BRANCH  28  30
ATOM     29  C   UNL     1      -1.236  14.242  23.531  0.00  0.00    +0.000 C 
ATOM     30  C   UNL     1      -1.670  14.904  22.235  0.00  0.00    +0.000 C 
ENDBRANCH  28  30
ENDBRANCH  26  28
ENDBRANCH   1  26
TORSDOF 8
ENDMDL
