MODEL 1
REMARK VINA RESULT:      -7.9      0.000      0.000
REMARK  Name = 
REMARK  12 active torsions:
REMARK  status: ('A' for Active; 'I' for Inactive)
REMARK    1  A    between atoms: C_1  and  C_2
REMARK    2  A    between atoms: C_2  and  C_3
REMARK    3  A    between atoms: C_2  and  N_4
REMARK    4  A    between atoms: C_2  and  C_5
REMARK    5  A    between atoms: N_7  and  C_8
REMARK    6  A    between atoms: C_8  and  C_9
REMARK    7  A    between atoms: C_8  and  C_18
REMARK    8  A    between atoms: C_9  and  C_10
REMARK    9  A    between atoms: C_13  and  O_14
REMARK   10  A    between atoms: C_15  and  O_16
REMARK   11  A    between atoms: C_18  and  O_20
REMARK   12  A    between atoms: O_20  and  C_21
REMARK                            x       y       z     vdW  Elec       q    Type
REMARK                         _______ _______ _______ _____ _____    ______ ____
ROOT
ATOM      1  C   UNL     1       3.788   5.836  17.988  0.00  0.00    +0.000 C 
ENDROOT
BRANCH   1   4
ATOM      2  C   UNL     1       6.056   5.508  19.023  0.00  0.00    +0.000 C 
ATOM      3  O   UNL     1       5.546   5.083  20.051  0.00  0.00    +0.000 OA
ATOM      4  N   UNL     1       5.257   5.885  17.971  0.00  0.00    +0.000 N 
ATOM      5  H   UNL     1       5.715   6.223  17.113  0.00  0.00    +0.000 HD
BRANCH   2   7
ATOM      6  C   UNL     1       8.027   6.999  18.387  0.00  0.00    +0.000 C 
ATOM      7  C   UNL     1       7.591   5.617  18.927  0.00  0.00    +0.000 C 
ATOM      8  C   UNL     1       8.164   4.556  17.962  0.00  0.00    +0.000 C 
BRANCH   7   9
ATOM      9  N   UNL     1       8.165   5.432  20.266  0.00  0.00    +0.000 NA
ATOM     10  H   UNL     1       7.685   4.646  20.762  0.00  0.00    +0.000 HD
ATOM     11  H   UNL     1       8.035   6.293  20.846  0.00  0.00    +0.000 HD
ENDBRANCH   7   9
ENDBRANCH   2   7
ENDBRANCH   1   4
BRANCH   1  12
ATOM     12  C   UNL     1       3.303   4.528  17.360  0.00  0.00    +0.000 C 
ATOM     13  O   UNL     1       3.975   4.024  16.471  0.00  0.00    +0.000 OA
BRANCH  12  14
ATOM     14  O   UNL     1       2.137   3.935  17.758  0.00  0.00    +0.000 OA
BRANCH  14  15
ATOM     15  C   UNL     1       1.984   2.605  18.138  0.00  0.00    +0.000 C 
ATOM     16  C   UNL     1       3.131   2.125  19.060  0.00  0.00    +0.000 C 
ATOM     17  C   UNL     1       3.122   2.888  20.394  0.00  0.00    +0.000 C 
ATOM     18  C   UNL     1       1.782   2.682  21.113  0.00  0.00    +0.000 C 
ATOM     19  C   UNL     1       0.630   3.162  20.228  0.00  0.00    +0.000 C 
ATOM     20  C   UNL     1       0.641   2.419  18.879  0.00  0.00    +0.000 C 
ENDBRANCH  14  15
ENDBRANCH  12  14
ENDBRANCH   1  12
BRANCH   1  21
ATOM     21  C   UNL     1       3.141   7.081  17.298  0.00  0.00    +0.000 C 
BRANCH  21  22
ATOM     22  C   UNL     1       2.304   7.924  18.243  0.00  0.00    +0.000 A 
ATOM     23  C   UNL     1       1.633   9.065  17.782  0.00  0.00    +0.000 A 
ATOM     24  C   UNL     1       0.926   9.881  18.672  0.00  0.00    +0.000 A 
ATOM     25  C   UNL     1       0.874   9.557  20.036  0.00  0.00    +0.000 A 
ATOM     26  C   UNL     1       1.505   8.391  20.495  0.00  0.00    +0.000 A 
ATOM     27  C   UNL     1       2.199   7.586  19.597  0.00  0.00    +0.000 A 
BRANCH  25  28
ATOM     28  O   UNL     1       0.223  10.356  20.905  0.00  0.00    +0.000 OA
ATOM     29  H   UNL     1      -0.517  10.915  20.634  0.00  0.00    +0.000 HD
ENDBRANCH  25  28
BRANCH  26  30
ATOM     30  O   UNL     1       1.472   8.029  21.794  0.00  0.00    +0.000 OA
ATOM     31  H   UNL     1       1.333   7.117  22.083  0.00  0.00    +0.000 HD
ENDBRANCH  26  30
ENDBRANCH  21  22
ENDBRANCH   1  21
TORSDOF 10
ENDMDL
MODEL 2
REMARK VINA RESULT:      -7.7      2.076      3.137
REMARK  Name = 
REMARK  12 active torsions:
REMARK  status: ('A' for Active; 'I' for Inactive)
REMARK    1  A    between atoms: C_1  and  C_2
REMARK    2  A    between atoms: C_2  and  C_3
REMARK    3  A    between atoms: C_2  and  N_4
REMARK    4  A    between atoms: C_2  and  C_5
REMARK    5  A    between atoms: N_7  and  C_8
REMARK    6  A    between atoms: C_8  and  C_9
REMARK    7  A    between atoms: C_8  and  C_18
REMARK    8  A    between atoms: C_9  and  C_10
REMARK    9  A    between atoms: C_13  and  O_14
REMARK   10  A    between atoms: C_15  and  O_16
REMARK   11  A    between atoms: C_18  and  O_20
REMARK   12  A    between atoms: O_20  and  C_21
REMARK                            x       y       z     vdW  Elec       q    Type
REMARK                         _______ _______ _______ _____ _____    ______ ____
ROOT
ATOM      1  C   UNL     1       4.310   5.633  18.017  0.00  0.00    +0.000 C 
ENDROOT
BRANCH   1   4
ATOM      2  C   UNL     1       5.631   5.379  15.893  0.00  0.00    +0.000 C 
ATOM      3  O   UNL     1       5.907   6.572  15.900  0.00  0.00    +0.000 OA
ATOM      4  N   UNL     1       4.863   4.851  16.902  0.00  0.00    +0.000 N 
ATOM      5  H   UNL     1       4.662   3.842  16.877  0.00  0.00    +0.000 HD
BRANCH   2   7
ATOM      6  C   UNL     1       7.393   5.111  14.067  0.00  0.00    +0.000 C 
ATOM      7  C   UNL     1       6.151   4.489  14.747  0.00  0.00    +0.000 C 
ATOM      8  C   UNL     1       5.079   4.315  13.648  0.00  0.00    +0.000 C 
BRANCH   7   9
ATOM      9  N   UNL     1       6.521   3.177  15.292  0.00  0.00    +0.000 NA
ATOM     10  H   UNL     1       6.129   2.412  14.695  0.00  0.00    +0.000 HD
ATOM     11  H   UNL     1       6.130   3.053  16.254  0.00  0.00    +0.000 HD
ENDBRANCH   7   9
ENDBRANCH   2   7
ENDBRANCH   1   4
BRANCH   1  12
ATOM     12  C   UNL     1       4.594   4.924  19.342  0.00  0.00    +0.000 C 
ATOM     13  O   UNL     1       5.754   4.831  19.717  0.00  0.00    +0.000 OA
BRANCH  12  14
ATOM     14  O   UNL     1       3.585   4.383  20.091  0.00  0.00    +0.000 OA
BRANCH  14  15
ATOM     15  C   UNL     1       3.398   3.029  20.356  0.00  0.00    +0.000 C 
ATOM     16  C   UNL     1       2.076   2.759  21.113  0.00  0.00    +0.000 C 
ATOM     17  C   UNL     1       0.861   3.132  20.251  0.00  0.00    +0.000 C 
ATOM     18  C   UNL     1       0.866   2.321  18.948  0.00  0.00    +0.000 C 
ATOM     19  C   UNL     1       2.159   2.581  18.171  0.00  0.00    +0.000 C 
ATOM     20  C   UNL     1       3.385   2.230  19.033  0.00  0.00    +0.000 C 
ENDBRANCH  14  15
ENDBRANCH  12  14
ENDBRANCH   1  12
BRANCH   1  21
ATOM     21  C   UNL     1       2.784   5.929  17.838  0.00  0.00    +0.000 C 
BRANCH  21  22
ATOM     22  C   UNL     1       2.350   7.242  18.466  0.00  0.00    +0.000 A 
ATOM     23  C   UNL     1       1.884   7.284  19.787  0.00  0.00    +0.000 A 
ATOM     24  C   UNL     1       1.412   8.482  20.335  0.00  0.00    +0.000 A 
ATOM     25  C   UNL     1       1.412   9.657  19.568  0.00  0.00    +0.000 A 
ATOM     26  C   UNL     1       1.922   9.629  18.261  0.00  0.00    +0.000 A 
ATOM     27  C   UNL     1       2.392   8.432  17.731  0.00  0.00    +0.000 A 
BRANCH  25  28
ATOM     28  O   UNL     1       0.929  10.807  20.078  0.00  0.00    +0.000 OA
ATOM     29  H   UNL     1      -0.003  10.915  20.311  0.00  0.00    +0.000 HD
ENDBRANCH  25  28
BRANCH  26  30
ATOM     30  O   UNL     1       1.956  10.735  17.489  0.00  0.00    +0.000 OA
ATOM     31  H   UNL     1       1.448  11.533  17.690  0.00  0.00    +0.000 HD
ENDBRANCH  26  30
ENDBRANCH  21  22
ENDBRANCH   1  21
TORSDOF 10
ENDMDL
MODEL 3
REMARK VINA RESULT:      -7.5      2.037      5.856
REMARK  Name = 
REMARK  12 active torsions:
REMARK  status: ('A' for Active; 'I' for Inactive)
REMARK    1  A    between atoms: C_1  and  C_2
REMARK    2  A    between atoms: C_2  and  C_3
REMARK    3  A    between atoms: C_2  and  N_4
REMARK    4  A    between atoms: C_2  and  C_5
REMARK    5  A    between atoms: N_7  and  C_8
REMARK    6  A    between atoms: C_8  and  C_9
REMARK    7  A    between atoms: C_8  and  C_18
REMARK    8  A    between atoms: C_9  and  C_10
REMARK    9  A    between atoms: C_13  and  O_14
REMARK   10  A    between atoms: C_15  and  O_16
REMARK   11  A    between atoms: C_18  and  O_20
REMARK   12  A    between atoms: O_20  and  C_21
REMARK                            x       y       z     vdW  Elec       q    Type
REMARK                         _______ _______ _______ _____ _____    ______ ____
ROOT
ATOM      1  C   UNL     1       3.000   6.934  17.967  0.00  0.00    +0.000 C 
ENDROOT
BRANCH   1   4
ATOM      2  C   UNL     1       5.297   6.434  17.078  0.00  0.00    +0.000 C 
ATOM      3  O   UNL     1       4.818   5.838  16.122  0.00  0.00    +0.000 OA
ATOM      4  N   UNL     1       4.468   7.002  18.012  0.00  0.00    +0.000 N 
ATOM      5  H   UNL     1       4.900   7.511  18.796  0.00  0.00    +0.000 HD
BRANCH   2   7
ATOM      6  C   UNL     1       7.348   5.664  18.387  0.00  0.00    +0.000 C 
ATOM      7  C   UNL     1       6.830   6.532  17.217  0.00  0.00    +0.000 C 
ATOM      8  C   UNL     1       7.269   7.985  17.507  0.00  0.00    +0.000 C 
BRANCH   7   9
ATOM      9  N   UNL     1       7.452   6.064  15.972  0.00  0.00    +0.000 NA
ATOM     10  H   UNL     1       6.738   5.604  15.360  0.00  0.00    +0.000 HD
ATOM     11  H   UNL     1       8.194   5.356  16.173  0.00  0.00    +0.000 HD
ENDBRANCH   7   9
ENDBRANCH   2   7
ENDBRANCH   1   4
BRANCH   1  12
ATOM     12  C   UNL     1       2.408   8.334  18.141  0.00  0.00    +0.000 C 
ATOM     13  O   UNL     1       2.420   9.096  17.184  0.00  0.00    +0.000 OA
BRANCH  12  14
ATOM     14  O   UNL     1       1.891   8.746  19.339  0.00  0.00    +0.000 OA
BRANCH  14  15
ATOM     15  C   UNL     1       0.539   8.867  19.647  0.00  0.00    +0.000 C 
ATOM     16  C   UNL     1       0.254   8.590  21.143  0.00  0.00    +0.000 C 
ATOM     17  C   UNL     1       0.927   9.644  22.036  0.00  0.00    +0.000 C 
ATOM     18  C   UNL     1       0.415  11.046  21.680  0.00  0.00    +0.000 C 
ATOM     19  C   UNL     1       0.697  11.351  20.207  0.00  0.00    +0.000 C 
ATOM     20  C   UNL     1       0.044  10.290  19.303  0.00  0.00    +0.000 C 
ENDBRANCH  14  15
ENDBRANCH  12  14
ENDBRANCH   1  12
BRANCH   1  21
ATOM     21  C   UNL     1       2.417   5.929  19.014  0.00  0.00    +0.000 C 
BRANCH  21  22
ATOM     22  C   UNL     1       2.860   4.496  18.780  0.00  0.00    +0.000 A 
ATOM     23  C   UNL     1       2.248   3.708  17.795  0.00  0.00    +0.000 A 
ATOM     24  C   UNL     1       2.606   2.365  17.636  0.00  0.00    +0.000 A 
ATOM     25  C   UNL     1       3.591   1.795  18.457  0.00  0.00    +0.000 A 
ATOM     26  C   UNL     1       4.240   2.592  19.413  0.00  0.00    +0.000 A 
ATOM     27  C   UNL     1       3.877   3.928  19.556  0.00  0.00    +0.000 A 
BRANCH  25  28
ATOM     28  O   UNL     1       3.918   0.494  18.332  0.00  0.00    +0.000 OA
ATOM     29  H   UNL     1       4.717   0.207  17.871  0.00  0.00    +0.000 HD
ENDBRANCH  25  28
BRANCH  26  30
ATOM     30  O   UNL     1       5.203   2.095  20.216  0.00  0.00    +0.000 OA
ATOM     31  H   UNL     1       5.082   1.298  20.750  0.00  0.00    +0.000 HD
ENDBRANCH  26  30
ENDBRANCH  21  22
ENDBRANCH   1  21
TORSDOF 10
ENDMDL
MODEL 4
REMARK VINA RESULT:      -7.5      0.974      1.596
REMARK  Name = 
REMARK  12 active torsions:
REMARK  status: ('A' for Active; 'I' for Inactive)
REMARK    1  A    between atoms: C_1  and  C_2
REMARK    2  A    between atoms: C_2  and  C_3
REMARK    3  A    between atoms: C_2  and  N_4
REMARK    4  A    between atoms: C_2  and  C_5
REMARK    5  A    between atoms: N_7  and  C_8
REMARK    6  A    between atoms: C_8  and  C_9
REMARK    7  A    between atoms: C_8  and  C_18
REMARK    8  A    between atoms: C_9  and  C_10
REMARK    9  A    between atoms: C_13  and  O_14
REMARK   10  A    between atoms: C_15  and  O_16
REMARK   11  A    between atoms: C_18  and  O_20
REMARK   12  A    between atoms: O_20  and  C_21
REMARK                            x       y       z     vdW  Elec       q    Type
REMARK                         _______ _______ _______ _____ _____    ______ ____
ROOT
ATOM      1  C   UNL     1       3.504   5.715  18.077  0.00  0.00    +0.000 C 
ENDROOT
BRANCH   1   4
ATOM      2  C   UNL     1       5.942   5.547  18.667  0.00  0.00    +0.000 C 
ATOM      3  O   UNL     1       5.661   5.218  19.813  0.00  0.00    +0.000 OA
ATOM      4  N   UNL     1       4.938   5.795  17.764  0.00  0.00    +0.000 N 
ATOM      5  H   UNL     1       5.206   6.054  16.804  0.00  0.00    +0.000 HD
BRANCH   2   7
ATOM      6  C   UNL     1       8.348   5.740  19.499  0.00  0.00    +0.000 C 
ATOM      7  C   UNL     1       7.423   5.680  18.259  0.00  0.00    +0.000 C 
ATOM      8  C   UNL     1       7.665   6.977  17.457  0.00  0.00    +0.000 C 
BRANCH   7   9
ATOM      9  N   UNL     1       7.800   4.515  17.448  0.00  0.00    +0.000 NA
ATOM     10  H   UNL     1       8.813   4.291  17.584  0.00  0.00    +0.000 HD
ATOM     11  H   UNL     1       7.658   4.712  16.431  0.00  0.00    +0.000 HD
ENDBRANCH   7   9
ENDBRANCH   2   7
ENDBRANCH   1   4
BRANCH   1  12
ATOM     12  C   UNL     1       2.923   4.414  17.522  0.00  0.00    +0.000 C 
ATOM     13  O   UNL     1       3.558   3.805  16.673  0.00  0.00    +0.000 OA
BRANCH  12  14
ATOM     14  O   UNL     1       1.711   3.938  17.943  0.00  0.00    +0.000 OA
BRANCH  14  15
ATOM     15  C   UNL     1       1.471   2.679  18.487  0.00  0.00    +0.000 C 
ATOM     16  C   UNL     1       2.769   2.000  18.983  0.00  0.00    +0.000 C 
ATOM     17  C   UNL     1       3.392   2.785  20.148  0.00  0.00    +0.000 C 
ATOM     18  C   UNL     1       2.399   2.881  21.314  0.00  0.00    +0.000 C 
ATOM     19  C   UNL     1       1.109   3.563  20.853  0.00  0.00    +0.000 C 
ATOM     20  C   UNL     1       0.486   2.795  19.672  0.00  0.00    +0.000 C 
ENDBRANCH  14  15
ENDBRANCH  12  14
ENDBRANCH   1  12
BRANCH   1  21
ATOM     21  C   UNL     1       2.712   6.963  17.567  0.00  0.00    +0.000 C 
BRANCH  21  22
ATOM     22  C   UNL     1       2.114   7.793  18.688  0.00  0.00    +0.000 A 
ATOM     23  C   UNL     1       2.027   7.282  19.990  0.00  0.00    +0.000 A 
ATOM     24  C   UNL     1       1.404   8.021  21.003  0.00  0.00    +0.000 A 
ATOM     25  C   UNL     1       0.869   9.287  20.725  0.00  0.00    +0.000 A 
ATOM     26  C   UNL     1       0.995   9.823  19.434  0.00  0.00    +0.000 A 
ATOM     27  C   UNL     1       1.621   9.079  18.439  0.00  0.00    +0.000 A 
BRANCH  25  28
ATOM     28  O   UNL     1       0.238   9.990  21.686  0.00  0.00    +0.000 OA
ATOM     29  H   UNL     1      -0.721  10.116  21.686  0.00  0.00    +0.000 HD
ENDBRANCH  25  28
BRANCH  26  30
ATOM     30  O   UNL     1       0.509  11.042  19.120  0.00  0.00    +0.000 OA
ATOM     31  H   UNL     1       0.803  11.542  18.347  0.00  0.00    +0.000 HD
ENDBRANCH  26  30
ENDBRANCH  21  22
ENDBRANCH   1  21
TORSDOF 10
ENDMDL
MODEL 5
REMARK VINA RESULT:      -7.5      2.549      6.525
REMARK  Name = 
REMARK  12 active torsions:
REMARK  status: ('A' for Active; 'I' for Inactive)
REMARK    1  A    between atoms: C_1  and  C_2
REMARK    2  A    between atoms: C_2  and  C_3
REMARK    3  A    between atoms: C_2  and  N_4
REMARK    4  A    between atoms: C_2  and  C_5
REMARK    5  A    between atoms: N_7  and  C_8
REMARK    6  A    between atoms: C_8  and  C_9
REMARK    7  A    between atoms: C_8  and  C_18
REMARK    8  A    between atoms: C_9  and  C_10
REMARK    9  A    between atoms: C_13  and  O_14
REMARK   10  A    between atoms: C_15  and  O_16
REMARK   11  A    between atoms: C_18  and  O_20
REMARK   12  A    between atoms: O_20  and  C_21
REMARK                            x       y       z     vdW  Elec       q    Type
REMARK                         _______ _______ _______ _____ _____    ______ ____
ROOT
ATOM      1  C   UNL     1       2.498   7.011  19.235  0.00  0.00    +0.000 C 
ENDROOT
BRANCH   1   4
ATOM      2  C   UNL     1       1.205   8.468  20.824  0.00  0.00    +0.000 C 
ATOM      3  O   UNL     1       1.340   7.643  21.719  0.00  0.00    +0.000 OA
ATOM      4  N   UNL     1       1.754   8.228  19.588  0.00  0.00    +0.000 N 
ATOM      5  H   UNL     1       1.638   8.948  18.861  0.00  0.00    +0.000 HD
BRANCH   2   7
ATOM      6  C   UNL     1      -0.455   9.633  22.372  0.00  0.00    +0.000 C 
ATOM      7  C   UNL     1       0.417   9.763  21.101  0.00  0.00    +0.000 C 
ATOM      8  C   UNL     1      -0.539  10.093  19.933  0.00  0.00    +0.000 C 
BRANCH   7   9
ATOM      9  N   UNL     1       1.367  10.867  21.293  0.00  0.00    +0.000 NA
ATOM     10  H   UNL     1       2.278  10.646  20.830  0.00  0.00    +0.000 HD
ATOM     11  H   UNL     1       1.561  11.015  22.310  0.00  0.00    +0.000 HD
ENDBRANCH   7   9
ENDBRANCH   2   7
ENDBRANCH   1   4
BRANCH   1  12
ATOM     12  C   UNL     1       3.382   7.277  18.015  0.00  0.00    +0.000 C 
ATOM     13  O   UNL     1       2.989   8.070  17.171  0.00  0.00    +0.000 OA
BRANCH  12  14
ATOM     14  O   UNL     1       4.578   6.635  17.848  0.00  0.00    +0.000 OA
BRANCH  14  15
ATOM     15  C   UNL     1       5.438   6.776  16.762  0.00  0.00    +0.000 C 
ATOM     16  C   UNL     1       6.903   7.005  17.203  0.00  0.00    +0.000 C 
ATOM     17  C   UNL     1       7.454   5.777  17.945  0.00  0.00    +0.000 C 
ATOM     18  C   UNL     1       7.390   4.539  17.041  0.00  0.00    +0.000 C 
ATOM     19  C   UNL     1       5.947   4.282  16.601  0.00  0.00    +0.000 C 
ATOM     20  C   UNL     1       5.378   5.513  15.874  0.00  0.00    +0.000 C 
ENDBRANCH  14  15
ENDBRANCH  12  14
ENDBRANCH   1  12
BRANCH   1  21
ATOM     21  C   UNL     1       1.558   5.782  19.008  0.00  0.00    +0.000 C 
BRANCH  21  22
ATOM     22  C   UNL     1       2.312   4.485  18.773  0.00  0.00    +0.000 A 
ATOM     23  C   UNL     1       2.070   3.712  17.628  0.00  0.00    +0.000 A 
ATOM     24  C   UNL     1       2.710   2.480  17.455  0.00  0.00    +0.000 A 
ATOM     25  C   UNL     1       3.611   2.011  18.423  0.00  0.00    +0.000 A 
ATOM     26  C   UNL     1       3.891   2.802  19.548  0.00  0.00    +0.000 A 
ATOM     27  C   UNL     1       3.251   4.028  19.704  0.00  0.00    +0.000 A 
BRANCH  25  28
ATOM     28  O   UNL     1       4.206   0.810  18.280  0.00  0.00    +0.000 OA
ATOM     29  H   UNL     1       4.234   0.349  17.432  0.00  0.00    +0.000 HD
ENDBRANCH  25  28
BRANCH  26  30
ATOM     30  O   UNL     1       4.759   2.401  20.500  0.00  0.00    +0.000 OA
ATOM     31  H   UNL     1       5.408   1.698  20.358  0.00  0.00    +0.000 HD
ENDBRANCH  26  30
ENDBRANCH  21  22
ENDBRANCH   1  21
TORSDOF 10
ENDMDL
MODEL 6
REMARK VINA RESULT:      -7.4      1.903      2.749
REMARK  Name = 
REMARK  12 active torsions:
REMARK  status: ('A' for Active; 'I' for Inactive)
REMARK    1  A    between atoms: C_1  and  C_2
REMARK    2  A    between atoms: C_2  and  C_3
REMARK    3  A    between atoms: C_2  and  N_4
REMARK    4  A    between atoms: C_2  and  C_5
REMARK    5  A    between atoms: N_7  and  C_8
REMARK    6  A    between atoms: C_8  and  C_9
REMARK    7  A    between atoms: C_8  and  C_18
REMARK    8  A    between atoms: C_9  and  C_10
REMARK    9  A    between atoms: C_13  and  O_14
REMARK   10  A    between atoms: C_15  and  O_16
REMARK   11  A    between atoms: C_18  and  O_20
REMARK   12  A    between atoms: O_20  and  C_21
REMARK                            x       y       z     vdW  Elec       q    Type
REMARK                         _______ _______ _______ _____ _____    ______ ____
ROOT
ATOM      1  C   UNL     1       4.110   5.870  17.940  0.00  0.00    +0.000 C 
ENDROOT
BRANCH   1   4
ATOM      2  C   UNL     1       5.665   5.454  16.009  0.00  0.00    +0.000 C 
ATOM      3  O   UNL     1       6.193   6.546  16.175  0.00  0.00    +0.000 OA
ATOM      4  N   UNL     1       4.648   5.056  16.841  0.00  0.00    +0.000 N 
ATOM      5  H   UNL     1       4.234   4.125  16.687  0.00  0.00    +0.000 HD
BRANCH   2   7
ATOM      6  C   UNL     1       7.404   5.128  14.170  0.00  0.00    +0.000 C 
ATOM      7  C   UNL     1       6.150   4.544  14.863  0.00  0.00    +0.000 C 
ATOM      8  C   UNL     1       5.065   4.394  13.774  0.00  0.00    +0.000 C 
BRANCH   7   9
ATOM      9  N   UNL     1       6.488   3.225  15.412  0.00  0.00    +0.000 NA
ATOM     10  H   UNL     1       6.157   3.149  16.402  0.00  0.00    +0.000 HD
ATOM     11  H   UNL     1       7.524   3.081  15.418  0.00  0.00    +0.000 HD
ENDBRANCH   7   9
ENDBRANCH   2   7
ENDBRANCH   1   4
BRANCH   1  12
ATOM     12  C   UNL     1       4.476   5.238  19.284  0.00  0.00    +0.000 C 
ATOM     13  O   UNL     1       5.635   5.311  19.667  0.00  0.00    +0.000 OA
BRANCH  12  14
ATOM     14  O   UNL     1       3.542   4.586  20.043  0.00  0.00    +0.000 OA
BRANCH  14  15
ATOM     15  C   UNL     1       3.477   3.212  20.256  0.00  0.00    +0.000 C 
ATOM     16  C   UNL     1       2.308   2.822  21.193  0.00  0.00    +0.000 C 
ATOM     17  C   UNL     1       0.953   3.155  20.551  0.00  0.00    +0.000 C 
ATOM     18  C   UNL     1       0.798   2.409  19.220  0.00  0.00    +0.000 C 
ATOM     19  C   UNL     1       1.935   2.788  18.268  0.00  0.00    +0.000 C 
ATOM     20  C   UNL     1       3.300   2.477  18.908  0.00  0.00    +0.000 C 
ENDBRANCH  14  15
ENDBRANCH  12  14
ENDBRANCH   1  12
BRANCH   1  21
ATOM     21  C   UNL     1       2.568   6.101  17.813  0.00  0.00    +0.000 C 
BRANCH  21  22
ATOM     22  C   UNL     1       2.090   7.359  18.514  0.00  0.00    +0.000 A 
ATOM     23  C   UNL     1       1.830   8.530  17.788  0.00  0.00    +0.000 A 
ATOM     24  C   UNL     1       1.464   9.708  18.448  0.00  0.00    +0.000 A 
ATOM     25  C   UNL     1       1.344   9.726  19.846  0.00  0.00    +0.000 A 
ATOM     26  C   UNL     1       1.558   8.545  20.573  0.00  0.00    +0.000 A 
ATOM     27  C   UNL     1       1.916   7.380  19.902  0.00  0.00    +0.000 A 
BRANCH  25  28
ATOM     28  O   UNL     1       1.025  10.865  20.491  0.00  0.00    +0.000 OA
ATOM     29  H   UNL     1       0.479  10.868  21.289  0.00  0.00    +0.000 HD
ENDBRANCH  25  28
BRANCH  26  30
ATOM     30  O   UNL     1       1.442   8.507  21.916  0.00  0.00    +0.000 OA
ATOM     31  H   UNL     1       0.736   8.027  22.370  0.00  0.00    +0.000 HD
ENDBRANCH  26  30
ENDBRANCH  21  22
ENDBRANCH   1  21
TORSDOF 10
ENDMDL
MODEL 7
REMARK VINA RESULT:      -7.4      2.035      5.846
REMARK  Name = 
REMARK  12 active torsions:
REMARK  status: ('A' for Active; 'I' for Inactive)
REMARK    1  A    between atoms: C_1  and  C_2
REMARK    2  A    between atoms: C_2  and  C_3
REMARK    3  A    between atoms: C_2  and  N_4
REMARK    4  A    between atoms: C_2  and  C_5
REMARK    5  A    between atoms: N_7  and  C_8
REMARK    6  A    between atoms: C_8  and  C_9
REMARK    7  A    between atoms: C_8  and  C_18
REMARK    8  A    between atoms: C_9  and  C_10
REMARK    9  A    between atoms: C_13  and  O_14
REMARK   10  A    between atoms: C_15  and  O_16
REMARK   11  A    between atoms: C_18  and  O_20
REMARK   12  A    between atoms: O_20  and  C_21
REMARK                            x       y       z     vdW  Elec       q    Type
REMARK                         _______ _______ _______ _____ _____    ______ ____
ROOT
ATOM      1  C   UNL     1       2.916   6.860  17.965  0.00  0.00    +0.000 C 
ENDROOT
BRANCH   1   4
ATOM      2  C   UNL     1       5.256   6.487  17.125  0.00  0.00    +0.000 C 
ATOM      3  O   UNL     1       4.827   5.936  16.119  0.00  0.00    +0.000 OA
ATOM      4  N   UNL     1       4.378   6.971  18.063  0.00  0.00    +0.000 N 
ATOM      5  H   UNL     1       4.769   7.444  18.891  0.00  0.00    +0.000 HD
BRANCH   2   7
ATOM      6  C   UNL     1       7.253   5.888  18.597  0.00  0.00    +0.000 C 
ATOM      7  C   UNL     1       6.779   6.624  17.322  0.00  0.00    +0.000 C 
ATOM      8  C   UNL     1       7.188   8.106  17.481  0.00  0.00    +0.000 C 
BRANCH   7   9
ATOM      9  N   UNL     1       7.464   6.042  16.161  0.00  0.00    +0.000 NA
ATOM     10  H   UNL     1       7.283   6.618  15.306  0.00  0.00    +0.000 HD
ATOM     11  H   UNL     1       7.109   5.077  15.968  0.00  0.00    +0.000 HD
ENDBRANCH   7   9
ENDBRANCH   2   7
ENDBRANCH   1   4
BRANCH   1  12
ATOM     12  C   UNL     1       2.278   8.242  18.111  0.00  0.00    +0.000 C 
ATOM     13  O   UNL     1       2.531   9.094  17.271  0.00  0.00    +0.000 OA
BRANCH  12  14
ATOM     14  O   UNL     1       1.456   8.539  19.163  0.00  0.00    +0.000 OA
BRANCH  14  15
ATOM     15  C   UNL     1       1.740   9.426  20.198  0.00  0.00    +0.000 C 
ATOM     16  C   UNL     1       1.034  10.790  20.009  0.00  0.00    +0.000 C 
ATOM     17  C   UNL     1      -0.494  10.634  20.074  0.00  0.00    +0.000 C 
ATOM     18  C   UNL     1      -0.909  10.038  21.425  0.00  0.00    +0.000 C 
ATOM     19  C   UNL     1      -0.235   8.680  21.631  0.00  0.00    +0.000 C 
ATOM     20  C   UNL     1       1.296   8.820  21.549  0.00  0.00    +0.000 C 
ENDBRANCH  14  15
ENDBRANCH  12  14
ENDBRANCH   1  12
BRANCH   1  21
ATOM     21  C   UNL     1       2.325   5.840  18.993  0.00  0.00    +0.000 C 
BRANCH  21  22
ATOM     22  C   UNL     1       2.806   4.418  18.772  0.00  0.00    +0.000 A 
ATOM     23  C   UNL     1       2.219   3.607  17.790  0.00  0.00    +0.000 A 
ATOM     24  C   UNL     1       2.613   2.273  17.642  0.00  0.00    +0.000 A 
ATOM     25  C   UNL     1       3.609   1.735  18.472  0.00  0.00    +0.000 A 
ATOM     26  C   UNL     1       4.231   2.555  19.426  0.00  0.00    +0.000 A 
ATOM     27  C   UNL     1       3.833   3.882  19.557  0.00  0.00    +0.000 A 
BRANCH  25  28
ATOM     28  O   UNL     1       3.970   0.442  18.359  0.00  0.00    +0.000 OA
ATOM     29  H   UNL     1       4.792   0.103  18.738  0.00  0.00    +0.000 HD
ENDBRANCH  25  28
BRANCH  26  30
ATOM     30  O   UNL     1       5.202   2.090  20.238  0.00  0.00    +0.000 OA
ATOM     31  H   UNL     1       5.189   1.200  20.618  0.00  0.00    +0.000 HD
ENDBRANCH  26  30
ENDBRANCH  21  22
ENDBRANCH   1  21
TORSDOF 10
ENDMDL
MODEL 8
REMARK VINA RESULT:      -7.3      2.387      5.737
REMARK  Name = 
REMARK  12 active torsions:
REMARK  status: ('A' for Active; 'I' for Inactive)
REMARK    1  A    between atoms: C_1  and  C_2
REMARK    2  A    between atoms: C_2  and  C_3
REMARK    3  A    between atoms: C_2  and  N_4
REMARK    4  A    between atoms: C_2  and  C_5
REMARK    5  A    between atoms: N_7  and  C_8
REMARK    6  A    between atoms: C_8  and  C_9
REMARK    7  A    between atoms: C_8  and  C_18
REMARK    8  A    between atoms: C_9  and  C_10
REMARK    9  A    between atoms: C_13  and  O_14
REMARK   10  A    between atoms: C_15  and  O_16
REMARK   11  A    between atoms: C_18  and  O_20
REMARK   12  A    between atoms: O_20  and  C_21
REMARK                            x       y       z     vdW  Elec       q    Type
REMARK                         _______ _______ _______ _____ _____    ______ ____
ROOT
ATOM      1  C   UNL     1       2.905   6.688  18.905  0.00  0.00    +0.000 C 
ENDROOT
BRANCH   1   4
ATOM      2  C   UNL     1       1.608   8.521  20.035  0.00  0.00    +0.000 C 
ATOM      3  O   UNL     1       1.636   9.196  19.013  0.00  0.00    +0.000 OA
ATOM      4  N   UNL     1       2.200   7.282  20.049  0.00  0.00    +0.000 N 
ATOM      5  H   UNL     1       2.146   6.732  20.918  0.00  0.00    +0.000 HD
BRANCH   2   7
ATOM      6  C   UNL     1      -0.304   8.210  21.696  0.00  0.00    +0.000 C 
ATOM      7  C   UNL     1       0.910   9.079  21.291  0.00  0.00    +0.000 C 
ATOM      8  C   UNL     1       0.377  10.507  21.043  0.00  0.00    +0.000 C 
BRANCH   7   9
ATOM      9  N   UNL     1       1.870   9.093  22.403  0.00  0.00    +0.000 NA
ATOM     10  H   UNL     1       1.403   8.788  23.289  0.00  0.00    +0.000 HD
ATOM     11  H   UNL     1       2.240  10.058  22.560  0.00  0.00    +0.000 HD
ENDBRANCH   7   9
ENDBRANCH   2   7
ENDBRANCH   1   4
BRANCH   1  12
ATOM     12  C   UNL     1       2.007   5.658  18.217  0.00  0.00    +0.000 C 
ATOM     13  O   UNL     1       1.070   6.060  17.542  0.00  0.00    +0.000 OA
BRANCH  12  14
ATOM     14  O   UNL     1       2.222   4.315  18.361  0.00  0.00    +0.000 OA
BRANCH  14  15
ATOM     15  C   UNL     1       1.335   3.400  18.920  0.00  0.00    +0.000 C 
ATOM     16  C   UNL     1       1.978   2.005  19.112  0.00  0.00    +0.000 C 
ATOM     17  C   UNL     1       3.128   2.064  20.129  0.00  0.00    +0.000 C 
ATOM     18  C   UNL     1       2.613   2.569  21.484  0.00  0.00    +0.000 C 
ATOM     19  C   UNL     1       1.983   3.955  21.324  0.00  0.00    +0.000 C 
ATOM     20  C   UNL     1       0.842   3.912  20.291  0.00  0.00    +0.000 C 
ENDBRANCH  14  15
ENDBRANCH  12  14
ENDBRANCH   1  12
BRANCH   1  21
ATOM     21  C   UNL     1       4.284   6.070  19.309  0.00  0.00    +0.000 C 
BRANCH  21  22
ATOM     22  C   UNL     1       5.221   5.872  18.132  0.00  0.00    +0.000 A 
ATOM     23  C   UNL     1       4.944   6.457  16.888  0.00  0.00    +0.000 A 
ATOM     24  C   UNL     1       5.769   6.207  15.786  0.00  0.00    +0.000 A 
ATOM     25  C   UNL     1       6.891   5.375  15.919  0.00  0.00    +0.000 A 
ATOM     26  C   UNL     1       7.199   4.825  17.173  0.00  0.00    +0.000 A 
ATOM     27  C   UNL     1       6.372   5.086  18.261  0.00  0.00    +0.000 A 
BRANCH  25  28
ATOM     28  O   UNL     1       7.672   5.103  14.855  0.00  0.00    +0.000 OA
ATOM     29  H   UNL     1       7.673   4.237  14.427  0.00  0.00    +0.000 HD
ENDBRANCH  25  28
BRANCH  26  30
ATOM     30  O   UNL     1       8.274   4.030  17.355  0.00  0.00    +0.000 OA
ATOM     31  H   UNL     1       8.986   3.952  16.706  0.00  0.00    +0.000 HD
ENDBRANCH  26  30
ENDBRANCH  21  22
ENDBRANCH   1  21
TORSDOF 10
ENDMDL
MODEL 9
REMARK VINA RESULT:      -7.2      2.481      5.776
REMARK  Name = 
REMARK  12 active torsions:
REMARK  status: ('A' for Active; 'I' for Inactive)
REMARK    1  A    between atoms: C_1  and  C_2
REMARK    2  A    between atoms: C_2  and  C_3
REMARK    3  A    between atoms: C_2  and  N_4
REMARK    4  A    between atoms: C_2  and  C_5
REMARK    5  A    between atoms: N_7  and  C_8
REMARK    6  A    between atoms: C_8  and  C_9
REMARK    7  A    between atoms: C_8  and  C_18
REMARK    8  A    between atoms: C_9  and  C_10
REMARK    9  A    between atoms: C_13  and  O_14
REMARK   10  A    between atoms: C_15  and  O_16
REMARK   11  A    between atoms: C_18  and  O_20
REMARK   12  A    between atoms: O_20  and  C_21
REMARK                            x       y       z     vdW  Elec       q    Type
REMARK                         _______ _______ _______ _____ _____    ______ ____
ROOT
ATOM      1  C   UNL     1       2.598   6.535  18.336  0.00  0.00    +0.000 C 
ENDROOT
BRANCH   1   4
ATOM      2  C   UNL     1       1.640   8.853  18.506  0.00  0.00    +0.000 C 
ATOM      3  O   UNL     1       1.974   9.096  17.353  0.00  0.00    +0.000 OA
ATOM      4  N   UNL     1       1.904   7.618  19.046  0.00  0.00    +0.000 N 
ATOM      5  H   UNL     1       1.596   7.438  20.013  0.00  0.00    +0.000 HD
BRANCH   2   7
ATOM      6  C   UNL     1       1.635  11.310  19.193  0.00  0.00    +0.000 C 
ATOM      7  C   UNL     1       0.928   9.942  19.333  0.00  0.00    +0.000 C 
ATOM      8  C   UNL     1       0.929   9.588  20.837  0.00  0.00    +0.000 C 
BRANCH   7   9
ATOM      9  N   UNL     1      -0.454  10.076  18.855  0.00  0.00    +0.000 NA
ATOM     10  H   UNL     1      -0.473  10.133  17.811  0.00  0.00    +0.000 HD
ATOM     11  H   UNL     1      -0.890  10.952  19.224  0.00  0.00    +0.000 HD
ENDBRANCH   7   9
ENDBRANCH   2   7
ENDBRANCH   1   4
BRANCH   1  12
ATOM     12  C   UNL     1       1.725   5.279  18.321  0.00  0.00    +0.000 C 
ATOM     13  O   UNL     1       1.211   4.938  17.265  0.00  0.00    +0.000 OA
BRANCH  12  14
ATOM     14  O   UNL     1       1.499   4.555  19.459  0.00  0.00    +0.000 OA
BRANCH  14  15
ATOM     15  C   UNL     1       1.283   3.181  19.525  0.00  0.00    +0.000 C 
ATOM     16  C   UNL     1       2.416   2.379  18.840  0.00  0.00    +0.000 C 
ATOM     17  C   UNL     1       3.751   2.573  19.574  0.00  0.00    +0.000 C 
ATOM     18  C   UNL     1       3.626   2.115  21.033  0.00  0.00    +0.000 C 
ATOM     19  C   UNL     1       2.521   2.904  21.739  0.00  0.00    +0.000 C 
ATOM     20  C   UNL     1       1.181   2.733  21.000  0.00  0.00    +0.000 C 
ENDBRANCH  14  15
ENDBRANCH  12  14
ENDBRANCH   1  12
BRANCH   1  21
ATOM     21  C   UNL     1       4.015   6.243  18.930  0.00  0.00    +0.000 C 
BRANCH  21  22
ATOM     22  C   UNL     1       5.047   5.889  17.875  0.00  0.00    +0.000 A 
ATOM     23  C   UNL     1       4.850   6.244  16.533  0.00  0.00    +0.000 A 
ATOM     24  C   UNL     1       5.767   5.847  15.552  0.00  0.00    +0.000 A 
ATOM     25  C   UNL     1       6.899   5.098  15.906  0.00  0.00    +0.000 A 
ATOM     26  C   UNL     1       7.124   4.781  17.254  0.00  0.00    +0.000 A 
ATOM     27  C   UNL     1       6.207   5.187  18.219  0.00  0.00    +0.000 A 
BRANCH  25  28
ATOM     28  O   UNL     1       7.769   4.684  14.964  0.00  0.00    +0.000 OA
ATOM     29  H   UNL     1       7.531   4.644  14.027  0.00  0.00    +0.000 HD
ENDBRANCH  25  28
BRANCH  26  30
ATOM     30  O   UNL     1       8.205   4.075  17.647  0.00  0.00    +0.000 OA
ATOM     31  H   UNL     1       8.378   3.171  17.351  0.00  0.00    +0.000 HD
ENDBRANCH  26  30
ENDBRANCH  21  22
ENDBRANCH   1  21
TORSDOF 10
ENDMDL
