MODEL 1
REMARK VINA RESULT:      -8.4      0.000      0.000
REMARK  Name = 
REMARK  7 active torsions:
REMARK  status: ('A' for Active; 'I' for Inactive)
REMARK    1  A    between atoms: C_2  and  C_3
REMARK    2  A    between atoms: C_3  and  C_4
REMARK    3  A    between atoms: N_11  and  C_12
REMARK    4  A    between atoms: N_21  and  C_22
REMARK    5  A    between atoms: C_22  and  C_23
REMARK    6  A    between atoms: C_23  and  O_24
REMARK    7  A    between atoms: O_24  and  C_25
REMARK                            x       y       z     vdW  Elec       q    Type
REMARK                         _______ _______ _______ _____ _____    ______ ____
ROOT
ATOM      1  C   UNL     1       1.142   9.519  19.914  0.00  0.00    +0.000 C 
ATOM      2  C   UNL     1       0.195   8.854  20.903  0.00  0.00    +0.000 C 
ATOM      3  C   UNL     1       1.031   7.720  21.467  0.00  0.00    +0.000 C 
ATOM      4  N   UNL     1       1.827   7.260  20.335  0.00  0.00    +0.000 N 
ATOM      5  C   UNL     1       2.066   5.923  20.047  0.00  0.00    +0.000 A 
ATOM      6  C   UNL     1       1.961   4.915  21.137  0.00  0.00    +0.000 A 
ATOM      7  C   UNL     1       2.022   3.621  20.833  0.00  0.00    +0.000 A 
ATOM      8  C   UNL     1       2.276   3.194  19.450  0.00  0.00    +0.000 A 
ATOM      9  O   UNL     1       2.288   1.993  19.192  0.00  0.00    +0.000 OA
ATOM     10  N   UNL     1       2.525   4.210  18.542  0.00  0.00    +0.000 N 
ATOM     11  N   UNL     1       2.377   5.557  18.829  0.00  0.00    +0.000 NA
ATOM     12  C   UNL     1       1.935   8.327  19.325  0.00  0.00    +0.000 C 
ENDROOT
BRANCH   1  15
ATOM     13  O   UNL     1       0.144  12.104  20.362  0.00  0.00    +0.000 OA
ATOM     14  C   UNL     1      -0.026  11.588  19.260  0.00  0.00    +0.000 C 
ATOM     15  N   UNL     1       0.415  10.323  18.948  0.00  0.00    +0.000 N 
ATOM     16  H   UNL     1       0.535  10.121  17.960  0.00  0.00    +0.000 HD
BRANCH  14  17
ATOM     17  C   UNL     1      -0.764  12.299  18.133  0.00  0.00    +0.000 C 
BRANCH  17  18
ATOM     18  C   UNL     1      -2.151  11.767  17.882  0.00  0.00    +0.000 A 
ATOM     19  C   UNL     1      -2.447  11.049  16.714  0.00  0.00    +0.000 A 
ATOM     20  C   UNL     1      -3.742  10.574  16.483  0.00  0.00    +0.000 A 
ATOM     21  C   UNL     1      -4.752  10.810  17.414  0.00  0.00    +0.000 A 
ATOM     22  C   UNL     1      -4.474  11.532  18.572  0.00  0.00    +0.000 A 
ATOM     23  C   UNL     1      -3.185  12.008  18.791  0.00  0.00    +0.000 A 
ATOM     24  F   UNL     1      -2.944  12.731  19.896  0.00  0.00    +0.000 F 
ENDBRANCH  17  18
ENDBRANCH  14  17
ENDBRANCH   1  15
BRANCH  10  25
ATOM     25  C   UNL     1       2.886   3.830  17.177  0.00  0.00    +0.000 C 
BRANCH  25  26
ATOM     26  C   UNL     1       4.380   3.647  16.947  0.00  0.00    +0.000 C 
BRANCH  26  27
ATOM     27  O   UNL     1       4.939   4.822  16.349  0.00  0.00    +0.000 OA
BRANCH  27  28
ATOM     28  C   UNL     1       5.943   5.420  17.072  0.00  0.00    +0.000 A 
ATOM     29  C   UNL     1       6.729   4.787  18.039  0.00  0.00    +0.000 A 
ATOM     30  C   UNL     1       7.720   5.495  18.719  0.00  0.00    +0.000 A 
ATOM     31  C   UNL     1       7.937   6.841  18.434  0.00  0.00    +0.000 A 
ATOM     32  C   UNL     1       7.162   7.479  17.467  0.00  0.00    +0.000 A 
ATOM     33  C   UNL     1       6.170   6.768  16.787  0.00  0.00    +0.000 A 
ENDBRANCH  27  28
ENDBRANCH  26  27
ENDBRANCH  25  26
ENDBRANCH  10  25
TORSDOF 7
ENDMDL
MODEL 2
REMARK VINA RESULT:      -8.4      0.878      1.460
REMARK  Name = 
REMARK  7 active torsions:
REMARK  status: ('A' for Active; 'I' for Inactive)
REMARK    1  A    between atoms: C_2  and  C_3
REMARK    2  A    between atoms: C_3  and  C_4
REMARK    3  A    between atoms: N_11  and  C_12
REMARK    4  A    between atoms: N_21  and  C_22
REMARK    5  A    between atoms: C_22  and  C_23
REMARK    6  A    between atoms: C_23  and  O_24
REMARK    7  A    between atoms: O_24  and  C_25
REMARK                            x       y       z     vdW  Elec       q    Type
REMARK                         _______ _______ _______ _____ _____    ______ ____
ROOT
ATOM      1  C   UNL     1       1.096   9.397  19.971  0.00  0.00    +0.000 C 
ATOM      2  C   UNL     1       0.186   8.718  20.986  0.00  0.00    +0.000 C 
ATOM      3  C   UNL     1       1.055   7.597  21.527  0.00  0.00    +0.000 C 
ATOM      4  N   UNL     1       1.826   7.149  20.374  0.00  0.00    +0.000 N 
ATOM      5  C   UNL     1       2.078   5.815  20.080  0.00  0.00    +0.000 A 
ATOM      6  C   UNL     1       2.018   4.806  21.173  0.00  0.00    +0.000 A 
ATOM      7  C   UNL     1       2.091   3.514  20.867  0.00  0.00    +0.000 A 
ATOM      8  C   UNL     1       2.313   3.090  19.478  0.00  0.00    +0.000 A 
ATOM      9  O   UNL     1       2.337   1.889  19.220  0.00  0.00    +0.000 OA
ATOM     10  N   UNL     1       2.522   4.109  18.563  0.00  0.00    +0.000 N 
ATOM     11  N   UNL     1       2.361   5.453  18.854  0.00  0.00    +0.000 NA
ATOM     12  C   UNL     1       1.890   8.217  19.361  0.00  0.00    +0.000 C 
ENDROOT
BRANCH   1  15
ATOM     13  O   UNL     1       0.223  12.033  20.378  0.00  0.00    +0.000 OA
ATOM     14  C   UNL     1      -0.043  11.481  19.314  0.00  0.00    +0.000 C 
ATOM     15  N   UNL     1       0.330  10.188  19.026  0.00  0.00    +0.000 N 
ATOM     16  H   UNL     1       0.373   9.944  18.040  0.00  0.00    +0.000 HD
BRANCH  14  17
ATOM     17  C   UNL     1      -0.834  12.174  18.212  0.00  0.00    +0.000 C 
BRANCH  17  18
ATOM     18  C   UNL     1      -2.291  11.794  18.176  0.00  0.00    +0.000 A 
ATOM     19  C   UNL     1      -3.187  12.279  19.140  0.00  0.00    +0.000 A 
ATOM     20  C   UNL     1      -4.534  11.906  19.107  0.00  0.00    +0.000 A 
ATOM     21  C   UNL     1      -5.001  11.047  18.112  0.00  0.00    +0.000 A 
ATOM     22  C   UNL     1      -4.118  10.549  17.156  0.00  0.00    +0.000 A 
ATOM     23  C   UNL     1      -2.778  10.919  17.200  0.00  0.00    +0.000 A 
ATOM     24  F   UNL     1      -1.936  10.402  16.292  0.00  0.00    +0.000 F 
ENDBRANCH  17  18
ENDBRANCH  14  17
ENDBRANCH   1  15
BRANCH  10  25
ATOM     25  C   UNL     1       2.852   3.734  17.189  0.00  0.00    +0.000 C 
BRANCH  25  26
ATOM     26  C   UNL     1       4.308   3.955  16.806  0.00  0.00    +0.000 C 
BRANCH  26  27
ATOM     27  O   UNL     1       4.568   5.352  16.626  0.00  0.00    +0.000 OA
BRANCH  27  28
ATOM     28  C   UNL     1       5.685   5.822  17.275  0.00  0.00    +0.000 A 
ATOM     29  C   UNL     1       6.474   6.895  16.851  0.00  0.00    +0.000 A 
ATOM     30  C   UNL     1       7.593   7.284  17.586  0.00  0.00    +0.000 A 
ATOM     31  C   UNL     1       7.931   6.608  18.755  0.00  0.00    +0.000 A 
ATOM     32  C   UNL     1       7.146   5.540  19.190  0.00  0.00    +0.000 A 
ATOM     33  C   UNL     1       6.025   5.151  18.452  0.00  0.00    +0.000 A 
ENDBRANCH  27  28
ENDBRANCH  26  27
ENDBRANCH  25  26
ENDBRANCH  10  25
TORSDOF 7
ENDMDL
MODEL 3
REMARK VINA RESULT:      -8.3      3.940      8.776
REMARK  Name = 
REMARK  7 active torsions:
REMARK  status: ('A' for Active; 'I' for Inactive)
REMARK    1  A    between atoms: C_2  and  C_3
REMARK    2  A    between atoms: C_3  and  C_4
REMARK    3  A    between atoms: N_11  and  C_12
REMARK    4  A    between atoms: N_21  and  C_22
REMARK    5  A    between atoms: C_22  and  C_23
REMARK    6  A    between atoms: C_23  and  O_24
REMARK    7  A    between atoms: O_24  and  C_25
REMARK                            x       y       z     vdW  Elec       q    Type
REMARK                         _______ _______ _______ _____ _____    ______ ____
ROOT
ATOM      1  C   UNL     1       7.092   6.941  17.215  0.00  0.00    +0.000 C 
ATOM      2  C   UNL     1       7.365   5.449  17.091  0.00  0.00    +0.000 C 
ATOM      3  C   UNL     1       6.038   4.898  16.602  0.00  0.00    +0.000 C 
ATOM      4  N   UNL     1       5.037   5.709  17.287  0.00  0.00    +0.000 N 
ATOM      5  C   UNL     1       3.873   5.196  17.845  0.00  0.00    +0.000 A 
ATOM      6  C   UNL     1       3.336   3.902  17.345  0.00  0.00    +0.000 A 
ATOM      7  C   UNL     1       2.323   3.328  17.988  0.00  0.00    +0.000 A 
ATOM      8  C   UNL     1       1.687   4.003  19.127  0.00  0.00    +0.000 A 
ATOM      9  O   UNL     1       0.779   3.431  19.726  0.00  0.00    +0.000 OA
ATOM     10  N   UNL     1       2.152   5.278  19.408  0.00  0.00    +0.000 N 
ATOM     11  N   UNL     1       3.261   5.846  18.803  0.00  0.00    +0.000 NA
ATOM     12  C   UNL     1       5.624   6.995  17.702  0.00  0.00    +0.000 C 
ENDROOT
BRANCH   1  15
ATOM     13  O   UNL     1       7.494   9.709  17.454  0.00  0.00    +0.000 OA
ATOM     14  C   UNL     1       8.175   8.952  18.140  0.00  0.00    +0.000 C 
ATOM     15  N   UNL     1       8.062   7.582  18.085  0.00  0.00    +0.000 N 
ATOM     16  H   UNL     1       8.398   7.071  18.897  0.00  0.00    +0.000 HD
BRANCH  14  17
ATOM     17  C   UNL     1       9.234   9.462  19.110  0.00  0.00    +0.000 C 
BRANCH  17  18
ATOM     18  C   UNL     1       9.616  10.903  18.892  0.00  0.00    +0.000 A 
ATOM     19  C   UNL     1      10.317  11.297  17.743  0.00  0.00    +0.000 A 
ATOM     20  C   UNL     1      10.682  12.635  17.560  0.00  0.00    +0.000 A 
ATOM     21  C   UNL     1      10.349  13.591  18.518  0.00  0.00    +0.000 A 
ATOM     22  C   UNL     1       9.664  13.210  19.669  0.00  0.00    +0.000 A 
ATOM     23  C   UNL     1       9.312  11.876  19.849  0.00  0.00    +0.000 A 
ATOM     24  F   UNL     1       8.681  11.522  20.979  0.00  0.00    +0.000 F 
ENDBRANCH  17  18
ENDBRANCH  14  17
ENDBRANCH   1  15
BRANCH  10  25
ATOM     25  C   UNL     1       1.479   6.031  20.465  0.00  0.00    +0.000 C 
BRANCH  25  26
ATOM     26  C   UNL     1       1.749   7.529  20.442  0.00  0.00    +0.000 C 
BRANCH  26  27
ATOM     27  O   UNL     1       1.581   8.084  21.751  0.00  0.00    +0.000 OA
BRANCH  27  28
ATOM     28  C   UNL     1       0.692   9.130  21.829  0.00  0.00    +0.000 A 
ATOM     29  C   UNL     1       0.074   9.580  22.998  0.00  0.00    +0.000 A 
ATOM     30  C   UNL     1      -0.820  10.649  22.959  0.00  0.00    +0.000 A 
ATOM     31  C   UNL     1      -1.100  11.282  21.751  0.00  0.00    +0.000 A 
ATOM     32  C   UNL     1      -0.483  10.844  20.579  0.00  0.00    +0.000 A 
ATOM     33  C   UNL     1       0.412   9.772  20.620  0.00  0.00    +0.000 A 
ENDBRANCH  27  28
ENDBRANCH  26  27
ENDBRANCH  25  26
ENDBRANCH  10  25
TORSDOF 7
ENDMDL
MODEL 4
REMARK VINA RESULT:      -8.0      3.785      8.546
REMARK  Name = 
REMARK  7 active torsions:
REMARK  status: ('A' for Active; 'I' for Inactive)
REMARK    1  A    between atoms: C_2  and  C_3
REMARK    2  A    between atoms: C_3  and  C_4
REMARK    3  A    between atoms: N_11  and  C_12
REMARK    4  A    between atoms: N_21  and  C_22
REMARK    5  A    between atoms: C_22  and  C_23
REMARK    6  A    between atoms: C_23  and  O_24
REMARK    7  A    between atoms: O_24  and  C_25
REMARK                            x       y       z     vdW  Elec       q    Type
REMARK                         _______ _______ _______ _____ _____    ______ ____
ROOT
ATOM      1  C   UNL     1       7.055   6.744  17.225  0.00  0.00    +0.000 C 
ATOM      2  C   UNL     1       7.364   5.260  17.085  0.00  0.00    +0.000 C 
ATOM      3  C   UNL     1       6.060   4.687  16.563  0.00  0.00    +0.000 C 
ATOM      4  N   UNL     1       5.027   5.464  17.238  0.00  0.00    +0.000 N 
ATOM      5  C   UNL     1       3.865   4.917  17.766  0.00  0.00    +0.000 A 
ATOM      6  C   UNL     1       3.367   3.618  17.237  0.00  0.00    +0.000 A 
ATOM      7  C   UNL     1       2.356   3.011  17.851  0.00  0.00    +0.000 A 
ATOM      8  C   UNL     1       1.682   3.656  18.986  0.00  0.00    +0.000 A 
ATOM      9  O   UNL     1       0.776   3.055  19.559  0.00  0.00    +0.000 OA
ATOM     10  N   UNL     1       2.112   4.936  19.295  0.00  0.00    +0.000 N 
ATOM     11  N   UNL     1       3.219   5.539  18.720  0.00  0.00    +0.000 NA
ATOM     12  C   UNL     1       5.577   6.757  17.683  0.00  0.00    +0.000 C 
ENDROOT
BRANCH   1  15
ATOM     13  O   UNL     1       7.508   9.509  17.391  0.00  0.00    +0.000 OA
ATOM     14  C   UNL     1       8.135   8.762  18.138  0.00  0.00    +0.000 C 
ATOM     15  N   UNL     1       7.992   7.394  18.123  0.00  0.00    +0.000 N 
ATOM     16  H   UNL     1       8.272   6.905  18.969  0.00  0.00    +0.000 HD
BRANCH  14  17
ATOM     17  C   UNL     1       9.152   9.284  19.144  0.00  0.00    +0.000 C 
BRANCH  17  18
ATOM     18  C   UNL     1       9.523  10.730  18.943  0.00  0.00    +0.000 A 
ATOM     19  C   UNL     1      10.182  11.150  17.779  0.00  0.00    +0.000 A 
ATOM     20  C   UNL     1      10.536  12.492  17.610  0.00  0.00    +0.000 A 
ATOM     21  C   UNL     1      10.236  13.427  18.600  0.00  0.00    +0.000 A 
ATOM     22  C   UNL     1       9.593  13.020  19.766  0.00  0.00    +0.000 A 
ATOM     23  C   UNL     1       9.250  11.682  19.930  0.00  0.00    +0.000 A 
ATOM     24  F   UNL     1       8.661  11.302  21.075  0.00  0.00    +0.000 F 
ENDBRANCH  17  18
ENDBRANCH  14  17
ENDBRANCH   1  15
BRANCH  10  25
ATOM     25  C   UNL     1       1.401   5.659  20.348  0.00  0.00    +0.000 C 
BRANCH  25  26
ATOM     26  C   UNL     1       1.974   7.032  20.669  0.00  0.00    +0.000 C 
BRANCH  26  27
ATOM     27  O   UNL     1       0.958   7.878  21.220  0.00  0.00    +0.000 OA
BRANCH  27  28
ATOM     28  C   UNL     1       0.682   9.007  20.488  0.00  0.00    +0.000 A 
ATOM     29  C   UNL     1       1.239   9.320  19.245  0.00  0.00    +0.000 A 
ATOM     30  C   UNL     1       0.891  10.502  18.591  0.00  0.00    +0.000 A 
ATOM     31  C   UNL     1      -0.021  11.379  19.172  0.00  0.00    +0.000 A 
ATOM     32  C   UNL     1      -0.587  11.073  20.408  0.00  0.00    +0.000 A 
ATOM     33  C   UNL     1      -0.237   9.889  21.062  0.00  0.00    +0.000 A 
ENDBRANCH  27  28
ENDBRANCH  26  27
ENDBRANCH  25  26
ENDBRANCH  10  25
TORSDOF 7
ENDMDL
MODEL 5
REMARK VINA RESULT:      -7.8      4.596      8.568
REMARK  Name = 
REMARK  7 active torsions:
REMARK  status: ('A' for Active; 'I' for Inactive)
REMARK    1  A    between atoms: C_2  and  C_3
REMARK    2  A    between atoms: C_3  and  C_4
REMARK    3  A    between atoms: N_11  and  C_12
REMARK    4  A    between atoms: N_21  and  C_22
REMARK    5  A    between atoms: C_22  and  C_23
REMARK    6  A    between atoms: C_23  and  O_24
REMARK    7  A    between atoms: O_24  and  C_25
REMARK                            x       y       z     vdW  Elec       q    Type
REMARK                         _______ _______ _______ _____ _____    ______ ____
ROOT
ATOM      1  C   UNL     1       1.186  10.013  18.906  0.00  0.00    +0.000 C 
ATOM      2  C   UNL     1       0.454  10.782  19.998  0.00  0.00    +0.000 C 
ATOM      3  C   UNL     1       0.232  12.144  19.367  0.00  0.00    +0.000 C 
ATOM      4  N   UNL     1       1.434  12.375  18.574  0.00  0.00    +0.000 N 
ATOM      5  C   UNL     1       2.098  13.593  18.507  0.00  0.00    +0.000 A 
ATOM      6  C   UNL     1       1.354  14.844  18.821  0.00  0.00    +0.000 A 
ATOM      7  C   UNL     1       2.024  15.988  18.923  0.00  0.00    +0.000 A 
ATOM      8  C   UNL     1       3.466  16.033  18.646  0.00  0.00    +0.000 A 
ATOM      9  O   UNL     1       4.066  17.096  18.787  0.00  0.00    +0.000 OA
ATOM     10  N   UNL     1       4.031  14.849  18.200  0.00  0.00    +0.000 N 
ATOM     11  N   UNL     1       3.363  13.636  18.175  0.00  0.00    +0.000 NA
ATOM     12  C   UNL     1       2.083  11.092  18.254  0.00  0.00    +0.000 C 
ENDROOT
BRANCH   1  15
ATOM     13  O   UNL     1       2.007   7.759  17.450  0.00  0.00    +0.000 OA
ATOM     14  C   UNL     1       2.257   7.809  18.651  0.00  0.00    +0.000 C 
ATOM     15  N   UNL     1       1.886   8.865  19.452  0.00  0.00    +0.000 N 
ATOM     16  H   UNL     1       2.413   8.981  20.313  0.00  0.00    +0.000 HD
BRANCH  14  17
ATOM     17  C   UNL     1       2.992   6.690  19.378  0.00  0.00    +0.000 C 
BRANCH  17  18
ATOM     18  C   UNL     1       2.266   5.370  19.355  0.00  0.00    +0.000 A 
ATOM     19  C   UNL     1       1.500   4.950  20.452  0.00  0.00    +0.000 A 
ATOM     20  C   UNL     1       0.844   3.715  20.427  0.00  0.00    +0.000 A 
ATOM     21  C   UNL     1       0.944   2.889  19.309  0.00  0.00    +0.000 A 
ATOM     22  C   UNL     1       1.713   3.290  18.218  0.00  0.00    +0.000 A 
ATOM     23  C   UNL     1       2.369   4.516  18.253  0.00  0.00    +0.000 A 
ATOM     24  F   UNL     1       3.131   4.869  17.207  0.00  0.00    +0.000 F 
ENDBRANCH  17  18
ENDBRANCH  14  17
ENDBRANCH   1  15
BRANCH  10  25
ATOM     25  C   UNL     1       5.440  14.871  17.811  0.00  0.00    +0.000 C 
BRANCH  25  26
ATOM     26  C   UNL     1       6.418  14.715  18.967  0.00  0.00    +0.000 C 
BRANCH  26  27
ATOM     27  O   UNL     1       7.764  14.685  18.480  0.00  0.00    +0.000 OA
BRANCH  27  28
ATOM     28  C   UNL     1       8.433  13.505  18.696  0.00  0.00    +0.000 A 
ATOM     29  C   UNL     1       8.678  12.526  17.728  0.00  0.00    +0.000 A 
ATOM     30  C   UNL     1       9.364  11.359  18.062  0.00  0.00    +0.000 A 
ATOM     31  C   UNL     1       9.816  11.161  19.364  0.00  0.00    +0.000 A 
ATOM     32  C   UNL     1       9.581  12.134  20.334  0.00  0.00    +0.000 A 
ATOM     33  C   UNL     1       8.893  13.303  19.999  0.00  0.00    +0.000 A 
ENDBRANCH  27  28
ENDBRANCH  26  27
ENDBRANCH  25  26
ENDBRANCH  10  25
TORSDOF 7
ENDMDL
MODEL 6
REMARK VINA RESULT:      -7.8      2.197      3.258
REMARK  Name = 
REMARK  7 active torsions:
REMARK  status: ('A' for Active; 'I' for Inactive)
REMARK    1  A    between atoms: C_2  and  C_3
REMARK    2  A    between atoms: C_3  and  C_4
REMARK    3  A    between atoms: N_11  and  C_12
REMARK    4  A    between atoms: N_21  and  C_22
REMARK    5  A    between atoms: C_22  and  C_23
REMARK    6  A    between atoms: C_23  and  O_24
REMARK    7  A    between atoms: O_24  and  C_25
REMARK                            x       y       z     vdW  Elec       q    Type
REMARK                         _______ _______ _______ _____ _____    ______ ____
ROOT
ATOM      1  C   UNL     1       1.344   9.286  20.338  0.00  0.00    +0.000 C 
ATOM      2  C   UNL     1       0.171   8.616  21.039  0.00  0.00    +0.000 C 
ATOM      3  C   UNL     1       0.770   7.315  21.540  0.00  0.00    +0.000 C 
ATOM      4  N   UNL     1       1.705   6.921  20.492  0.00  0.00    +0.000 N 
ATOM      5  C   UNL     1       1.853   5.618  20.034  0.00  0.00    +0.000 A 
ATOM      6  C   UNL     1       1.450   4.488  20.914  0.00  0.00    +0.000 A 
ATOM      7  C   UNL     1       1.432   3.254  20.418  0.00  0.00    +0.000 A 
ATOM      8  C   UNL     1       1.884   2.998  19.044  0.00  0.00    +0.000 A 
ATOM      9  O   UNL     1       1.819   1.855  18.600  0.00  0.00    +0.000 OA
ATOM     10  N   UNL     1       2.396   4.092  18.365  0.00  0.00    +0.000 N 
ATOM     11  N   UNL     1       2.339   5.392  18.839  0.00  0.00    +0.000 NA
ATOM     12  C   UNL     1       2.102   8.098  19.700  0.00  0.00    +0.000 C 
ENDROOT
BRANCH   1  15
ATOM     13  O   UNL     1       0.838  11.971  20.982  0.00  0.00    +0.000 OA
ATOM     14  C   UNL     1       0.679  11.602  19.821  0.00  0.00    +0.000 C 
ATOM     15  N   UNL     1       0.889  10.306  19.410  0.00  0.00    +0.000 N 
ATOM     16  H   UNL     1       1.064  10.173  18.418  0.00  0.00    +0.000 HD
BRANCH  14  17
ATOM     17  C   UNL     1       0.211  12.548  18.723  0.00  0.00    +0.000 C 
BRANCH  17  18
ATOM     18  C   UNL     1       1.062  13.783  18.579  0.00  0.00    +0.000 A 
ATOM     19  C   UNL     1       0.541  15.055  18.858  0.00  0.00    +0.000 A 
ATOM     20  C   UNL     1       1.335  16.195  18.705  0.00  0.00    +0.000 A 
ATOM     21  C   UNL     1       2.655  16.079  18.272  0.00  0.00    +0.000 A 
ATOM     22  C   UNL     1       3.181  14.823  17.980  0.00  0.00    +0.000 A 
ATOM     23  C   UNL     1       2.382  13.693  18.128  0.00  0.00    +0.000 A 
ATOM     24  F   UNL     1       2.896  12.495  17.809  0.00  0.00    +0.000 F 
ENDBRANCH  17  18
ENDBRANCH  14  17
ENDBRANCH   1  15
BRANCH  10  25
ATOM     25  C   UNL     1       2.956   3.866  17.033  0.00  0.00    +0.000 C 
BRANCH  25  26
ATOM     26  C   UNL     1       4.471   3.718  17.002  0.00  0.00    +0.000 C 
BRANCH  26  27
ATOM     27  O   UNL     1       5.070   4.863  16.386  0.00  0.00    +0.000 OA
BRANCH  27  28
ATOM     28  C   UNL     1       6.057   5.470  17.125  0.00  0.00    +0.000 A 
ATOM     29  C   UNL     1       6.810   4.854  18.127  0.00  0.00    +0.000 A 
ATOM     30  C   UNL     1       7.785   5.571  18.821  0.00  0.00    +0.000 A 
ATOM     31  C   UNL     1       8.019   6.908  18.515  0.00  0.00    +0.000 A 
ATOM     32  C   UNL     1       7.277   7.530  17.512  0.00  0.00    +0.000 A 
ATOM     33  C   UNL     1       6.300   6.811  16.818  0.00  0.00    +0.000 A 
ENDBRANCH  27  28
ENDBRANCH  26  27
ENDBRANCH  25  26
ENDBRANCH  10  25
TORSDOF 7
ENDMDL
MODEL 7
REMARK VINA RESULT:      -7.7      4.615      8.728
REMARK  Name = 
REMARK  7 active torsions:
REMARK  status: ('A' for Active; 'I' for Inactive)
REMARK    1  A    between atoms: C_2  and  C_3
REMARK    2  A    between atoms: C_3  and  C_4
REMARK    3  A    between atoms: N_11  and  C_12
REMARK    4  A    between atoms: N_21  and  C_22
REMARK    5  A    between atoms: C_22  and  C_23
REMARK    6  A    between atoms: C_23  and  O_24
REMARK    7  A    between atoms: O_24  and  C_25
REMARK                            x       y       z     vdW  Elec       q    Type
REMARK                         _______ _______ _______ _____ _____    ______ ____
ROOT
ATOM      1  C   UNL     1       1.075   9.560  18.518  0.00  0.00    +0.000 C 
ATOM      2  C   UNL     1      -0.065  10.081  19.381  0.00  0.00    +0.000 C 
ATOM      3  C   UNL     1      -0.295  11.479  18.836  0.00  0.00    +0.000 C 
ATOM      4  N   UNL     1       1.040  11.957  18.495  0.00  0.00    +0.000 N 
ATOM      5  C   UNL     1       1.493  13.245  18.754  0.00  0.00    +0.000 A 
ATOM      6  C   UNL     1       0.503  14.343  18.924  0.00  0.00    +0.000 A 
ATOM      7  C   UNL     1       0.921  15.536  19.337  0.00  0.00    +0.000 A 
ATOM      8  C   UNL     1       2.354  15.791  19.542  0.00  0.00    +0.000 A 
ATOM      9  O   UNL     1       2.708  16.890  19.962  0.00  0.00    +0.000 OA
ATOM     10  N   UNL     1       3.206  14.754  19.197  0.00  0.00    +0.000 N 
ATOM     11  N   UNL     1       2.776  13.484  18.851  0.00  0.00    +0.000 NA
ATOM     12  C   UNL     1       1.948  10.817  18.287  0.00  0.00    +0.000 C 
ENDROOT
BRANCH   1  15
ATOM     13  O   UNL     1       2.836   7.778  17.252  0.00  0.00    +0.000 OA
ATOM     14  C   UNL     1       2.604   7.629  18.449  0.00  0.00    +0.000 C 
ATOM     15  N   UNL     1       1.747   8.442  19.154  0.00  0.00    +0.000 N 
ATOM     16  H   UNL     1       1.877   8.463  20.162  0.00  0.00    +0.000 HD
BRANCH  14  17
ATOM     17  C   UNL     1       3.232   6.508  19.266  0.00  0.00    +0.000 C 
BRANCH  17  18
ATOM     18  C   UNL     1       2.409   5.247  19.306  0.00  0.00    +0.000 A 
ATOM     19  C   UNL     1       1.655   4.913  20.440  0.00  0.00    +0.000 A 
ATOM     20  C   UNL     1       0.908   3.732  20.472  0.00  0.00    +0.000 A 
ATOM     21  C   UNL     1       0.905   2.873  19.374  0.00  0.00    +0.000 A 
ATOM     22  C   UNL     1       1.659   3.187  18.246  0.00  0.00    +0.000 A 
ATOM     23  C   UNL     1       2.406   4.360  18.225  0.00  0.00    +0.000 A 
ATOM     24  F   UNL     1       3.153   4.630  17.143  0.00  0.00    +0.000 F 
ENDBRANCH  17  18
ENDBRANCH  14  17
ENDBRANCH   1  15
BRANCH  10  25
ATOM     25  C   UNL     1       4.645  14.997  19.284  0.00  0.00    +0.000 C 
BRANCH  25  26
ATOM     26  C   UNL     1       5.394  14.829  17.970  0.00  0.00    +0.000 C 
BRANCH  26  27
ATOM     27  O   UNL     1       6.639  15.535  18.014  0.00  0.00    +0.000 OA
BRANCH  27  28
ATOM     28  C   UNL     1       7.759  14.742  17.946  0.00  0.00    +0.000 A 
ATOM     29  C   UNL     1       9.065  15.163  18.212  0.00  0.00    +0.000 A 
ATOM     30  C   UNL     1      10.131  14.270  18.104  0.00  0.00    +0.000 A 
ATOM     31  C   UNL     1       9.901  12.948  17.735  0.00  0.00    +0.000 A 
ATOM     32  C   UNL     1       8.601  12.517  17.474  0.00  0.00    +0.000 A 
ATOM     33  C   UNL     1       7.534  13.413  17.581  0.00  0.00    +0.000 A 
ENDBRANCH  27  28
ENDBRANCH  26  27
ENDBRANCH  25  26
ENDBRANCH  10  25
TORSDOF 7
ENDMDL
MODEL 8
REMARK VINA RESULT:      -7.7      2.075      3.212
REMARK  Name = 
REMARK  7 active torsions:
REMARK  status: ('A' for Active; 'I' for Inactive)
REMARK    1  A    between atoms: C_2  and  C_3
REMARK    2  A    between atoms: C_3  and  C_4
REMARK    3  A    between atoms: N_11  and  C_12
REMARK    4  A    between atoms: N_21  and  C_22
REMARK    5  A    between atoms: C_22  and  C_23
REMARK    6  A    between atoms: C_23  and  O_24
REMARK    7  A    between atoms: O_24  and  C_25
REMARK                            x       y       z     vdW  Elec       q    Type
REMARK                         _______ _______ _______ _____ _____    ______ ____
ROOT
ATOM      1  C   UNL     1       1.345   9.281  20.364  0.00  0.00    +0.000 C 
ATOM      2  C   UNL     1       0.166   8.623  21.065  0.00  0.00    +0.000 C 
ATOM      3  C   UNL     1       0.756   7.323  21.580  0.00  0.00    +0.000 C 
ATOM      4  N   UNL     1       1.693   6.915  20.540  0.00  0.00    +0.000 N 
ATOM      5  C   UNL     1       1.836   5.607  20.093  0.00  0.00    +0.000 A 
ATOM      6  C   UNL     1       1.423   4.487  20.981  0.00  0.00    +0.000 A 
ATOM      7  C   UNL     1       1.400   3.249  20.496  0.00  0.00    +0.000 A 
ATOM      8  C   UNL     1       1.857   2.979  19.126  0.00  0.00    +0.000 A 
ATOM      9  O   UNL     1       1.788   1.832  18.692  0.00  0.00    +0.000 OA
ATOM     10  N   UNL     1       2.378   4.064  18.440  0.00  0.00    +0.000 N 
ATOM     11  N   UNL     1       2.325   5.368  18.903  0.00  0.00    +0.000 NA
ATOM     12  C   UNL     1       2.100   8.083  19.739  0.00  0.00    +0.000 C 
ENDROOT
BRANCH   1  15
ATOM     13  O   UNL     1       1.277  12.043  20.855  0.00  0.00    +0.000 OA
ATOM     14  C   UNL     1       0.915  11.630  19.757  0.00  0.00    +0.000 C 
ATOM     15  N   UNL     1       0.900  10.295  19.425  0.00  0.00    +0.000 N 
ATOM     16  H   UNL     1       0.919  10.080  18.432  0.00  0.00    +0.000 HD
BRANCH  14  17
ATOM     17  C   UNL     1       0.424  12.563  18.658  0.00  0.00    +0.000 C 
BRANCH  17  18
ATOM     18  C   UNL     1       1.198  13.851  18.561  0.00  0.00    +0.000 A 
ATOM     19  C   UNL     1       2.535  13.859  18.137  0.00  0.00    +0.000 A 
ATOM     20  C   UNL     1       3.249  15.059  18.067  0.00  0.00    +0.000 A 
ATOM     21  C   UNL     1       2.637  16.262  18.417  0.00  0.00    +0.000 A 
ATOM     22  C   UNL     1       1.313  16.266  18.851  0.00  0.00    +0.000 A 
ATOM     23  C   UNL     1       0.612  15.067  18.926  0.00  0.00    +0.000 A 
ATOM     24  F   UNL     1      -0.652  15.086  19.379  0.00  0.00    +0.000 F 
ENDBRANCH  17  18
ENDBRANCH  14  17
ENDBRANCH   1  15
BRANCH  10  25
ATOM     25  C   UNL     1       2.943   3.824  17.113  0.00  0.00    +0.000 C 
BRANCH  25  26
ATOM     26  C   UNL     1       4.464   3.861  17.058  0.00  0.00    +0.000 C 
BRANCH  26  27
ATOM     27  O   UNL     1       4.909   5.074  16.439  0.00  0.00    +0.000 OA
BRANCH  27  28
ATOM     28  C   UNL     1       5.932   5.717  17.093  0.00  0.00    +0.000 A 
ATOM     29  C   UNL     1       6.343   7.031  16.855  0.00  0.00    +0.000 A 
ATOM     30  C   UNL     1       7.403   7.582  17.575  0.00  0.00    +0.000 A 
ATOM     31  C   UNL     1       8.058   6.825  18.543  0.00  0.00    +0.000 A 
ATOM     32  C   UNL     1       7.651   5.515  18.792  0.00  0.00    +0.000 A 
ATOM     33  C   UNL     1       6.590   4.965  18.069  0.00  0.00    +0.000 A 
ENDBRANCH  27  28
ENDBRANCH  26  27
ENDBRANCH  25  26
ENDBRANCH  10  25
TORSDOF 7
ENDMDL
MODEL 9
REMARK VINA RESULT:      -7.6      3.476      9.802
REMARK  Name = 
REMARK  7 active torsions:
REMARK  status: ('A' for Active; 'I' for Inactive)
REMARK    1  A    between atoms: C_2  and  C_3
REMARK    2  A    between atoms: C_3  and  C_4
REMARK    3  A    between atoms: N_11  and  C_12
REMARK    4  A    between atoms: N_21  and  C_22
REMARK    5  A    between atoms: C_22  and  C_23
REMARK    6  A    between atoms: C_23  and  O_24
REMARK    7  A    between atoms: O_24  and  C_25
REMARK                            x       y       z     vdW  Elec       q    Type
REMARK                         _______ _______ _______ _____ _____    ______ ____
ROOT
ATOM      1  C   UNL     1       3.513   5.877  17.827  0.00  0.00    +0.000 C 
ATOM      2  C   UNL     1       3.976   5.639  19.258  0.00  0.00    +0.000 C 
ATOM      3  C   UNL     1       2.739   5.961  20.076  0.00  0.00    +0.000 C 
ATOM      4  N   UNL     1       2.116   7.072  19.366  0.00  0.00    +0.000 N 
ATOM      5  C   UNL     1       1.562   8.180  19.994  0.00  0.00    +0.000 A 
ATOM      6  C   UNL     1       1.119   8.068  21.410  0.00  0.00    +0.000 A 
ATOM      7  C   UNL     1       0.748   9.166  22.063  0.00  0.00    +0.000 A 
ATOM      8  C   UNL     1       0.694  10.460  21.370  0.00  0.00    +0.000 A 
ATOM      9  O   UNL     1       0.385  11.463  22.008  0.00  0.00    +0.000 OA
ATOM     10  N   UNL     1       0.965  10.428  20.012  0.00  0.00    +0.000 N 
ATOM     11  N   UNL     1       1.436   9.310  19.344  0.00  0.00    +0.000 NA
ATOM     12  C   UNL     1       2.556   7.085  17.960  0.00  0.00    +0.000 C 
ENDROOT
BRANCH   1  15
ATOM     13  O   UNL     1       5.299   3.877  16.997  0.00  0.00    +0.000 OA
ATOM     14  C   UNL     1       5.456   5.020  16.577  0.00  0.00    +0.000 C 
ATOM     15  N   UNL     1       4.641   6.070  16.935  0.00  0.00    +0.000 N 
ATOM     16  H   UNL     1       4.629   6.864  16.301  0.00  0.00    +0.000 HD
BRANCH  14  17
ATOM     17  C   UNL     1       6.587   5.391  15.627  0.00  0.00    +0.000 C 
BRANCH  17  18
ATOM     18  C   UNL     1       6.475   4.754  14.266  0.00  0.00    +0.000 A 
ATOM     19  C   UNL     1       5.393   3.921  13.947  0.00  0.00    +0.000 A 
ATOM     20  C   UNL     1       5.307   3.323  12.687  0.00  0.00    +0.000 A 
ATOM     21  C   UNL     1       6.298   3.549  11.733  0.00  0.00    +0.000 A 
ATOM     22  C   UNL     1       7.384   4.364  12.042  0.00  0.00    +0.000 A 
ATOM     23  C   UNL     1       7.467   4.950  13.301  0.00  0.00    +0.000 A 
ATOM     24  F   UNL     1       8.537   5.705  13.592  0.00  0.00    +0.000 F 
ENDBRANCH  17  18
ENDBRANCH  14  17
ENDBRANCH   1  15
BRANCH  10  25
ATOM     25  C   UNL     1       0.821  11.673  19.259  0.00  0.00    +0.000 C 
BRANCH  25  26
ATOM     26  C   UNL     1      -0.343  11.687  18.278  0.00  0.00    +0.000 C 
BRANCH  26  27
ATOM     27  O   UNL     1      -1.401  10.845  18.751  0.00  0.00    +0.000 OA
BRANCH  27  28
ATOM     28  C   UNL     1      -2.651  11.162  18.275  0.00  0.00    +0.000 A 
ATOM     29  C   UNL     1      -3.632  11.861  18.985  0.00  0.00    +0.000 A 
ATOM     30  C   UNL     1      -4.873  12.122  18.405  0.00  0.00    +0.000 A 
ATOM     31  C   UNL     1      -5.143  11.692  17.108  0.00  0.00    +0.000 A 
ATOM     32  C   UNL     1      -4.168  11.001  16.390  0.00  0.00    +0.000 A 
ATOM     33  C   UNL     1      -2.926  10.739  16.973  0.00  0.00    +0.000 A 
ENDBRANCH  27  28
ENDBRANCH  26  27
ENDBRANCH  25  26
ENDBRANCH  10  25
TORSDOF 7
ENDMDL
