MODEL 1
REMARK VINA RESULT:      -8.4      0.000      0.000
REMARK  Name = 
REMARK  6 active torsions:
REMARK  status: ('A' for Active; 'I' for Inactive)
REMARK    1  A    between atoms: C_1  and  C_2
REMARK    2  A    between atoms: N_4  and  C_5
REMARK    3  A    between atoms: C_8  and  C_9
REMARK    4  A    between atoms: N_12  and  C_13
REMARK    5  A    between atoms: C_13  and  C_14
REMARK    6  A    between atoms: C_14  and  C_16
REMARK                            x       y       z     vdW  Elec       q    Type
REMARK                         _______ _______ _______ _____ _____    ______ ____
ROOT
ATOM      1  C   UNL     1       2.892   6.020  19.025  0.00  0.00    +0.000 A 
ATOM      2  N   UNL     1       3.212   5.170  20.056  0.00  0.00    +0.000 NA
ATOM      3  N   UNL     1       3.800   4.110  19.510  0.00  0.00    +0.000 NA
ATOM      4  N   UNL     1       3.835   4.379  18.197  0.00  0.00    +0.000 N 
ATOM      5  N   UNL     1       3.242   5.524  17.826  0.00  0.00    +0.000 NA
ENDROOT
BRANCH   1   9
ATOM      6  C   UNL     1       0.984   9.838  19.413  0.00  0.00    +0.000 A 
ATOM      7  C   UNL     1       1.550   9.429  18.206  0.00  0.00    +0.000 A 
ATOM      8  C   UNL     1       2.170   8.185  18.096  0.00  0.00    +0.000 A 
ATOM      9  C   UNL     1       2.248   7.314  19.191  0.00  0.00    +0.000 A 
ATOM     10  C   UNL     1       1.718   7.728  20.417  0.00  0.00    +0.000 A 
ATOM     11  C   UNL     1       1.096   8.980  20.525  0.00  0.00    +0.000 A 
ATOM     12 CL   UNL     1       0.440   9.435  22.061  0.00  0.00    +0.000 Cl
BRANCH   6  16
ATOM     13  C   UNL     1      -1.333  12.821  19.324  0.00  0.00    +0.000 C 
ATOM     14  C   UNL     1      -0.962  11.377  19.121  0.00  0.00    +0.000 C 
ATOM     15  O   UNL     1      -1.772  10.590  18.644  0.00  0.00    +0.000 OA
ATOM     16  N   UNL     1       0.324  11.087  19.542  0.00  0.00    +0.000 N 
ATOM     17  H   UNL     1       0.810  11.783  20.098  0.00  0.00    +0.000 HD
ENDBRANCH   6  16
ENDBRANCH   1   9
BRANCH   4  18
ATOM     18  C   UNL     1       4.387   3.481  17.216  0.00  0.00    +0.000 C 
BRANCH  18  19
ATOM     19  C   UNL     1       5.577   4.092  16.529  0.00  0.00    +0.000 C 
ATOM     20  O   UNL     1       5.861   3.792  15.367  0.00  0.00    +0.000 OA
BRANCH  19  21
ATOM     21  C   UNL     1       6.416   5.118  17.223  0.00  0.00    +0.000 A 
ATOM     22  C   UNL     1       7.189   4.848  18.360  0.00  0.00    +0.000 A 
ATOM     23  C   UNL     1       7.984   5.850  18.928  0.00  0.00    +0.000 A 
ATOM     24  C   UNL     1       7.992   7.123  18.372  0.00  0.00    +0.000 A 
ATOM     25  F   UNL     1       8.754   8.079  18.921  0.00  0.00    +0.000 F 
ATOM     26  C   UNL     1       7.224   7.417  17.254  0.00  0.00    +0.000 A 
ATOM     27  C   UNL     1       6.440   6.413  16.677  0.00  0.00    +0.000 A 
ENDBRANCH  19  21
ENDBRANCH  18  19
ENDBRANCH   4  18
TORSDOF 5
ENDMDL
MODEL 2
REMARK VINA RESULT:      -8.3      1.031      1.031
REMARK  Name = 
REMARK  6 active torsions:
REMARK  status: ('A' for Active; 'I' for Inactive)
REMARK    1  A    between atoms: C_1  and  C_2
REMARK    2  A    between atoms: N_4  and  C_5
REMARK    3  A    between atoms: C_8  and  C_9
REMARK    4  A    between atoms: N_12  and  C_13
REMARK    5  A    between atoms: C_13  and  C_14
REMARK    6  A    between atoms: C_14  and  C_16
REMARK                            x       y       z     vdW  Elec       q    Type
REMARK                         _______ _______ _______ _____ _____    ______ ____
ROOT
ATOM      1  C   UNL     1       2.878   6.127  18.900  0.00  0.00    +0.000 A 
ATOM      2  N   UNL     1       3.208   5.322  19.964  0.00  0.00    +0.000 NA
ATOM      3  N   UNL     1       3.795   4.241  19.459  0.00  0.00    +0.000 NA
ATOM      4  N   UNL     1       3.819   4.453  18.135  0.00  0.00    +0.000 N 
ATOM      5  N   UNL     1       3.220   5.580  17.721  0.00  0.00    +0.000 NA
ENDROOT
BRANCH   1   9
ATOM      6  C   UNL     1       0.965   9.955  19.140  0.00  0.00    +0.000 A 
ATOM      7  C   UNL     1       1.529   9.498  17.948  0.00  0.00    +0.000 A 
ATOM      8  C   UNL     1       2.150   8.251  17.887  0.00  0.00    +0.000 A 
ATOM      9  C   UNL     1       2.233   7.426  19.016  0.00  0.00    +0.000 A 
ATOM     10  C   UNL     1       1.707   7.888  20.225  0.00  0.00    +0.000 A 
ATOM     11  C   UNL     1       1.083   9.143  20.285  0.00  0.00    +0.000 A 
ATOM     12 CL   UNL     1       0.431   9.659  21.804  0.00  0.00    +0.000 Cl
BRANCH   6  16
ATOM     13  C   UNL     1      -0.080  13.565  19.520  0.00  0.00    +0.000 C 
ATOM     14  C   UNL     1       0.910  12.440  19.381  0.00  0.00    +0.000 C 
ATOM     15  O   UNL     1       2.115  12.668  19.399  0.00  0.00    +0.000 OA
ATOM     16  N   UNL     1       0.304  11.206  19.220  0.00  0.00    +0.000 N 
ATOM     17  H   UNL     1      -0.692  11.189  19.025  0.00  0.00    +0.000 HD
ENDBRANCH   6  16
ENDBRANCH   1   9
BRANCH   4  18
ATOM     18  C   UNL     1       4.365   3.516  17.189  0.00  0.00    +0.000 C 
BRANCH  18  19
ATOM     19  C   UNL     1       5.608   4.059  16.542  0.00  0.00    +0.000 C 
ATOM     20  O   UNL     1       5.948   3.693  15.414  0.00  0.00    +0.000 OA
BRANCH  19  21
ATOM     21  C   UNL     1       6.439   5.096  17.232  0.00  0.00    +0.000 A 
ATOM     22  C   UNL     1       7.192   4.843  18.387  0.00  0.00    +0.000 A 
ATOM     23  C   UNL     1       7.980   5.854  18.950  0.00  0.00    +0.000 A 
ATOM     24  C   UNL     1       8.000   7.117  18.373  0.00  0.00    +0.000 A 
ATOM     25  F   UNL     1       8.754   8.081  18.918  0.00  0.00    +0.000 F 
ATOM     26  C   UNL     1       7.251   7.393  17.237  0.00  0.00    +0.000 A 
ATOM     27  C   UNL     1       6.474   6.381  16.664  0.00  0.00    +0.000 A 
ENDBRANCH  19  21
ENDBRANCH  18  19
ENDBRANCH   4  18
TORSDOF 5
ENDMDL
MODEL 3
REMARK VINA RESULT:      -8.3      5.553      7.392
REMARK  Name = 
REMARK  6 active torsions:
REMARK  status: ('A' for Active; 'I' for Inactive)
REMARK    1  A    between atoms: C_1  and  C_2
REMARK    2  A    between atoms: N_4  and  C_5
REMARK    3  A    between atoms: C_8  and  C_9
REMARK    4  A    between atoms: N_12  and  C_13
REMARK    5  A    between atoms: C_13  and  C_14
REMARK    6  A    between atoms: C_14  and  C_16
REMARK                            x       y       z     vdW  Elec       q    Type
REMARK                         _______ _______ _______ _____ _____    ______ ____
ROOT
ATOM      1  C   UNL     1       8.191   8.390  18.143  0.00  0.00    +0.000 A 
ATOM      2  N   UNL     1       8.432   7.377  19.040  0.00  0.00    +0.000 NA
ATOM      3  N   UNL     1       7.933   6.267  18.508  0.00  0.00    +0.000 NA
ATOM      4  N   UNL     1       7.447   6.648  17.317  0.00  0.00    +0.000 N 
ATOM      5  N   UNL     1       7.530   7.961  17.055  0.00  0.00    +0.000 NA
ENDROOT
BRANCH   1   9
ATOM      6  C   UNL     1       9.305  12.498  18.645  0.00  0.00    +0.000 A 
ATOM      7  C   UNL     1       8.428  12.102  17.636  0.00  0.00    +0.000 A 
ATOM      8  C   UNL     1       8.077  10.761  17.484  0.00  0.00    +0.000 A 
ATOM      9  C   UNL     1       8.597   9.775  18.332  0.00  0.00    +0.000 A 
ATOM     10  C   UNL     1       9.508  10.153  19.322  0.00  0.00    +0.000 A 
ATOM     11  C   UNL     1       9.860  11.502  19.473  0.00  0.00    +0.000 A 
ATOM     12 CL   UNL     1      10.977  11.918  20.728  0.00  0.00    +0.000 Cl
BRANCH   6  16
ATOM     13  C   UNL     1      10.812  15.962  18.646  0.00  0.00    +0.000 C 
ATOM     14  C   UNL     1      10.623  14.559  18.137  0.00  0.00    +0.000 C 
ATOM     15  O   UNL     1      11.278  14.150  17.185  0.00  0.00    +0.000 OA
ATOM     16  N   UNL     1       9.656  13.858  18.838  0.00  0.00    +0.000 N 
ATOM     17  H   UNL     1       9.055  14.380  19.468  0.00  0.00    +0.000 HD
ENDBRANCH   6  16
ENDBRANCH   1   9
BRANCH   4  18
ATOM     18  C   UNL     1       6.797   5.750  16.399  0.00  0.00    +0.000 C 
BRANCH  18  19
ATOM     19  C   UNL     1       5.373   6.162  16.151  0.00  0.00    +0.000 C 
ATOM     20  O   UNL     1       5.069   6.828  15.158  0.00  0.00    +0.000 OA
BRANCH  19  21
ATOM     21  C   UNL     1       4.281   5.733  17.080  0.00  0.00    +0.000 A 
ATOM     22  C   UNL     1       3.863   4.403  17.223  0.00  0.00    +0.000 A 
ATOM     23  C   UNL     1       2.864   4.073  18.147  0.00  0.00    +0.000 A 
ATOM     24  C   UNL     1       2.273   5.070  18.911  0.00  0.00    +0.000 A 
ATOM     25  F   UNL     1       1.316   4.748  19.792  0.00  0.00    +0.000 F 
ATOM     26  C   UNL     1       2.662   6.396  18.776  0.00  0.00    +0.000 A 
ATOM     27  C   UNL     1       3.669   6.727  17.864  0.00  0.00    +0.000 A 
ENDBRANCH  19  21
ENDBRANCH  18  19
ENDBRANCH   4  18
TORSDOF 5
ENDMDL
MODEL 4
REMARK VINA RESULT:      -8.3      1.100      1.447
REMARK  Name = 
REMARK  6 active torsions:
REMARK  status: ('A' for Active; 'I' for Inactive)
REMARK    1  A    between atoms: C_1  and  C_2
REMARK    2  A    between atoms: N_4  and  C_5
REMARK    3  A    between atoms: C_8  and  C_9
REMARK    4  A    between atoms: N_12  and  C_13
REMARK    5  A    between atoms: C_13  and  C_14
REMARK    6  A    between atoms: C_14  and  C_16
REMARK                            x       y       z     vdW  Elec       q    Type
REMARK                         _______ _______ _______ _____ _____    ______ ____
ROOT
ATOM      1  C   UNL     1       2.854   6.067  19.087  0.00  0.00    +0.000 A 
ATOM      2  N   UNL     1       3.350   5.245  20.071  0.00  0.00    +0.000 NA
ATOM      3  N   UNL     1       3.906   4.205  19.458  0.00  0.00    +0.000 NA
ATOM      4  N   UNL     1       3.750   4.457  18.150  0.00  0.00    +0.000 N 
ATOM      5  N   UNL     1       3.060   5.570  17.856  0.00  0.00    +0.000 NA
ENDROOT
BRANCH   1   9
ATOM      6  C   UNL     1       0.862   9.811  19.703  0.00  0.00    +0.000 A 
ATOM      7  C   UNL     1       1.462   9.500  18.483  0.00  0.00    +0.000 A 
ATOM      8  C   UNL     1       2.109   8.278  18.299  0.00  0.00    +0.000 A 
ATOM      9  C   UNL     1       2.181   7.333  19.331  0.00  0.00    +0.000 A 
ATOM     10  C   UNL     1       1.618   7.648  20.570  0.00  0.00    +0.000 A 
ATOM     11  C   UNL     1       0.968   8.878  20.753  0.00  0.00    +0.000 A 
ATOM     12 CL   UNL     1       0.271   9.209  22.303  0.00  0.00    +0.000 Cl
BRANCH   6  16
ATOM     13  C   UNL     1      -0.389  13.218  20.751  0.00  0.00    +0.000 C 
ATOM     14  C   UNL     1       0.618  12.103  20.665  0.00  0.00    +0.000 C 
ATOM     15  O   UNL     1       1.706  12.206  21.221  0.00  0.00    +0.000 OA
ATOM     16  N   UNL     1       0.175  11.034  19.906  0.00  0.00    +0.000 N 
ATOM     17  H   UNL     1      -0.660  11.166  19.343  0.00  0.00    +0.000 HD
ENDBRANCH   6  16
ENDBRANCH   1   9
BRANCH   4  18
ATOM     18  C   UNL     1       4.203   3.572  17.109  0.00  0.00    +0.000 C 
BRANCH  18  19
ATOM     19  C   UNL     1       5.348   4.174  16.344  0.00  0.00    +0.000 C 
ATOM     20  O   UNL     1       5.550   3.874  15.165  0.00  0.00    +0.000 OA
BRANCH  19  21
ATOM     21  C   UNL     1       6.242   5.192  16.981  0.00  0.00    +0.000 A 
ATOM     22  C   UNL     1       6.229   6.553  16.647  0.00  0.00    +0.000 A 
ATOM     23  C   UNL     1       7.064   7.452  17.321  0.00  0.00    +0.000 A 
ATOM     24  C   UNL     1       7.923   6.990  18.310  0.00  0.00    +0.000 A 
ATOM     25  F   UNL     1       8.721   7.855  18.949  0.00  0.00    +0.000 F 
ATOM     26  C   UNL     1       7.961   5.644  18.648  0.00  0.00    +0.000 A 
ATOM     27  C   UNL     1       7.117   4.746  17.986  0.00  0.00    +0.000 A 
ENDBRANCH  19  21
ENDBRANCH  18  19
ENDBRANCH   4  18
TORSDOF 5
ENDMDL
MODEL 5
REMARK VINA RESULT:      -8.2      6.002      7.832
REMARK  Name = 
REMARK  6 active torsions:
REMARK  status: ('A' for Active; 'I' for Inactive)
REMARK    1  A    between atoms: C_1  and  C_2
REMARK    2  A    between atoms: N_4  and  C_5
REMARK    3  A    between atoms: C_8  and  C_9
REMARK    4  A    between atoms: N_12  and  C_13
REMARK    5  A    between atoms: C_13  and  C_14
REMARK    6  A    between atoms: C_14  and  C_16
REMARK                            x       y       z     vdW  Elec       q    Type
REMARK                         _______ _______ _______ _____ _____    ______ ____
ROOT
ATOM      1  C   UNL     1       8.528   8.961  18.395  0.00  0.00    +0.000 A 
ATOM      2  N   UNL     1       7.710   8.832  17.298  0.00  0.00    +0.000 NA
ATOM      3  N   UNL     1       7.302   7.567  17.271  0.00  0.00    +0.000 NA
ATOM      4  N   UNL     1       7.860   7.006  18.353  0.00  0.00    +0.000 N 
ATOM      5  N   UNL     1       8.672   7.804  19.063  0.00  0.00    +0.000 NA
ENDROOT
BRANCH   1   9
ATOM      6  C   UNL     1      10.444  12.569  19.689  0.00  0.00    +0.000 A 
ATOM      7  C   UNL     1       9.957  11.637  20.605  0.00  0.00    +0.000 A 
ATOM      8  C   UNL     1       9.333  10.469  20.169  0.00  0.00    +0.000 A 
ATOM      9  C   UNL     1       9.172  10.200  18.803  0.00  0.00    +0.000 A 
ATOM     10  C   UNL     1       9.621  11.144  17.875  0.00  0.00    +0.000 A 
ATOM     11  C   UNL     1      10.248  12.319  18.318  0.00  0.00    +0.000 A 
ATOM     12 CL   UNL     1      10.802  13.445  17.125  0.00  0.00    +0.000 Cl
BRANCH   6  16
ATOM     13  C   UNL     1      11.515  16.058  20.667  0.00  0.00    +0.000 C 
ATOM     14  C   UNL     1      10.519  14.988  20.310  0.00  0.00    +0.000 C 
ATOM     15  O   UNL     1       9.324  15.251  20.240  0.00  0.00    +0.000 OA
ATOM     16  N   UNL     1      11.107  13.751  20.109  0.00  0.00    +0.000 N 
ATOM     17  H   UNL     1      12.074  13.633  20.393  0.00  0.00    +0.000 HD
ENDBRANCH   6  16
ENDBRANCH   1   9
BRANCH   4  18
ATOM     18  C   UNL     1       7.687   5.622  18.710  0.00  0.00    +0.000 C 
BRANCH  18  19
ATOM     19  C   UNL     1       6.924   4.878  17.650  0.00  0.00    +0.000 C 
ATOM     20  O   UNL     1       7.502   4.396  16.673  0.00  0.00    +0.000 OA
BRANCH  19  21
ATOM     21  C   UNL     1       5.448   4.664  17.781  0.00  0.00    +0.000 A 
ATOM     22  C   UNL     1       4.685   3.939  16.856  0.00  0.00    +0.000 A 
ATOM     23  C   UNL     1       3.316   3.743  17.071  0.00  0.00    +0.000 A 
ATOM     24  C   UNL     1       2.708   4.287  18.195  0.00  0.00    +0.000 A 
ATOM     25  F   UNL     1       1.397   4.098  18.394  0.00  0.00    +0.000 F 
ATOM     26  C   UNL     1       3.442   5.020  19.118  0.00  0.00    +0.000 A 
ATOM     27  C   UNL     1       4.813   5.205  18.913  0.00  0.00    +0.000 A 
ENDBRANCH  19  21
ENDBRANCH  18  19
ENDBRANCH   4  18
TORSDOF 5
ENDMDL
MODEL 6
REMARK VINA RESULT:      -8.1      0.379      1.020
REMARK  Name = 
REMARK  6 active torsions:
REMARK  status: ('A' for Active; 'I' for Inactive)
REMARK    1  A    between atoms: C_1  and  C_2
REMARK    2  A    between atoms: N_4  and  C_5
REMARK    3  A    between atoms: C_8  and  C_9
REMARK    4  A    between atoms: N_12  and  C_13
REMARK    5  A    between atoms: C_13  and  C_14
REMARK    6  A    between atoms: C_14  and  C_16
REMARK                            x       y       z     vdW  Elec       q    Type
REMARK                         _______ _______ _______ _____ _____    ______ ____
ROOT
ATOM      1  C   UNL     1       2.684   5.979  19.396  0.00  0.00    +0.000 A 
ATOM      2  N   UNL     1       2.776   5.046  20.401  0.00  0.00    +0.000 NA
ATOM      3  N   UNL     1       3.400   3.990  19.888  0.00  0.00    +0.000 NA
ATOM      4  N   UNL     1       3.678   4.339  18.624  0.00  0.00    +0.000 N 
ATOM      5  N   UNL     1       3.215   5.540  18.242  0.00  0.00    +0.000 NA
ENDROOT
BRANCH   1   9
ATOM      6  C   UNL     1       0.911   9.866  19.731  0.00  0.00    +0.000 A 
ATOM      7  C   UNL     1       1.514   9.443  18.547  0.00  0.00    +0.000 A 
ATOM      8  C   UNL     1       2.089   8.176  18.454  0.00  0.00    +0.000 A 
ATOM      9  C   UNL     1       2.084   7.296  19.545  0.00  0.00    +0.000 A 
ATOM     10  C   UNL     1       1.517   7.722  20.749  0.00  0.00    +0.000 A 
ATOM     11  C   UNL     1       0.940   8.997  20.839  0.00  0.00    +0.000 A 
ATOM     12 CL   UNL     1       0.235   9.468  22.349  0.00  0.00    +0.000 Cl
BRANCH   6  16
ATOM     13  C   UNL     1      -1.262  12.950  19.533  0.00  0.00    +0.000 C 
ATOM     14  C   UNL     1      -0.936  11.497  19.319  0.00  0.00    +0.000 C 
ATOM     15  O   UNL     1      -1.732  10.760  18.748  0.00  0.00    +0.000 OA
ATOM     16  N   UNL     1       0.295  11.138  19.841  0.00  0.00    +0.000 N 
ATOM     17  H   UNL     1       0.759  11.797  20.458  0.00  0.00    +0.000 HD
ENDBRANCH   6  16
ENDBRANCH   1   9
BRANCH   4  18
ATOM     18  C   UNL     1       4.349   3.475  17.689  0.00  0.00    +0.000 C 
BRANCH  18  19
ATOM     19  C   UNL     1       5.212   4.264  16.743  0.00  0.00    +0.000 C 
ATOM     20  O   UNL     1       5.118   4.111  15.523  0.00  0.00    +0.000 OA
BRANCH  19  21
ATOM     21  C   UNL     1       6.172   5.289  17.260  0.00  0.00    +0.000 A 
ATOM     22  C   UNL     1       6.254   6.596  16.761  0.00  0.00    +0.000 A 
ATOM     23  C   UNL     1       7.148   7.513  17.327  0.00  0.00    +0.000 A 
ATOM     24  C   UNL     1       7.971   7.118  18.374  0.00  0.00    +0.000 A 
ATOM     25  F   UNL     1       8.826   7.999  18.910  0.00  0.00    +0.000 F 
ATOM     26  C   UNL     1       7.917   5.824  18.875  0.00  0.00    +0.000 A 
ATOM     27  C   UNL     1       7.014   4.911  18.320  0.00  0.00    +0.000 A 
ENDBRANCH  19  21
ENDBRANCH  18  19
ENDBRANCH   4  18
TORSDOF 5
ENDMDL
MODEL 7
REMARK VINA RESULT:      -8.1      2.330      2.795
REMARK  Name = 
REMARK  6 active torsions:
REMARK  status: ('A' for Active; 'I' for Inactive)
REMARK    1  A    between atoms: C_1  and  C_2
REMARK    2  A    between atoms: N_4  and  C_5
REMARK    3  A    between atoms: C_8  and  C_9
REMARK    4  A    between atoms: N_12  and  C_13
REMARK    5  A    between atoms: C_13  and  C_14
REMARK    6  A    between atoms: C_14  and  C_16
REMARK                            x       y       z     vdW  Elec       q    Type
REMARK                         _______ _______ _______ _____ _____    ______ ____
ROOT
ATOM      1  C   UNL     1       2.255   6.519  19.897  0.00  0.00    +0.000 A 
ATOM      2  N   UNL     1       1.655   5.624  20.749  0.00  0.00    +0.000 NA
ATOM      3  N   UNL     1       2.367   4.503  20.691  0.00  0.00    +0.000 NA
ATOM      4  N   UNL     1       3.368   4.779  19.841  0.00  0.00    +0.000 N 
ATOM      5  N   UNL     1       3.325   5.995  19.276  0.00  0.00    +0.000 NA
ENDROOT
BRANCH   1   9
ATOM      6  C   UNL     1       0.919  10.523  19.151  0.00  0.00    +0.000 A 
ATOM      7  C   UNL     1       1.593   9.789  18.175  0.00  0.00    +0.000 A 
ATOM      8  C   UNL     1       2.023   8.488  18.434  0.00  0.00    +0.000 A 
ATOM      9  C   UNL     1       1.799   7.884  19.678  0.00  0.00    +0.000 A 
ATOM     10  C   UNL     1       1.160   8.622  20.677  0.00  0.00    +0.000 A 
ATOM     11  C   UNL     1       0.728   9.931  20.414  0.00  0.00    +0.000 A 
ATOM     12 CL   UNL     1      -0.076  10.794  21.682  0.00  0.00    +0.000 Cl
BRANCH   6  16
ATOM     13  C   UNL     1       0.361  14.240  18.772  0.00  0.00    +0.000 C 
ATOM     14  C   UNL     1       1.182  13.003  19.020  0.00  0.00    +0.000 C 
ATOM     15  O   UNL     1       2.377  13.093  19.277  0.00  0.00    +0.000 OA
ATOM     16  N   UNL     1       0.447  11.836  18.902  0.00  0.00    +0.000 N 
ATOM     17  H   UNL     1      -0.479  11.898  18.491  0.00  0.00    +0.000 HD
ENDBRANCH   6  16
ENDBRANCH   1   9
BRANCH   4  18
ATOM     18  C   UNL     1       4.385   3.828  19.475  0.00  0.00    +0.000 C 
BRANCH  18  19
ATOM     19  C   UNL     1       5.599   4.519  18.920  0.00  0.00    +0.000 C 
ATOM     20  O   UNL     1       6.411   5.072  19.666  0.00  0.00    +0.000 OA
BRANCH  19  21
ATOM     21  C   UNL     1       5.878   4.509  17.449  0.00  0.00    +0.000 A 
ATOM     22  C   UNL     1       4.896   4.285  16.475  0.00  0.00    +0.000 A 
ATOM     23  C   UNL     1       5.226   4.336  15.116  0.00  0.00    +0.000 A 
ATOM     24  C   UNL     1       6.537   4.591  14.732  0.00  0.00    +0.000 A 
ATOM     25  F   UNL     1       6.847   4.636  13.430  0.00  0.00    +0.000 F 
ATOM     26  C   UNL     1       7.528   4.802  15.680  0.00  0.00    +0.000 A 
ATOM     27  C   UNL     1       7.198   4.766  17.039  0.00  0.00    +0.000 A 
ENDBRANCH  19  21
ENDBRANCH  18  19
ENDBRANCH   4  18
TORSDOF 5
ENDMDL
MODEL 8
REMARK VINA RESULT:      -8.0      1.182      1.515
REMARK  Name = 
REMARK  6 active torsions:
REMARK  status: ('A' for Active; 'I' for Inactive)
REMARK    1  A    between atoms: C_1  and  C_2
REMARK    2  A    between atoms: N_4  and  C_5
REMARK    3  A    between atoms: C_8  and  C_9
REMARK    4  A    between atoms: N_12  and  C_13
REMARK    5  A    between atoms: C_13  and  C_14
REMARK    6  A    between atoms: C_14  and  C_16
REMARK                            x       y       z     vdW  Elec       q    Type
REMARK                         _______ _______ _______ _____ _____    ______ ____
ROOT
ATOM      1  C   UNL     1       2.618   6.279  19.186  0.00  0.00    +0.000 A 
ATOM      2  N   UNL     1       2.586   5.445  20.278  0.00  0.00    +0.000 NA
ATOM      3  N   UNL     1       3.221   4.331  19.927  0.00  0.00    +0.000 NA
ATOM      4  N   UNL     1       3.627   4.552  18.669  0.00  0.00    +0.000 N 
ATOM      5  N   UNL     1       3.241   5.720  18.135  0.00  0.00    +0.000 NA
ENDROOT
BRANCH   1   9
ATOM      6  C   UNL     1       0.936  10.216  18.987  0.00  0.00    +0.000 A 
ATOM      7  C   UNL     1       1.535   9.625  17.874  0.00  0.00    +0.000 A 
ATOM      8  C   UNL     1       2.080   8.344  17.956  0.00  0.00    +0.000 A 
ATOM      9  C   UNL     1       2.049   7.618  19.153  0.00  0.00    +0.000 A 
ATOM     10  C   UNL     1       1.487   8.214  20.285  0.00  0.00    +0.000 A 
ATOM     11  C   UNL     1       0.940   9.503  20.201  0.00  0.00    +0.000 A 
ATOM     12 CL   UNL     1       0.239  10.186  21.629  0.00  0.00    +0.000 Cl
BRANCH   6  16
ATOM     13  C   UNL     1       0.121  13.899  18.785  0.00  0.00    +0.000 C 
ATOM     14  C   UNL     1       1.023  12.697  18.708  0.00  0.00    +0.000 C 
ATOM     15  O   UNL     1       2.216  12.831  18.460  0.00  0.00    +0.000 OA
ATOM     16  N   UNL     1       0.351  11.506  18.921  0.00  0.00    +0.000 N 
ATOM     17  H   UNL     1      -0.664  11.526  18.917  0.00  0.00    +0.000 HD
ENDBRANCH   6  16
ENDBRANCH   1   9
BRANCH   4  18
ATOM     18  C   UNL     1       4.356   3.587  17.887  0.00  0.00    +0.000 C 
BRANCH  18  19
ATOM     19  C   UNL     1       5.285   4.263  16.917  0.00  0.00    +0.000 C 
ATOM     20  O   UNL     1       5.246   3.999  15.714  0.00  0.00    +0.000 OA
BRANCH  19  21
ATOM     21  C   UNL     1       6.247   5.310  17.385  0.00  0.00    +0.000 A 
ATOM     22  C   UNL     1       6.394   6.560  16.768  0.00  0.00    +0.000 A 
ATOM     23  C   UNL     1       7.284   7.505  17.292  0.00  0.00    +0.000 A 
ATOM     24  C   UNL     1       8.038   7.195  18.416  0.00  0.00    +0.000 A 
ATOM     25  F   UNL     1       8.890   8.103  18.911  0.00  0.00    +0.000 F 
ATOM     26  C   UNL     1       7.919   5.958  19.035  0.00  0.00    +0.000 A 
ATOM     27  C   UNL     1       7.020   5.018  18.522  0.00  0.00    +0.000 A 
ENDBRANCH  19  21
ENDBRANCH  18  19
ENDBRANCH   4  18
TORSDOF 5
ENDMDL
MODEL 9
REMARK VINA RESULT:      -8.0      5.422      6.993
REMARK  Name = 
REMARK  6 active torsions:
REMARK  status: ('A' for Active; 'I' for Inactive)
REMARK    1  A    between atoms: C_1  and  C_2
REMARK    2  A    between atoms: N_4  and  C_5
REMARK    3  A    between atoms: C_8  and  C_9
REMARK    4  A    between atoms: N_12  and  C_13
REMARK    5  A    between atoms: C_13  and  C_14
REMARK    6  A    between atoms: C_14  and  C_16
REMARK                            x       y       z     vdW  Elec       q    Type
REMARK                         _______ _______ _______ _____ _____    ______ ____
ROOT
ATOM      1  C   UNL     1       8.194   8.373  18.134  0.00  0.00    +0.000 A 
ATOM      2  N   UNL     1       8.430   7.358  19.030  0.00  0.00    +0.000 NA
ATOM      3  N   UNL     1       7.936   6.248  18.491  0.00  0.00    +0.000 NA
ATOM      4  N   UNL     1       7.458   6.632  17.299  0.00  0.00    +0.000 N 
ATOM      5  N   UNL     1       7.541   7.946  17.040  0.00  0.00    +0.000 NA
ENDROOT
BRANCH   1   9
ATOM      6  C   UNL     1       9.301  12.481  18.654  0.00  0.00    +0.000 A 
ATOM      7  C   UNL     1       8.440  12.084  17.630  0.00  0.00    +0.000 A 
ATOM      8  C   UNL     1       8.091  10.744  17.473  0.00  0.00    +0.000 A 
ATOM      9  C   UNL     1       8.598   9.757  18.329  0.00  0.00    +0.000 A 
ATOM     10  C   UNL     1       9.491  10.135  19.335  0.00  0.00    +0.000 A 
ATOM     11  C   UNL     1       9.841  11.485  19.491  0.00  0.00    +0.000 A 
ATOM     12 CL   UNL     1      10.937  11.901  20.765  0.00  0.00    +0.000 Cl
BRANCH   6  16
ATOM     13  C   UNL     1       9.466  16.187  19.365  0.00  0.00    +0.000 C 
ATOM     14  C   UNL     1       8.824  14.826  19.368  0.00  0.00    +0.000 C 
ATOM     15  O   UNL     1       7.692  14.675  19.815  0.00  0.00    +0.000 OA
ATOM     16  N   UNL     1       9.648  13.841  18.852  0.00  0.00    +0.000 N 
ATOM     17  H   UNL     1      10.626  14.069  18.705  0.00  0.00    +0.000 HD
ENDBRANCH   6  16
ENDBRANCH   1   9
BRANCH   4  18
ATOM     18  C   UNL     1       6.816   5.736  16.373  0.00  0.00    +0.000 C 
BRANCH  18  19
ATOM     19  C   UNL     1       5.391   6.144  16.121  0.00  0.00    +0.000 C 
ATOM     20  O   UNL     1       5.086   6.794  15.118  0.00  0.00    +0.000 OA
BRANCH  19  21
ATOM     21  C   UNL     1       4.300   5.728  17.057  0.00  0.00    +0.000 A 
ATOM     22  C   UNL     1       3.886   4.400  17.225  0.00  0.00    +0.000 A 
ATOM     23  C   UNL     1       2.888   4.084  18.154  0.00  0.00    +0.000 A 
ATOM     24  C   UNL     1       2.293   5.094  18.899  0.00  0.00    +0.000 A 
ATOM     25  F   UNL     1       1.337   4.785  19.785  0.00  0.00    +0.000 F 
ATOM     26  C   UNL     1       2.678   6.418  18.740  0.00  0.00    +0.000 A 
ATOM     27  C   UNL     1       3.685   6.735  17.822  0.00  0.00    +0.000 A 
ENDBRANCH  19  21
ENDBRANCH  18  19
ENDBRANCH   4  18
TORSDOF 5
ENDMDL
