MODEL 1
REMARK VINA RESULT:      -7.2      0.000      0.000
REMARK  Name = 
REMARK  9 active torsions:
REMARK  status: ('A' for Active; 'I' for Inactive)
REMARK    1  A    between atoms: C_1  and  O_2
REMARK    2  A    between atoms: O_2  and  C_3
REMARK    3  A    between atoms: C_6  and  C_7
REMARK    4  A    between atoms: C_7  and  C_9
REMARK    5  A    between atoms: C_9  and  O_10
REMARK    6  A    between atoms: O_10  and  C_11
REMARK    7  A    between atoms: C_11  and  C_13
REMARK    8  A    between atoms: C_15  and  C_16
REMARK    9  A    between atoms: C_18  and  C_19
REMARK                            x       y       z     vdW  Elec       q    Type
REMARK                         _______ _______ _______ _____ _____    ______ ____
ROOT
ATOM      1  C   UNL     1       3.159   6.976  18.326  0.00  0.00    +0.000 C 
ATOM      2  O   UNL     1       3.833   7.209  17.341  0.00  0.00    +0.000 OA
ENDROOT
BRANCH   1   6
ATOM      3  C   UNL     1       0.357  10.005  19.622  0.00  0.00    +0.000 A 
ATOM      4  C   UNL     1       0.792   9.915  18.299  0.00  0.00    +0.000 A 
ATOM      5  C   UNL     1       1.673   8.921  17.890  0.00  0.00    +0.000 A 
ATOM      6  C   UNL     1       2.178   8.001  18.815  0.00  0.00    +0.000 A 
ATOM      7  C   UNL     1       1.750   8.072  20.142  0.00  0.00    +0.000 A 
ATOM      8  C   UNL     1       0.838   9.062  20.548  0.00  0.00    +0.000 A 
ATOM      9 CL   UNL     1       0.252   8.958  22.171  0.00  0.00    +0.000 Cl
BRANCH   3  11
ATOM     10  C   UNL     1      -0.065  12.308  19.695  0.00  0.00    +0.000 C 
ATOM     11  O   UNL     1      -0.549  10.982  19.964  0.00  0.00    +0.000 OA
ENDBRANCH   3  11
ENDBRANCH   1   6
BRANCH   1  12
ATOM     12  C   UNL     1       3.255   5.653  19.095  0.00  0.00    +0.000 C 
BRANCH  12  13
ATOM     13  O   UNL     1       4.559   5.391  19.628  0.00  0.00    +0.000 OA
BRANCH  13  14
ATOM     14  C   UNL     1       5.133   4.278  19.100  0.00  0.00    +0.000 C 
ATOM     15  O   UNL     1       5.055   3.168  19.638  0.00  0.00    +0.000 OA
BRANCH  14  16
ATOM     16  C   UNL     1       5.855   4.526  17.874  0.00  0.00    +0.000 A 
ATOM     17  S   UNL     1       5.347   3.978  16.329  0.00  0.00    +0.000 S 
ATOM     18  C   UNL     1       6.691   4.764  15.603  0.00  0.00    +0.000 A 
ATOM     19  C   UNL     1       6.894   4.770  14.129  0.00  0.00    +0.000 C 
ATOM     20  N   UNL     1       7.509   5.361  16.441  0.00  0.00    +0.000 NA
ATOM     21  C   UNL     1       7.048   5.226  17.738  0.00  0.00    +0.000 A 
ATOM     22  C   UNL     1       7.852   5.837  18.831  0.00  0.00    +0.000 C 
ENDBRANCH  14  16
ENDBRANCH  13  14
ENDBRANCH  12  13
ENDBRANCH   1  12
TORSDOF 6
ENDMDL
MODEL 2
REMARK VINA RESULT:      -7.0      1.944      2.582
REMARK  Name = 
REMARK  9 active torsions:
REMARK  status: ('A' for Active; 'I' for Inactive)
REMARK    1  A    between atoms: C_1  and  O_2
REMARK    2  A    between atoms: O_2  and  C_3
REMARK    3  A    between atoms: C_6  and  C_7
REMARK    4  A    between atoms: C_7  and  C_9
REMARK    5  A    between atoms: C_9  and  O_10
REMARK    6  A    between atoms: O_10  and  C_11
REMARK    7  A    between atoms: C_11  and  C_13
REMARK    8  A    between atoms: C_15  and  C_16
REMARK    9  A    between atoms: C_18  and  C_19
REMARK                            x       y       z     vdW  Elec       q    Type
REMARK                         _______ _______ _______ _____ _____    ______ ____
ROOT
ATOM      1  C   UNL     1       2.836   4.182  18.711  0.00  0.00    +0.000 C 
ATOM      2  O   UNL     1       2.345   3.697  17.709  0.00  0.00    +0.000 OA
ENDROOT
BRANCH   1   6
ATOM      3  C   UNL     1       1.541   8.065  20.108  0.00  0.00    +0.000 A 
ATOM      4  C   UNL     1       1.477   6.929  20.915  0.00  0.00    +0.000 A 
ATOM      5  C   UNL     1       1.920   5.691  20.462  0.00  0.00    +0.000 A 
ATOM      6  C   UNL     1       2.411   5.550  19.160  0.00  0.00    +0.000 A 
ATOM      7  C   UNL     1       2.488   6.677  18.341  0.00  0.00    +0.000 A 
ATOM      8  C   UNL     1       2.064   7.933  18.809  0.00  0.00    +0.000 A 
ATOM      9 CL   UNL     1       2.353   9.286  17.773  0.00  0.00    +0.000 Cl
BRANCH   3  11
ATOM     10  C   UNL     1       1.153   9.306  22.057  0.00  0.00    +0.000 C 
ATOM     11  O   UNL     1       1.129   9.274  20.621  0.00  0.00    +0.000 OA
ENDBRANCH   3  11
ENDBRANCH   1   6
BRANCH   1  12
ATOM     12  C   UNL     1       3.876   3.441  19.560  0.00  0.00    +0.000 C 
BRANCH  12  13
ATOM     13  O   UNL     1       5.165   3.353  18.942  0.00  0.00    +0.000 OA
BRANCH  13  14
ATOM     14  C   UNL     1       5.771   4.562  18.805  0.00  0.00    +0.000 C 
ATOM     15  O   UNL     1       5.865   5.371  19.737  0.00  0.00    +0.000 OA
BRANCH  14  16
ATOM     16  C   UNL     1       6.266   4.814  17.472  0.00  0.00    +0.000 A 
ATOM     17  S   UNL     1       5.883   3.849  16.105  0.00  0.00    +0.000 S 
ATOM     18  C   UNL     1       6.796   4.904  15.101  0.00  0.00    +0.000 A 
ATOM     19  C   UNL     1       6.879   4.708  13.628  0.00  0.00    +0.000 C 
ATOM     20  N   UNL     1       7.399   5.890  15.727  0.00  0.00    +0.000 NA
ATOM     21  C   UNL     1       7.111   5.845  17.080  0.00  0.00    +0.000 A 
ATOM     22  C   UNL     1       7.712   6.886  17.956  0.00  0.00    +0.000 C 
ENDBRANCH  14  16
ENDBRANCH  13  14
ENDBRANCH  12  13
ENDBRANCH   1  12
TORSDOF 6
ENDMDL
MODEL 3
REMARK VINA RESULT:      -7.0      1.083      1.285
REMARK  Name = 
REMARK  9 active torsions:
REMARK  status: ('A' for Active; 'I' for Inactive)
REMARK    1  A    between atoms: C_1  and  O_2
REMARK    2  A    between atoms: O_2  and  C_3
REMARK    3  A    between atoms: C_6  and  C_7
REMARK    4  A    between atoms: C_7  and  C_9
REMARK    5  A    between atoms: C_9  and  O_10
REMARK    6  A    between atoms: O_10  and  C_11
REMARK    7  A    between atoms: C_11  and  C_13
REMARK    8  A    between atoms: C_15  and  C_16
REMARK    9  A    between atoms: C_18  and  C_19
REMARK                            x       y       z     vdW  Elec       q    Type
REMARK                         _______ _______ _______ _____ _____    ______ ____
ROOT
ATOM      1  C   UNL     1       2.699   6.235  19.593  0.00  0.00    +0.000 C 
ATOM      2  O   UNL     1       2.538   5.373  20.437  0.00  0.00    +0.000 OA
ENDROOT
BRANCH   1   6
ATOM      3  C   UNL     1       0.749  10.083  19.897  0.00  0.00    +0.000 A 
ATOM      4  C   UNL     1       1.343   9.645  18.713  0.00  0.00    +0.000 A 
ATOM      5  C   UNL     1       1.945   8.396  18.621  0.00  0.00    +0.000 A 
ATOM      6  C   UNL     1       2.000   7.556  19.738  0.00  0.00    +0.000 A 
ATOM      7  C   UNL     1       1.406   7.974  20.930  0.00  0.00    +0.000 A 
ATOM      8  C   UNL     1       0.775   9.228  21.013  0.00  0.00    +0.000 A 
ATOM      9 CL   UNL     1      -0.067   9.577  22.482  0.00  0.00    +0.000 Cl
BRANCH   3  11
ATOM     10  C   UNL     1       0.539  12.162  18.837  0.00  0.00    +0.000 C 
ATOM     11  O   UNL     1       0.130  11.312  19.920  0.00  0.00    +0.000 OA
ENDBRANCH   3  11
ENDBRANCH   1   6
BRANCH   1  12
ATOM     12  C   UNL     1       3.610   6.036  18.376  0.00  0.00    +0.000 C 
BRANCH  12  13
ATOM     13  O   UNL     1       3.994   4.673  18.162  0.00  0.00    +0.000 OA
BRANCH  13  14
ATOM     14  C   UNL     1       5.335   4.478  18.264  0.00  0.00    +0.000 C 
ATOM     15  O   UNL     1       5.877   4.111  19.313  0.00  0.00    +0.000 OA
BRANCH  14  16
ATOM     16  C   UNL     1       6.056   4.764  17.046  0.00  0.00    +0.000 A 
ATOM     17  S   UNL     1       5.866   3.882  15.586  0.00  0.00    +0.000 S 
ATOM     18  C   UNL     1       6.978   4.932  14.803  0.00  0.00    +0.000 A 
ATOM     19  C   UNL     1       7.298   4.798  13.355  0.00  0.00    +0.000 C 
ATOM     20  N   UNL     1       7.509   5.857  15.570  0.00  0.00    +0.000 NA
ATOM     21  C   UNL     1       6.998   5.767  16.852  0.00  0.00    +0.000 A 
ATOM     22  C   UNL     1       7.488   6.736  17.869  0.00  0.00    +0.000 C 
ENDBRANCH  14  16
ENDBRANCH  13  14
ENDBRANCH  12  13
ENDBRANCH   1  12
TORSDOF 6
ENDMDL
MODEL 4
REMARK VINA RESULT:      -6.9      3.979      6.536
REMARK  Name = 
REMARK  9 active torsions:
REMARK  status: ('A' for Active; 'I' for Inactive)
REMARK    1  A    between atoms: C_1  and  O_2
REMARK    2  A    between atoms: O_2  and  C_3
REMARK    3  A    between atoms: C_6  and  C_7
REMARK    4  A    between atoms: C_7  and  C_9
REMARK    5  A    between atoms: C_9  and  O_10
REMARK    6  A    between atoms: O_10  and  C_11
REMARK    7  A    between atoms: C_11  and  C_13
REMARK    8  A    between atoms: C_15  and  C_16
REMARK    9  A    between atoms: C_18  and  C_19
REMARK                            x       y       z     vdW  Elec       q    Type
REMARK                         _______ _______ _______ _____ _____    ______ ____
ROOT
ATOM      1  C   UNL     1       4.323   2.423  19.000  0.00  0.00    +0.000 C 
ATOM      2  O   UNL     1       4.739   2.054  20.082  0.00  0.00    +0.000 OA
ENDROOT
BRANCH   1   6
ATOM      3  C   UNL     1       5.871   6.099  17.329  0.00  0.00    +0.000 A 
ATOM      4  C   UNL     1       5.669   5.936  18.700  0.00  0.00    +0.000 A 
ATOM      5  C   UNL     1       5.194   4.741  19.226  0.00  0.00    +0.000 A 
ATOM      6  C   UNL     1       4.870   3.675  18.380  0.00  0.00    +0.000 A 
ATOM      7  C   UNL     1       5.072   3.818  17.006  0.00  0.00    +0.000 A 
ATOM      8  C   UNL     1       5.577   5.019  16.478  0.00  0.00    +0.000 A 
ATOM      9 CL   UNL     1       5.939   5.032  14.787  0.00  0.00    +0.000 Cl
BRANCH   3  11
ATOM     10  C   UNL     1       7.628   7.641  17.491  0.00  0.00    +0.000 C 
ATOM     11  O   UNL     1       6.384   7.289  16.865  0.00  0.00    +0.000 OA
ENDBRANCH   3  11
ENDBRANCH   1   6
BRANCH   1  12
ATOM     12  C   UNL     1       3.256   1.645  18.220  0.00  0.00    +0.000 C 
BRANCH  12  13
ATOM     13  O   UNL     1       2.292   2.483  17.572  0.00  0.00    +0.000 OA
BRANCH  13  14
ATOM     14  C   UNL     1       1.262   2.834  18.386  0.00  0.00    +0.000 C 
ATOM     15  O   UNL     1       0.213   2.182  18.453  0.00  0.00    +0.000 OA
BRANCH  14  16
ATOM     16  C   UNL     1       1.504   4.043  19.137  0.00  0.00    +0.000 A 
ATOM     17  S   UNL     1       1.693   5.595  18.429  0.00  0.00    +0.000 S 
ATOM     18  C   UNL     1       1.842   6.294  19.991  0.00  0.00    +0.000 A 
ATOM     19  C   UNL     1       1.988   7.763  20.183  0.00  0.00    +0.000 C 
ATOM     20  N   UNL     1       1.807   5.441  20.991  0.00  0.00    +0.000 NA
ATOM     21  C   UNL     1       1.622   4.155  20.518  0.00  0.00    +0.000 A 
ATOM     22  C   UNL     1       1.562   3.048  21.509  0.00  0.00    +0.000 C 
ENDBRANCH  14  16
ENDBRANCH  13  14
ENDBRANCH  12  13
ENDBRANCH   1  12
TORSDOF 6
ENDMDL
MODEL 5
REMARK VINA RESULT:      -6.8      1.293      1.597
REMARK  Name = 
REMARK  9 active torsions:
REMARK  status: ('A' for Active; 'I' for Inactive)
REMARK    1  A    between atoms: C_1  and  O_2
REMARK    2  A    between atoms: O_2  and  C_3
REMARK    3  A    between atoms: C_6  and  C_7
REMARK    4  A    between atoms: C_7  and  C_9
REMARK    5  A    between atoms: C_9  and  O_10
REMARK    6  A    between atoms: O_10  and  C_11
REMARK    7  A    between atoms: C_11  and  C_13
REMARK    8  A    between atoms: C_15  and  C_16
REMARK    9  A    between atoms: C_18  and  C_19
REMARK                            x       y       z     vdW  Elec       q    Type
REMARK                         _______ _______ _______ _____ _____    ______ ____
ROOT
ATOM      1  C   UNL     1       2.724   4.945  18.750  0.00  0.00    +0.000 C 
ATOM      2  O   UNL     1       2.247   4.340  17.808  0.00  0.00    +0.000 OA
ENDROOT
BRANCH   1   6
ATOM      3  C   UNL     1       1.555   9.058  19.397  0.00  0.00    +0.000 A 
ATOM      4  C   UNL     1       1.906   8.577  18.135  0.00  0.00    +0.000 A 
ATOM      5  C   UNL     1       2.256   7.247  17.936  0.00  0.00    +0.000 A 
ATOM      6  C   UNL     1       2.299   6.360  19.016  0.00  0.00    +0.000 A 
ATOM      7  C   UNL     1       1.946   6.821  20.285  0.00  0.00    +0.000 A 
ATOM      8  C   UNL     1       1.567   8.161  20.479  0.00  0.00    +0.000 A 
ATOM      9 CL   UNL     1       0.994   8.585  22.055  0.00  0.00    +0.000 Cl
BRANCH   3  11
ATOM     10  C   UNL     1       0.232  10.785  18.527  0.00  0.00    +0.000 C 
ATOM     11  O   UNL     1       1.175  10.374  19.530  0.00  0.00    +0.000 OA
ENDBRANCH   3  11
ENDBRANCH   1   6
BRANCH   1  12
ATOM     12  C   UNL     1       3.745   4.312  19.703  0.00  0.00    +0.000 C 
BRANCH  12  13
ATOM     13  O   UNL     1       4.882   3.751  19.038  0.00  0.00    +0.000 OA
BRANCH  13  14
ATOM     14  C   UNL     1       5.896   4.641  18.879  0.00  0.00    +0.000 C 
ATOM     15  O   UNL     1       6.413   5.240  19.830  0.00  0.00    +0.000 OA
BRANCH  14  16
ATOM     16  C   UNL     1       6.287   4.834  17.502  0.00  0.00    +0.000 A 
ATOM     17  S   UNL     1       5.863   3.770  16.223  0.00  0.00    +0.000 S 
ATOM     18  C   UNL     1       6.651   4.803  15.098  0.00  0.00    +0.000 A 
ATOM     19  C   UNL     1       6.645   4.521  13.637  0.00  0.00    +0.000 C 
ATOM     20  N   UNL     1       7.242   5.853  15.623  0.00  0.00    +0.000 NA
ATOM     21  C   UNL     1       7.049   5.879  16.992  0.00  0.00    +0.000 A 
ATOM     22  C   UNL     1       7.653   6.998  17.762  0.00  0.00    +0.000 C 
ENDBRANCH  14  16
ENDBRANCH  13  14
ENDBRANCH  12  13
ENDBRANCH   1  12
TORSDOF 6
ENDMDL
MODEL 6
REMARK VINA RESULT:      -6.7      4.156      7.764
REMARK  Name = 
REMARK  9 active torsions:
REMARK  status: ('A' for Active; 'I' for Inactive)
REMARK    1  A    between atoms: C_1  and  O_2
REMARK    2  A    between atoms: O_2  and  C_3
REMARK    3  A    between atoms: C_6  and  C_7
REMARK    4  A    between atoms: C_7  and  C_9
REMARK    5  A    between atoms: C_9  and  O_10
REMARK    6  A    between atoms: O_10  and  C_11
REMARK    7  A    between atoms: C_11  and  C_13
REMARK    8  A    between atoms: C_15  and  C_16
REMARK    9  A    between atoms: C_18  and  C_19
REMARK                            x       y       z     vdW  Elec       q    Type
REMARK                         _______ _______ _______ _____ _____    ______ ____
ROOT
ATOM      1  C   UNL     1       7.257   5.029  17.380  0.00  0.00    +0.000 C 
ATOM      2  O   UNL     1       8.028   4.345  18.027  0.00  0.00    +0.000 OA
ENDROOT
BRANCH   1   6
ATOM      3  C   UNL     1       6.351   3.882  13.309  0.00  0.00    +0.000 A 
ATOM      4  C   UNL     1       5.682   3.328  14.401  0.00  0.00    +0.000 A 
ATOM      5  C   UNL     1       5.966   3.724  15.703  0.00  0.00    +0.000 A 
ATOM      6  C   UNL     1       6.965   4.670  15.952  0.00  0.00    +0.000 A 
ATOM      7  C   UNL     1       7.641   5.240  14.871  0.00  0.00    +0.000 A 
ATOM      8  C   UNL     1       7.334   4.857  13.554  0.00  0.00    +0.000 A 
ATOM      9 CL   UNL     1       8.115   5.739  12.288  0.00  0.00    +0.000 Cl
BRANCH   3  11
ATOM     10  C   UNL     1       4.579   3.394  11.857  0.00  0.00    +0.000 C 
ATOM     11  O   UNL     1       6.001   3.485  12.039  0.00  0.00    +0.000 OA
ENDBRANCH   3  11
ENDBRANCH   1   6
BRANCH   1  12
ATOM     12  C   UNL     1       6.547   6.252  17.970  0.00  0.00    +0.000 C 
BRANCH  12  13
ATOM     13  O   UNL     1       5.562   5.924  18.957  0.00  0.00    +0.000 OA
BRANCH  13  14
ATOM     14  C   UNL     1       4.308   5.825  18.443  0.00  0.00    +0.000 C 
ATOM     15  O   UNL     1       4.011   6.259  17.323  0.00  0.00    +0.000 OA
BRANCH  14  16
ATOM     16  C   UNL     1       3.364   5.193  19.334  0.00  0.00    +0.000 A 
ATOM     17  S   UNL     1       3.336   3.510  19.671  0.00  0.00    +0.000 S 
ATOM     18  C   UNL     1       2.045   3.749  20.778  0.00  0.00    +0.000 A 
ATOM     19  C   UNL     1       1.477   2.628  21.576  0.00  0.00    +0.000 C 
ATOM     20  N   UNL     1       1.611   4.986  20.872  0.00  0.00    +0.000 NA
ATOM     21  C   UNL     1       2.349   5.817  20.049  0.00  0.00    +0.000 A 
ATOM     22  C   UNL     1       1.996   7.262  20.019  0.00  0.00    +0.000 C 
ENDBRANCH  14  16
ENDBRANCH  13  14
ENDBRANCH  12  13
ENDBRANCH   1  12
TORSDOF 6
ENDMDL
MODEL 7
REMARK VINA RESULT:      -6.6      3.872      5.169
REMARK  Name = 
REMARK  9 active torsions:
REMARK  status: ('A' for Active; 'I' for Inactive)
REMARK    1  A    between atoms: C_1  and  O_2
REMARK    2  A    between atoms: O_2  and  C_3
REMARK    3  A    between atoms: C_6  and  C_7
REMARK    4  A    between atoms: C_7  and  C_9
REMARK    5  A    between atoms: C_9  and  O_10
REMARK    6  A    between atoms: O_10  and  C_11
REMARK    7  A    between atoms: C_11  and  C_13
REMARK    8  A    between atoms: C_15  and  C_16
REMARK    9  A    between atoms: C_18  and  C_19
REMARK                            x       y       z     vdW  Elec       q    Type
REMARK                         _______ _______ _______ _____ _____    ______ ____
ROOT
ATOM      1  C   UNL     1       4.487   6.720  17.423  0.00  0.00    +0.000 C 
ATOM      2  O   UNL     1       3.833   7.648  16.986  0.00  0.00    +0.000 OA
ENDROOT
BRANCH   1   6
ATOM      3  C   UNL     1       2.369   3.506  19.394  0.00  0.00    +0.000 A 
ATOM      4  C   UNL     1       1.702   4.521  18.708  0.00  0.00    +0.000 A 
ATOM      5  C   UNL     1       2.396   5.534  18.057  0.00  0.00    +0.000 A 
ATOM      6  C   UNL     1       3.793   5.579  18.109  0.00  0.00    +0.000 A 
ATOM      7  C   UNL     1       4.478   4.569  18.785  0.00  0.00    +0.000 A 
ATOM      8  C   UNL     1       3.775   3.530  19.421  0.00  0.00    +0.000 A 
ATOM      9 CL   UNL     1       4.723   2.248  20.089  0.00  0.00    +0.000 Cl
BRANCH   3  11
ATOM     10  C   UNL     1       1.403   2.733  21.384  0.00  0.00    +0.000 C 
ATOM     11  O   UNL     1       1.635   2.502  19.985  0.00  0.00    +0.000 OA
ENDBRANCH   3  11
ENDBRANCH   1   6
BRANCH   1  12
ATOM     12  C   UNL     1       6.013   6.652  17.289  0.00  0.00    +0.000 C 
BRANCH  12  13
ATOM     13  O   UNL     1       6.464   6.455  15.943  0.00  0.00    +0.000 OA
BRANCH  13  14
ATOM     14  C   UNL     1       7.026   5.235  15.746  0.00  0.00    +0.000 C 
ATOM     15  O   UNL     1       7.754   4.692  16.586  0.00  0.00    +0.000 OA
BRANCH  14  16
ATOM     16  C   UNL     1       6.712   4.653  14.462  0.00  0.00    +0.000 A 
ATOM     17  S   UNL     1       5.426   3.548  14.195  0.00  0.00    +0.000 S 
ATOM     18  C   UNL     1       5.799   3.513  12.518  0.00  0.00    +0.000 A 
ATOM     19  C   UNL     1       4.984   2.732  11.549  0.00  0.00    +0.000 C 
ATOM     20  N   UNL     1       6.841   4.231  12.162  0.00  0.00    +0.000 NA
ATOM     21  C   UNL     1       7.375   4.879  13.262  0.00  0.00    +0.000 A 
ATOM     22  C   UNL     1       8.570   5.738  13.053  0.00  0.00    +0.000 C 
ENDBRANCH  14  16
ENDBRANCH  13  14
ENDBRANCH  12  13
ENDBRANCH   1  12
TORSDOF 6
ENDMDL
MODEL 8
REMARK VINA RESULT:      -6.6      3.942      7.137
REMARK  Name = 
REMARK  9 active torsions:
REMARK  status: ('A' for Active; 'I' for Inactive)
REMARK    1  A    between atoms: C_1  and  O_2
REMARK    2  A    between atoms: O_2  and  C_3
REMARK    3  A    between atoms: C_6  and  C_7
REMARK    4  A    between atoms: C_7  and  C_9
REMARK    5  A    between atoms: C_9  and  O_10
REMARK    6  A    between atoms: O_10  and  C_11
REMARK    7  A    between atoms: C_11  and  C_13
REMARK    8  A    between atoms: C_15  and  C_16
REMARK    9  A    between atoms: C_18  and  C_19
REMARK                            x       y       z     vdW  Elec       q    Type
REMARK                         _______ _______ _______ _____ _____    ______ ____
ROOT
ATOM      1  C   UNL     1       4.545   2.999  18.469  0.00  0.00    +0.000 C 
ATOM      2  O   UNL     1       4.738   3.178  19.657  0.00  0.00    +0.000 OA
ENDROOT
BRANCH   1   6
ATOM      3  C   UNL     1       6.938   5.015  15.484  0.00  0.00    +0.000 A 
ATOM      4  C   UNL     1       6.193   3.874  15.189  0.00  0.00    +0.000 A 
ATOM      5  C   UNL     1       5.408   3.250  16.151  0.00  0.00    +0.000 A 
ATOM      6  C   UNL     1       5.377   3.737  17.461  0.00  0.00    +0.000 A 
ATOM      7  C   UNL     1       6.112   4.882  17.775  0.00  0.00    +0.000 A 
ATOM      8  C   UNL     1       6.884   5.527  16.793  0.00  0.00    +0.000 A 
ATOM      9 CL   UNL     1       7.623   7.023  17.246  0.00  0.00    +0.000 Cl
BRANCH   3  11
ATOM     10  C   UNL     1       7.470   4.995  13.203  0.00  0.00    +0.000 C 
ATOM     11  O   UNL     1       7.664   5.619  14.482  0.00  0.00    +0.000 OA
ENDBRANCH   3  11
ENDBRANCH   1   6
BRANCH   1  12
ATOM     12  C   UNL     1       3.483   2.025  17.946  0.00  0.00    +0.000 C 
BRANCH  12  13
ATOM     13  O   UNL     1       2.333   2.673  17.391  0.00  0.00    +0.000 OA
BRANCH  13  14
ATOM     14  C   UNL     1       1.347   2.876  18.304  0.00  0.00    +0.000 C 
ATOM     15  O   UNL     1       0.370   2.124  18.410  0.00  0.00    +0.000 OA
BRANCH  14  16
ATOM     16  C   UNL     1       1.541   4.057  19.112  0.00  0.00    +0.000 A 
ATOM     17  S   UNL     1       1.824   5.625  18.472  0.00  0.00    +0.000 S 
ATOM     18  C   UNL     1       1.841   6.275  20.063  0.00  0.00    +0.000 A 
ATOM     19  C   UNL     1       1.996   7.734  20.313  0.00  0.00    +0.000 C 
ATOM     20  N   UNL     1       1.698   5.394  21.028  0.00  0.00    +0.000 NA
ATOM     21  C   UNL     1       1.533   4.126  20.500  0.00  0.00    +0.000 A 
ATOM     22  C   UNL     1       1.360   2.993  21.447  0.00  0.00    +0.000 C 
ENDBRANCH  14  16
ENDBRANCH  13  14
ENDBRANCH  12  13
ENDBRANCH   1  12
TORSDOF 6
ENDMDL
MODEL 9
REMARK VINA RESULT:      -6.5      1.095      1.144
REMARK  Name = 
REMARK  9 active torsions:
REMARK  status: ('A' for Active; 'I' for Inactive)
REMARK    1  A    between atoms: C_1  and  O_2
REMARK    2  A    between atoms: O_2  and  C_3
REMARK    3  A    between atoms: C_6  and  C_7
REMARK    4  A    between atoms: C_7  and  C_9
REMARK    5  A    between atoms: C_9  and  O_10
REMARK    6  A    between atoms: O_10  and  C_11
REMARK    7  A    between atoms: C_11  and  C_13
REMARK    8  A    between atoms: C_15  and  C_16
REMARK    9  A    between atoms: C_18  and  C_19
REMARK                            x       y       z     vdW  Elec       q    Type
REMARK                         _______ _______ _______ _____ _____    ______ ____
ROOT
ATOM      1  C   UNL     1       3.327   6.871  17.984  0.00  0.00    +0.000 C 
ATOM      2  O   UNL     1       4.288   7.261  17.347  0.00  0.00    +0.000 OA
ENDROOT
BRANCH   1   6
ATOM      3  C   UNL     1       0.511   9.813  19.439  0.00  0.00    +0.000 A 
ATOM      4  C   UNL     1       0.888   9.749  18.098  0.00  0.00    +0.000 A 
ATOM      5  C   UNL     1       1.775   8.783  17.638  0.00  0.00    +0.000 A 
ATOM      6  C   UNL     1       2.343   7.866  18.528  0.00  0.00    +0.000 A 
ATOM      7  C   UNL     1       1.973   7.910  19.873  0.00  0.00    +0.000 A 
ATOM      8  C   UNL     1       1.055   8.872  20.331  0.00  0.00    +0.000 A 
ATOM      9 CL   UNL     1       0.545   8.735  21.977  0.00  0.00    +0.000 Cl
BRANCH   3  11
ATOM     10  C   UNL     1      -0.016  12.095  19.462  0.00  0.00    +0.000 C 
ATOM     11  O   UNL     1      -0.404  10.763  19.833  0.00  0.00    +0.000 OA
ENDBRANCH   3  11
ENDBRANCH   1   6
BRANCH   1  12
ATOM     12  C   UNL     1       3.061   5.384  18.247  0.00  0.00    +0.000 C 
BRANCH  12  13
ATOM     13  O   UNL     1       3.320   4.545  17.114  0.00  0.00    +0.000 OA
BRANCH  13  14
ATOM     14  C   UNL     1       4.439   3.789  17.260  0.00  0.00    +0.000 C 
ATOM     15  O   UNL     1       4.513   2.854  18.066  0.00  0.00    +0.000 OA
BRANCH  14  16
ATOM     16  C   UNL     1       5.529   4.199  16.405  0.00  0.00    +0.000 A 
ATOM     17  S   UNL     1       5.492   4.119  14.691  0.00  0.00    +0.000 S 
ATOM     18  C   UNL     1       7.055   4.827  14.620  0.00  0.00    +0.000 A 
ATOM     19  C   UNL     1       7.714   5.147  13.324  0.00  0.00    +0.000 C 
ATOM     20  N   UNL     1       7.612   5.071  15.785  0.00  0.00    +0.000 NA
ATOM     21  C   UNL     1       6.757   4.710  16.810  0.00  0.00    +0.000 A 
ATOM     22  C   UNL     1       7.220   4.910  18.209  0.00  0.00    +0.000 C 
ENDBRANCH  14  16
ENDBRANCH  13  14
ENDBRANCH  12  13
ENDBRANCH   1  12
TORSDOF 6
ENDMDL
