MODEL 1
REMARK VINA RESULT:      -9.7      0.000      0.000
REMARK  Name = 
REMARK  8 active torsions:
REMARK  status: ('A' for Active; 'I' for Inactive)
REMARK    1  A    between atoms: C_1  and  C_2
REMARK    2  A    between atoms: C_6  and  C_7
REMARK    3  A    between atoms: C_9  and  C_10
REMARK    4  A    between atoms: C_13  and  O_14
REMARK    5  A    between atoms: O_14  and  C_15
REMARK    6  A    between atoms: N_24  and  C_25
REMARK    7  A    between atoms: C_28  and  S_29
REMARK    8  A    between atoms: S_29  and  N_30
REMARK                            x       y       z     vdW  Elec       q    Type
REMARK                         _______ _______ _______ _____ _____    ______ ____
ROOT
ATOM      1  C   UNL     1      -0.988  12.653  18.813  0.00  0.00    +0.000 C 
ATOM      2  C   UNL     1       0.384  12.138  18.331  0.00  0.00    +0.000 C 
ATOM      3  C   UNL     1       0.654  11.264  19.517  0.00  0.00    +0.000 C 
ATOM      4  N   UNL     1       0.188  11.750  20.626  0.00  0.00    +0.000 NA
ATOM      5  N   UNL     1      -0.766  12.660  20.281  0.00  0.00    +0.000 N 
ENDROOT
BRANCH   1  11
ATOM      6  C   UNL     1      -5.830  11.428  18.051  0.00  0.00    +0.000 C 
ATOM      7  C   UNL     1      -4.374  11.168  17.801  0.00  0.00    +0.000 A 
ATOM      8  C   UNL     1      -3.982  10.168  16.907  0.00  0.00    +0.000 A 
ATOM      9  C   UNL     1      -2.634   9.879  16.720  0.00  0.00    +0.000 A 
ATOM     10  C   UNL     1      -1.666  10.606  17.407  0.00  0.00    +0.000 A 
ATOM     11  C   UNL     1      -2.021  11.655  18.271  0.00  0.00    +0.000 A 
ATOM     12  C   UNL     1      -3.390  11.911  18.474  0.00  0.00    +0.000 A 
ENDBRANCH   1  11
BRANCH   3  13
ATOM     13  C   UNL     1       1.206   9.914  19.501  0.00  0.00    +0.000 A 
ATOM     14  C   UNL     1       1.731   9.357  18.344  0.00  0.00    +0.000 A 
ATOM     15  C   UNL     1       2.275   8.082  18.402  0.00  0.00    +0.000 A 
ATOM     16  C   UNL     1       2.255   7.375  19.602  0.00  0.00    +0.000 A 
ATOM     17  C   UNL     1       1.517   7.840  20.687  0.00  0.00    +0.000 A 
ATOM     18  C   UNL     1       1.038   9.137  20.657  0.00  0.00    +0.000 A 
BRANCH  16  19
ATOM     19  O   UNL     1       2.994   6.225  19.651  0.00  0.00    +0.000 OA
BRANCH  19  20
ATOM     20  C   UNL     1       2.335   5.011  19.671  0.00  0.00    +0.000 A 
ATOM     21  C   UNL     1       2.066   4.488  18.409  0.00  0.00    +0.000 A 
ATOM     22  C   UNL     1       1.331   3.310  18.277  0.00  0.00    +0.000 A 
ATOM     23  C   UNL     1       0.851   2.657  19.411  0.00  0.00    +0.000 A 
ATOM     24  C   UNL     1       1.156   3.145  20.677  0.00  0.00    +0.000 A 
ATOM     25  C   UNL     1       1.935   4.295  20.807  0.00  0.00    +0.000 A 
ENDBRANCH  19  20
ENDBRANCH  16  19
ENDBRANCH   3  13
BRANCH   5  26
ATOM     26  C   UNL     1      -1.768  12.799  21.245  0.00  0.00    +0.000 A 
ATOM     27  C   UNL     1      -2.724  13.835  21.087  0.00  0.00    +0.000 A 
ATOM     28  C   UNL     1      -3.789  14.002  21.951  0.00  0.00    +0.000 A 
ATOM     29  C   UNL     1      -3.937  13.084  22.978  0.00  0.00    +0.000 A 
ATOM     30  C   UNL     1      -2.975  12.098  23.223  0.00  0.00    +0.000 A 
ATOM     31  C   UNL     1      -1.890  11.960  22.353  0.00  0.00    +0.000 A 
BRANCH  29  32
ATOM     32  S   UNL     1      -5.505  12.995  23.775  0.00  0.00    +0.000 S 
ATOM     33  O   UNL     1      -5.887  14.308  24.236  0.00  0.00    +0.000 OA
ATOM     34  O   UNL     1      -6.386  12.126  23.030  0.00  0.00    +0.000 OA
BRANCH  32  35
ATOM     35  N   UNL     1      -5.018  12.130  25.124  0.00  0.00    +0.000 NA
ATOM     36  H   UNL     1      -5.785  11.937  25.763  0.00  0.00    +0.000 HD
ATOM     37  H   UNL     1      -4.382  11.369  24.898  0.00  0.00    +0.000 HD
ENDBRANCH  32  35
ENDBRANCH  29  32
ENDBRANCH   5  26
TORSDOF 7
ENDMDL
MODEL 2
REMARK VINA RESULT:      -9.4      0.651      1.076
REMARK  Name = 
REMARK  8 active torsions:
REMARK  status: ('A' for Active; 'I' for Inactive)
REMARK    1  A    between atoms: C_1  and  C_2
REMARK    2  A    between atoms: C_6  and  C_7
REMARK    3  A    between atoms: C_9  and  C_10
REMARK    4  A    between atoms: C_13  and  O_14
REMARK    5  A    between atoms: O_14  and  C_15
REMARK    6  A    between atoms: N_24  and  C_25
REMARK    7  A    between atoms: C_28  and  S_29
REMARK    8  A    between atoms: S_29  and  N_30
REMARK                            x       y       z     vdW  Elec       q    Type
REMARK                         _______ _______ _______ _____ _____    ______ ____
ROOT
ATOM      1  C   UNL     1      -0.759  12.493  18.828  0.00  0.00    +0.000 C 
ATOM      2  C   UNL     1       0.596  11.927  18.358  0.00  0.00    +0.000 C 
ATOM      3  C   UNL     1       0.826  11.048  19.549  0.00  0.00    +0.000 C 
ATOM      4  N   UNL     1       0.370  11.554  20.653  0.00  0.00    +0.000 NA
ATOM      5  N   UNL     1      -0.548  12.497  20.297  0.00  0.00    +0.000 N 
ENDROOT
BRANCH   1  11
ATOM      6  C   UNL     1      -5.638  11.433  18.048  0.00  0.00    +0.000 C 
ATOM      7  C   UNL     1      -4.191  11.125  17.803  0.00  0.00    +0.000 A 
ATOM      8  C   UNL     1      -3.830  10.112  16.909  0.00  0.00    +0.000 A 
ATOM      9  C   UNL     1      -2.492   9.778  16.727  0.00  0.00    +0.000 A 
ATOM     10  C   UNL     1      -1.502  10.471  17.417  0.00  0.00    +0.000 A 
ATOM     11  C   UNL     1      -1.824  11.530  18.281  0.00  0.00    +0.000 A 
ATOM     12  C   UNL     1      -3.185  11.833  18.480  0.00  0.00    +0.000 A 
ENDBRANCH   1  11
BRANCH   3  13
ATOM     13  C   UNL     1       1.328   9.678  19.542  0.00  0.00    +0.000 A 
ATOM     14  C   UNL     1       1.849   9.101  18.392  0.00  0.00    +0.000 A 
ATOM     15  C   UNL     1       2.345   7.808  18.458  0.00  0.00    +0.000 A 
ATOM     16  C   UNL     1       2.283   7.104  19.659  0.00  0.00    +0.000 A 
ATOM     17  C   UNL     1       1.548   7.596  20.733  0.00  0.00    +0.000 A 
ATOM     18  C   UNL     1       1.117   8.910  20.696  0.00  0.00    +0.000 A 
BRANCH  16  19
ATOM     19  O   UNL     1       2.980   5.927  19.718  0.00  0.00    +0.000 OA
BRANCH  19  20
ATOM     20  C   UNL     1       2.281   4.737  19.661  0.00  0.00    +0.000 A 
ATOM     21  C   UNL     1       2.116   4.113  20.895  0.00  0.00    +0.000 A 
ATOM     22  C   UNL     1       1.505   2.862  20.974  0.00  0.00    +0.000 A 
ATOM     23  C   UNL     1       1.067   2.224  19.815  0.00  0.00    +0.000 A 
ATOM     24  C   UNL     1       1.183   2.861  18.584  0.00  0.00    +0.000 A 
ATOM     25  C   UNL     1       1.749   4.134  18.513  0.00  0.00    +0.000 A 
ENDBRANCH  19  20
ENDBRANCH  16  19
ENDBRANCH   3  13
BRANCH   5  26
ATOM     26  C   UNL     1      -1.552  12.675  21.253  0.00  0.00    +0.000 A 
ATOM     27  C   UNL     1      -2.454  13.759  21.098  0.00  0.00    +0.000 A 
ATOM     28  C   UNL     1      -3.518  13.970  21.954  0.00  0.00    +0.000 A 
ATOM     29  C   UNL     1      -3.721  13.050  22.969  0.00  0.00    +0.000 A 
ATOM     30  C   UNL     1      -2.811  12.015  23.212  0.00  0.00    +0.000 A 
ATOM     31  C   UNL     1      -1.726  11.832  22.351  0.00  0.00    +0.000 A 
BRANCH  29  32
ATOM     32  S   UNL     1      -5.299  13.030  23.750  0.00  0.00    +0.000 S 
ATOM     33  O   UNL     1      -6.336  13.075  22.745  0.00  0.00    +0.000 OA
ATOM     34  O   UNL     1      -5.294  12.088  24.844  0.00  0.00    +0.000 OA
BRANCH  32  35
ATOM     35  N   UNL     1      -5.225  14.555  24.439  0.00  0.00    +0.000 NA
ATOM     36  H   UNL     1      -5.040  14.525  25.437  0.00  0.00    +0.000 HD
ATOM     37  H   UNL     1      -4.698  15.218  23.875  0.00  0.00    +0.000 HD
ENDBRANCH  32  35
ENDBRANCH  29  32
ENDBRANCH   5  26
TORSDOF 7
ENDMDL
MODEL 3
REMARK VINA RESULT:      -9.3      0.737      1.071
REMARK  Name = 
REMARK  8 active torsions:
REMARK  status: ('A' for Active; 'I' for Inactive)
REMARK    1  A    between atoms: C_1  and  C_2
REMARK    2  A    between atoms: C_6  and  C_7
REMARK    3  A    between atoms: C_9  and  C_10
REMARK    4  A    between atoms: C_13  and  O_14
REMARK    5  A    between atoms: O_14  and  C_15
REMARK    6  A    between atoms: N_24  and  C_25
REMARK    7  A    between atoms: C_28  and  S_29
REMARK    8  A    between atoms: S_29  and  N_30
REMARK                            x       y       z     vdW  Elec       q    Type
REMARK                         _______ _______ _______ _____ _____    ______ ____
ROOT
ATOM      1  C   UNL     1      -1.009  12.718  18.600  0.00  0.00    +0.000 C 
ATOM      2  C   UNL     1       0.377  12.211  18.153  0.00  0.00    +0.000 C 
ATOM      3  C   UNL     1       0.625  11.343  19.348  0.00  0.00    +0.000 C 
ATOM      4  N   UNL     1       0.130  11.829  20.444  0.00  0.00    +0.000 NA
ATOM      5  N   UNL     1      -0.823  12.732  20.072  0.00  0.00    +0.000 N 
ENDROOT
BRANCH   1  11
ATOM      6  C   UNL     1      -3.017  10.389  14.591  0.00  0.00    +0.000 C 
ATOM      7  C   UNL     1      -2.868  10.508  16.078  0.00  0.00    +0.000 A 
ATOM      8  C   UNL     1      -3.470   9.570  16.922  0.00  0.00    +0.000 A 
ATOM      9  C   UNL     1      -3.389   9.711  18.303  0.00  0.00    +0.000 A 
ATOM     10  C   UNL     1      -2.685  10.779  18.853  0.00  0.00    +0.000 A 
ATOM     11  C   UNL     1      -2.022  11.710  18.037  0.00  0.00    +0.000 A 
ATOM     12  C   UNL     1      -2.142  11.571  16.640  0.00  0.00    +0.000 A 
ENDBRANCH   1  11
BRANCH   3  13
ATOM     13  C   UNL     1       1.187   9.996  19.350  0.00  0.00    +0.000 A 
ATOM     14  C   UNL     1       1.721   9.430  18.201  0.00  0.00    +0.000 A 
ATOM     15  C   UNL     1       2.274   8.160  18.276  0.00  0.00    +0.000 A 
ATOM     16  C   UNL     1       2.254   7.467  19.485  0.00  0.00    +0.000 A 
ATOM     17  C   UNL     1       1.508   7.939  20.562  0.00  0.00    +0.000 A 
ATOM     18  C   UNL     1       1.020   9.232  20.514  0.00  0.00    +0.000 A 
BRANCH  16  19
ATOM     19  O   UNL     1       3.001   6.323  19.550  0.00  0.00    +0.000 OA
BRANCH  19  20
ATOM     20  C   UNL     1       2.351   5.109  19.654  0.00  0.00    +0.000 A 
ATOM     21  C   UNL     1       2.007   4.540  18.430  0.00  0.00    +0.000 A 
ATOM     22  C   UNL     1       1.272   3.357  18.385  0.00  0.00    +0.000 A 
ATOM     23  C   UNL     1       0.866   2.743  19.569  0.00  0.00    +0.000 A 
ATOM     24  C   UNL     1       1.246   3.276  20.796  0.00  0.00    +0.000 A 
ATOM     25  C   UNL     1       2.025   4.433  20.837  0.00  0.00    +0.000 A 
ENDBRANCH  19  20
ENDBRANCH  16  19
ENDBRANCH   3  13
BRANCH   5  26
ATOM     26  C   UNL     1      -1.849  12.866  21.012  0.00  0.00    +0.000 A 
ATOM     27  C   UNL     1      -2.866  13.826  20.775  0.00  0.00    +0.000 A 
ATOM     28  C   UNL     1      -3.954  13.979  21.612  0.00  0.00    +0.000 A 
ATOM     29  C   UNL     1      -4.061  13.121  22.693  0.00  0.00    +0.000 A 
ATOM     30  C   UNL     1      -3.043  12.216  23.015  0.00  0.00    +0.000 A 
ATOM     31  C   UNL     1      -1.936  12.093  22.170  0.00  0.00    +0.000 A 
BRANCH  29  32
ATOM     32  S   UNL     1      -5.634  12.981  23.473  0.00  0.00    +0.000 S 
ATOM     33  O   UNL     1      -6.067  14.283  23.923  0.00  0.00    +0.000 OA
ATOM     34  O   UNL     1      -6.476  12.079  22.723  0.00  0.00    +0.000 OA
BRANCH  32  35
ATOM     35  N   UNL     1      -5.134  12.140  24.832  0.00  0.00    +0.000 NA
ATOM     36  H   UNL     1      -5.714  12.328  25.645  0.00  0.00    +0.000 HD
ATOM     37  H   UNL     1      -4.892  11.173  24.632  0.00  0.00    +0.000 HD
ENDBRANCH  32  35
ENDBRANCH  29  32
ENDBRANCH   5  26
TORSDOF 7
ENDMDL
MODEL 4
REMARK VINA RESULT:      -9.2      0.883      1.032
REMARK  Name = 
REMARK  8 active torsions:
REMARK  status: ('A' for Active; 'I' for Inactive)
REMARK    1  A    between atoms: C_1  and  C_2
REMARK    2  A    between atoms: C_6  and  C_7
REMARK    3  A    between atoms: C_9  and  C_10
REMARK    4  A    between atoms: C_13  and  O_14
REMARK    5  A    between atoms: O_14  and  C_15
REMARK    6  A    between atoms: N_24  and  C_25
REMARK    7  A    between atoms: C_28  and  S_29
REMARK    8  A    between atoms: S_29  and  N_30
REMARK                            x       y       z     vdW  Elec       q    Type
REMARK                         _______ _______ _______ _____ _____    ______ ____
ROOT
ATOM      1  C   UNL     1      -0.489  12.504  18.857  0.00  0.00    +0.000 C 
ATOM      2  C   UNL     1       0.812  11.927  18.263  0.00  0.00    +0.000 C 
ATOM      3  C   UNL     1       1.103  10.989  19.394  0.00  0.00    +0.000 C 
ATOM      4  N   UNL     1       0.744  11.455  20.549  0.00  0.00    +0.000 NA
ATOM      5  N   UNL     1      -0.171  12.436  20.305  0.00  0.00    +0.000 N 
ENDROOT
BRANCH   1  11
ATOM      6  C   UNL     1      -5.435  11.704  18.206  0.00  0.00    +0.000 C 
ATOM      7  C   UNL     1      -4.014  11.313  17.932  0.00  0.00    +0.000 A 
ATOM      8  C   UNL     1      -3.731  10.269  17.046  0.00  0.00    +0.000 A 
ATOM      9  C   UNL     1      -2.418   9.860  16.838  0.00  0.00    +0.000 A 
ATOM     10  C   UNL     1      -1.375  10.506  17.495  0.00  0.00    +0.000 A 
ATOM     11  C   UNL     1      -1.617  11.594  18.349  0.00  0.00    +0.000 A 
ATOM     12  C   UNL     1      -2.955  11.973  18.575  0.00  0.00    +0.000 A 
ENDBRANCH   1  11
BRANCH   3  13
ATOM     13  C   UNL     1       1.565   9.609  19.290  0.00  0.00    +0.000 A 
ATOM     14  C   UNL     1       2.066   9.098  18.100  0.00  0.00    +0.000 A 
ATOM     15  C   UNL     1       2.525   7.789  18.075  0.00  0.00    +0.000 A 
ATOM     16  C   UNL     1       2.445   7.006  19.224  0.00  0.00    +0.000 A 
ATOM     17  C   UNL     1       1.727   7.444  20.333  0.00  0.00    +0.000 A 
ATOM     18  C   UNL     1       1.335   8.769  20.388  0.00  0.00    +0.000 A 
BRANCH  16  19
ATOM     19  O   UNL     1       3.106   5.808  19.199  0.00  0.00    +0.000 OA
BRANCH  19  20
ATOM     20  C   UNL     1       2.515   4.709  19.790  0.00  0.00    +0.000 A 
ATOM     21  C   UNL     1       1.574   4.068  18.988  0.00  0.00    +0.000 A 
ATOM     22  C   UNL     1       0.837   2.995  19.488  0.00  0.00    +0.000 A 
ATOM     23  C   UNL     1       1.032   2.566  20.800  0.00  0.00    +0.000 A 
ATOM     24  C   UNL     1       2.004   3.168  21.592  0.00  0.00    +0.000 A 
ATOM     25  C   UNL     1       2.775   4.208  21.073  0.00  0.00    +0.000 A 
ENDBRANCH  19  20
ENDBRANCH  16  19
ENDBRANCH   3  13
BRANCH   5  26
ATOM     26  C   UNL     1      -1.097  12.595  21.340  0.00  0.00    +0.000 A 
ATOM     27  C   UNL     1      -1.763  13.841  21.471  0.00  0.00    +0.000 A 
ATOM     28  C   UNL     1      -2.743  14.065  22.419  0.00  0.00    +0.000 A 
ATOM     29  C   UNL     1      -3.106  13.005  23.233  0.00  0.00    +0.000 A 
ATOM     30  C   UNL     1      -2.420  11.785  23.198  0.00  0.00    +0.000 A 
ATOM     31  C   UNL     1      -1.414  11.585  22.249  0.00  0.00    +0.000 A 
BRANCH  29  32
ATOM     32  S   UNL     1      -4.638  13.123  24.093  0.00  0.00    +0.000 S 
ATOM     33  O   UNL     1      -4.591  12.297  25.277  0.00  0.00    +0.000 OA
ATOM     34  O   UNL     1      -5.094  14.493  24.098  0.00  0.00    +0.000 OA
BRANCH  32  35
ATOM     35  N   UNL     1      -5.584  12.313  22.974  0.00  0.00    +0.000 NA
ATOM     36  H   UNL     1      -5.383  12.590  22.017  0.00  0.00    +0.000 HD
ATOM     37  H   UNL     1      -5.672  11.320  23.176  0.00  0.00    +0.000 HD
ENDBRANCH  32  35
ENDBRANCH  29  32
ENDBRANCH   5  26
TORSDOF 7
ENDMDL
MODEL 5
REMARK VINA RESULT:      -9.2      0.554      1.072
REMARK  Name = 
REMARK  8 active torsions:
REMARK  status: ('A' for Active; 'I' for Inactive)
REMARK    1  A    between atoms: C_1  and  C_2
REMARK    2  A    between atoms: C_6  and  C_7
REMARK    3  A    between atoms: C_9  and  C_10
REMARK    4  A    between atoms: C_13  and  O_14
REMARK    5  A    between atoms: O_14  and  C_15
REMARK    6  A    between atoms: N_24  and  C_25
REMARK    7  A    between atoms: C_28  and  S_29
REMARK    8  A    between atoms: S_29  and  N_30
REMARK                            x       y       z     vdW  Elec       q    Type
REMARK                         _______ _______ _______ _____ _____    ______ ____
ROOT
ATOM      1  C   UNL     1      -0.938  12.605  18.510  0.00  0.00    +0.000 C 
ATOM      2  C   UNL     1       0.439  12.069  18.068  0.00  0.00    +0.000 C 
ATOM      3  C   UNL     1       0.690  11.240  19.290  0.00  0.00    +0.000 C 
ATOM      4  N   UNL     1       0.210  11.769  20.373  0.00  0.00    +0.000 NA
ATOM      5  N   UNL     1      -0.737  12.668  19.979  0.00  0.00    +0.000 N 
ENDROOT
BRANCH   1  11
ATOM      6  C   UNL     1      -5.774  11.311  17.827  0.00  0.00    +0.000 C 
ATOM      7  C   UNL     1      -4.319  11.068  17.559  0.00  0.00    +0.000 A 
ATOM      8  C   UNL     1      -3.927  10.064  16.668  0.00  0.00    +0.000 A 
ATOM      9  C   UNL     1      -2.578   9.791  16.465  0.00  0.00    +0.000 A 
ATOM     10  C   UNL     1      -1.610  10.536  17.131  0.00  0.00    +0.000 A 
ATOM     11  C   UNL     1      -1.965  11.588  17.991  0.00  0.00    +0.000 A 
ATOM     12  C   UNL     1      -3.335  11.829  18.212  0.00  0.00    +0.000 A 
ENDBRANCH   1  11
BRANCH   3  13
ATOM     13  C   UNL     1       1.238   9.889  19.335  0.00  0.00    +0.000 A 
ATOM     14  C   UNL     1       1.782   9.288  18.208  0.00  0.00    +0.000 A 
ATOM     15  C   UNL     1       2.322   8.016  18.323  0.00  0.00    +0.000 A 
ATOM     16  C   UNL     1       2.278   7.354  19.548  0.00  0.00    +0.000 A 
ATOM     17  C   UNL     1       1.522   7.860  20.602  0.00  0.00    +0.000 A 
ATOM     18  C   UNL     1       1.048   9.156  20.515  0.00  0.00    +0.000 A 
BRANCH  16  19
ATOM     19  O   UNL     1       3.013   6.204  19.652  0.00  0.00    +0.000 OA
BRANCH  19  20
ATOM     20  C   UNL     1       2.353   4.992  19.674  0.00  0.00    +0.000 A 
ATOM     21  C   UNL     1       2.061   4.479  18.412  0.00  0.00    +0.000 A 
ATOM     22  C   UNL     1       1.322   3.304  18.284  0.00  0.00    +0.000 A 
ATOM     23  C   UNL     1       0.859   2.642  19.420  0.00  0.00    +0.000 A 
ATOM     24  C   UNL     1       1.187   3.119  20.685  0.00  0.00    +0.000 A 
ATOM     25  C   UNL     1       1.970   4.268  20.811  0.00  0.00    +0.000 A 
ENDBRANCH  19  20
ENDBRANCH  16  19
ENDBRANCH   3  13
BRANCH   5  26
ATOM     26  C   UNL     1      -1.753  12.845  20.922  0.00  0.00    +0.000 A 
ATOM     27  C   UNL     1      -1.823  11.953  22.022  0.00  0.00    +0.000 A 
ATOM     28  C   UNL     1      -2.748  12.094  23.038  0.00  0.00    +0.000 A 
ATOM     29  C   UNL     1      -3.603  13.183  22.985  0.00  0.00    +0.000 A 
ATOM     30  C   UNL     1      -3.628  14.041  21.879  0.00  0.00    +0.000 A 
ATOM     31  C   UNL     1      -2.701  13.867  20.848  0.00  0.00    +0.000 A 
BRANCH  29  32
ATOM     32  S   UNL     1      -4.439  13.639  24.466  0.00  0.00    +0.000 S 
ATOM     33  O   UNL     1      -3.499  14.232  25.388  0.00  0.00    +0.000 OA
ATOM     34  O   UNL     1      -5.718  14.229  24.146  0.00  0.00    +0.000 OA
BRANCH  32  35
ATOM     35  N   UNL     1      -4.758  12.093  25.025  0.00  0.00    +0.000 NA
ATOM     36  H   UNL     1      -4.680  11.389  24.297  0.00  0.00    +0.000 HD
ATOM     37  H   UNL     1      -4.322  11.901  25.924  0.00  0.00    +0.000 HD
ENDBRANCH  32  35
ENDBRANCH  29  32
ENDBRANCH   5  26
TORSDOF 7
ENDMDL
MODEL 6
REMARK VINA RESULT:      -9.1      0.829      1.290
REMARK  Name = 
REMARK  8 active torsions:
REMARK  status: ('A' for Active; 'I' for Inactive)
REMARK    1  A    between atoms: C_1  and  C_2
REMARK    2  A    between atoms: C_6  and  C_7
REMARK    3  A    between atoms: C_9  and  C_10
REMARK    4  A    between atoms: C_13  and  O_14
REMARK    5  A    between atoms: O_14  and  C_15
REMARK    6  A    between atoms: N_24  and  C_25
REMARK    7  A    between atoms: C_28  and  S_29
REMARK    8  A    between atoms: S_29  and  N_30
REMARK                            x       y       z     vdW  Elec       q    Type
REMARK                         _______ _______ _______ _____ _____    ______ ____
ROOT
ATOM      1  C   UNL     1      -0.929  12.513  18.865  0.00  0.00    +0.000 C 
ATOM      2  C   UNL     1       0.445  11.974  18.421  0.00  0.00    +0.000 C 
ATOM      3  C   UNL     1       0.689  11.131  19.635  0.00  0.00    +0.000 C 
ATOM      4  N   UNL     1       0.209  11.651  20.722  0.00  0.00    +0.000 NA
ATOM      5  N   UNL     1      -0.732  12.560  20.335  0.00  0.00    +0.000 N 
ENDROOT
BRANCH   1  11
ATOM      6  C   UNL     1      -5.769  11.293  18.080  0.00  0.00    +0.000 C 
ATOM      7  C   UNL     1      -4.312  11.022  17.850  0.00  0.00    +0.000 A 
ATOM      8  C   UNL     1      -3.917  10.001  16.981  0.00  0.00    +0.000 A 
ATOM      9  C   UNL     1      -2.568   9.703  16.814  0.00  0.00    +0.000 A 
ATOM     10  C   UNL     1      -1.603  10.439  17.494  0.00  0.00    +0.000 A 
ATOM     11  C   UNL     1      -1.961  11.507  18.333  0.00  0.00    +0.000 A 
ATOM     12  C   UNL     1      -3.332  11.774  18.518  0.00  0.00    +0.000 A 
ENDBRANCH   1  11
BRANCH   3  13
ATOM     13  C   UNL     1       1.229   9.776  19.667  0.00  0.00    +0.000 A 
ATOM     14  C   UNL     1       1.796   9.194  18.542  0.00  0.00    +0.000 A 
ATOM     15  C   UNL     1       2.327   7.916  18.645  0.00  0.00    +0.000 A 
ATOM     16  C   UNL     1       2.252   7.232  19.857  0.00  0.00    +0.000 A 
ATOM     17  C   UNL     1       1.475   7.723  20.902  0.00  0.00    +0.000 A 
ATOM     18  C   UNL     1       1.008   9.023  20.829  0.00  0.00    +0.000 A 
BRANCH  16  19
ATOM     19  O   UNL     1       2.979   6.077  19.956  0.00  0.00    +0.000 OA
BRANCH  19  20
ATOM     20  C   UNL     1       2.791   5.089  19.010  0.00  0.00    +0.000 A 
ATOM     21  C   UNL     1       1.630   4.341  19.190  0.00  0.00    +0.000 A 
ATOM     22  C   UNL     1       1.357   3.255  18.360  0.00  0.00    +0.000 A 
ATOM     23  C   UNL     1       2.253   2.905  17.351  0.00  0.00    +0.000 A 
ATOM     24  C   UNL     1       3.390   3.676  17.131  0.00  0.00    +0.000 A 
ATOM     25  C   UNL     1       3.635   4.792  17.932  0.00  0.00    +0.000 A 
ENDBRANCH  19  20
ENDBRANCH  16  19
ENDBRANCH   3  13
BRANCH   5  26
ATOM     26  C   UNL     1      -1.749  12.733  21.277  0.00  0.00    +0.000 A 
ATOM     27  C   UNL     1      -2.708  13.756  21.062  0.00  0.00    +0.000 A 
ATOM     28  C   UNL     1      -3.786  13.954  21.903  0.00  0.00    +0.000 A 
ATOM     29  C   UNL     1      -3.945  13.080  22.965  0.00  0.00    +0.000 A 
ATOM     30  C   UNL     1      -2.981  12.110  23.266  0.00  0.00    +0.000 A 
ATOM     31  C   UNL     1      -1.883  11.941  22.419  0.00  0.00    +0.000 A 
BRANCH  29  32
ATOM     32  S   UNL     1      -5.523  13.015  23.742  0.00  0.00    +0.000 S 
ATOM     33  O   UNL     1      -5.498  12.040  24.807  0.00  0.00    +0.000 OA
ATOM     34  O   UNL     1      -6.048  14.351  23.901  0.00  0.00    +0.000 OA
BRANCH  32  35
ATOM     35  N   UNL     1      -6.368  12.324  22.472  0.00  0.00    +0.000 NA
ATOM     36  H   UNL     1      -6.378  11.308  22.515  0.00  0.00    +0.000 HD
ATOM     37  H   UNL     1      -7.243  12.802  22.273  0.00  0.00    +0.000 HD
ENDBRANCH  32  35
ENDBRANCH  29  32
ENDBRANCH   5  26
TORSDOF 7
ENDMDL
MODEL 7
REMARK VINA RESULT:      -9.1      0.964      1.606
REMARK  Name = 
REMARK  8 active torsions:
REMARK  status: ('A' for Active; 'I' for Inactive)
REMARK    1  A    between atoms: C_1  and  C_2
REMARK    2  A    between atoms: C_6  and  C_7
REMARK    3  A    between atoms: C_9  and  C_10
REMARK    4  A    between atoms: C_13  and  O_14
REMARK    5  A    between atoms: O_14  and  C_15
REMARK    6  A    between atoms: N_24  and  C_25
REMARK    7  A    between atoms: C_28  and  S_29
REMARK    8  A    between atoms: S_29  and  N_30
REMARK                            x       y       z     vdW  Elec       q    Type
REMARK                         _______ _______ _______ _____ _____    ______ ____
ROOT
ATOM      1  C   UNL     1      -0.732  12.478  18.675  0.00  0.00    +0.000 C 
ATOM      2  C   UNL     1       0.605  11.887  18.184  0.00  0.00    +0.000 C 
ATOM      3  C   UNL     1       0.870  11.055  19.400  0.00  0.00    +0.000 C 
ATOM      4  N   UNL     1       0.452  11.606  20.497  0.00  0.00    +0.000 NA
ATOM      5  N   UNL     1      -0.474  12.539  20.134  0.00  0.00    +0.000 N 
ENDROOT
BRANCH   1  11
ATOM      6  C   UNL     1      -5.636  11.435  18.048  0.00  0.00    +0.000 C 
ATOM      7  C   UNL     1      -4.198  11.097  17.791  0.00  0.00    +0.000 A 
ATOM      8  C   UNL     1      -3.866  10.034  16.945  0.00  0.00    +0.000 A 
ATOM      9  C   UNL     1      -2.535   9.676  16.754  0.00  0.00    +0.000 A 
ATOM     10  C   UNL     1      -1.524  10.393  17.388  0.00  0.00    +0.000 A 
ATOM     11  C   UNL     1      -1.817  11.500  18.200  0.00  0.00    +0.000 A 
ATOM     12  C   UNL     1      -3.171  11.828  18.410  0.00  0.00    +0.000 A 
ENDBRANCH   1  11
BRANCH   3  13
ATOM     13  C   UNL     1       1.367   9.683  19.431  0.00  0.00    +0.000 A 
ATOM     14  C   UNL     1       1.879   9.070  18.296  0.00  0.00    +0.000 A 
ATOM     15  C   UNL     1       2.370   7.777  18.398  0.00  0.00    +0.000 A 
ATOM     16  C   UNL     1       2.311   7.109  19.619  0.00  0.00    +0.000 A 
ATOM     17  C   UNL     1       1.584   7.636  20.683  0.00  0.00    +0.000 A 
ATOM     18  C   UNL     1       1.158   8.950  20.608  0.00  0.00    +0.000 A 
BRANCH  16  19
ATOM     19  O   UNL     1       3.003   5.932  19.710  0.00  0.00    +0.000 OA
BRANCH  19  20
ATOM     20  C   UNL     1       2.383   4.763  19.313  0.00  0.00    +0.000 A 
ATOM     21  C   UNL     1       1.574   4.188  20.289  0.00  0.00    +0.000 A 
ATOM     22  C   UNL     1       0.954   2.961  20.056  0.00  0.00    +0.000 A 
ATOM     23  C   UNL     1       1.153   2.297  18.846  0.00  0.00    +0.000 A 
ATOM     24  C   UNL     1       1.919   2.887  17.847  0.00  0.00    +0.000 A 
ATOM     25  C   UNL     1       2.497   4.138  18.064  0.00  0.00    +0.000 A 
ENDBRANCH  19  20
ENDBRANCH  16  19
ENDBRANCH   3  13
BRANCH   5  26
ATOM     26  C   UNL     1      -1.445  12.760  21.114  0.00  0.00    +0.000 A 
ATOM     27  C   UNL     1      -1.615  11.788  22.134  0.00  0.00    +0.000 A 
ATOM     28  C   UNL     1      -2.501  11.955  23.181  0.00  0.00    +0.000 A 
ATOM     29  C   UNL     1      -3.208  13.145  23.244  0.00  0.00    +0.000 A 
ATOM     30  C   UNL     1      -3.137  14.095  22.218  0.00  0.00    +0.000 A 
ATOM     31  C   UNL     1      -2.254  13.896  21.153  0.00  0.00    +0.000 A 
BRANCH  29  32
ATOM     32  S   UNL     1      -3.958  13.569  24.779  0.00  0.00    +0.000 S 
ATOM     33  O   UNL     1      -4.461  12.375  25.417  0.00  0.00    +0.000 OA
ATOM     34  O   UNL     1      -3.156  14.557  25.462  0.00  0.00    +0.000 OA
BRANCH  32  35
ATOM     35  N   UNL     1      -5.285  14.383  24.160  0.00  0.00    +0.000 NA
ATOM     36  H   UNL     1      -6.107  13.790  24.084  0.00  0.00    +0.000 HD
ATOM     37  H   UNL     1      -5.400  15.311  24.559  0.00  0.00    +0.000 HD
ENDBRANCH  32  35
ENDBRANCH  29  32
ENDBRANCH   5  26
TORSDOF 7
ENDMDL
MODEL 8
REMARK VINA RESULT:      -9.1      1.160      1.907
REMARK  Name = 
REMARK  8 active torsions:
REMARK  status: ('A' for Active; 'I' for Inactive)
REMARK    1  A    between atoms: C_1  and  C_2
REMARK    2  A    between atoms: C_6  and  C_7
REMARK    3  A    between atoms: C_9  and  C_10
REMARK    4  A    between atoms: C_13  and  O_14
REMARK    5  A    between atoms: O_14  and  C_15
REMARK    6  A    between atoms: N_24  and  C_25
REMARK    7  A    between atoms: C_28  and  S_29
REMARK    8  A    between atoms: S_29  and  N_30
REMARK                            x       y       z     vdW  Elec       q    Type
REMARK                         _______ _______ _______ _____ _____    ______ ____
ROOT
ATOM      1  C   UNL     1      -0.729  12.425  18.897  0.00  0.00    +0.000 C 
ATOM      2  C   UNL     1       0.629  11.822  18.484  0.00  0.00    +0.000 C 
ATOM      3  C   UNL     1       0.786  10.941  19.685  0.00  0.00    +0.000 C 
ATOM      4  N   UNL     1       0.298  11.461  20.768  0.00  0.00    +0.000 NA
ATOM      5  N   UNL     1      -0.579  12.428  20.373  0.00  0.00    +0.000 N 
ENDROOT
BRANCH   1  11
ATOM      6  C   UNL     1      -5.593  11.515  17.876  0.00  0.00    +0.000 C 
ATOM      7  C   UNL     1      -4.147  11.155  17.711  0.00  0.00    +0.000 A 
ATOM      8  C   UNL     1      -3.774  10.118  16.851  0.00  0.00    +0.000 A 
ATOM      9  C   UNL     1      -2.440   9.737  16.744  0.00  0.00    +0.000 A 
ATOM     10  C   UNL     1      -1.465  10.408  17.476  0.00  0.00    +0.000 A 
ATOM     11  C   UNL     1      -1.795  11.490  18.308  0.00  0.00    +0.000 A 
ATOM     12  C   UNL     1      -3.154  11.840  18.431  0.00  0.00    +0.000 A 
ENDBRANCH   1  11
BRANCH   3  13
ATOM     13  C   UNL     1       1.251   9.558  19.700  0.00  0.00    +0.000 A 
ATOM     14  C   UNL     1       1.233   8.799  20.862  0.00  0.00    +0.000 A 
ATOM     15  C   UNL     1       1.654   7.478  20.805  0.00  0.00    +0.000 A 
ATOM     16  C   UNL     1       2.115   6.951  19.601  0.00  0.00    +0.000 A 
ATOM     17  C   UNL     1       2.354   7.779  18.508  0.00  0.00    +0.000 A 
ATOM     18  C   UNL     1       1.870   9.074  18.539  0.00  0.00    +0.000 A 
BRANCH  16  19
ATOM     19  O   UNL     1       2.306   5.597  19.556  0.00  0.00    +0.000 OA
BRANCH  19  20
ATOM     20  C   UNL     1       3.348   5.097  18.800  0.00  0.00    +0.000 A 
ATOM     21  C   UNL     1       4.603   5.261  19.380  0.00  0.00    +0.000 A 
ATOM     22  C   UNL     1       5.753   4.881  18.690  0.00  0.00    +0.000 A 
ATOM     23  C   UNL     1       5.652   4.344  17.407  0.00  0.00    +0.000 A 
ATOM     24  C   UNL     1       4.401   4.130  16.839  0.00  0.00    +0.000 A 
ATOM     25  C   UNL     1       3.250   4.465  17.553  0.00  0.00    +0.000 A 
ENDBRANCH  19  20
ENDBRANCH  16  19
ENDBRANCH   3  13
BRANCH   5  26
ATOM     26  C   UNL     1      -1.616  12.635  21.286  0.00  0.00    +0.000 A 
ATOM     27  C   UNL     1      -2.538  13.685  21.041  0.00  0.00    +0.000 A 
ATOM     28  C   UNL     1      -3.634  13.917  21.851  0.00  0.00    +0.000 A 
ATOM     29  C   UNL     1      -3.846  13.053  22.912  0.00  0.00    +0.000 A 
ATOM     30  C   UNL     1      -2.920  12.057  23.243  0.00  0.00    +0.000 A 
ATOM     31  C   UNL     1      -1.804  11.853  22.427  0.00  0.00    +0.000 A 
BRANCH  29  32
ATOM     32  S   UNL     1      -5.447  13.038  23.645  0.00  0.00    +0.000 S 
ATOM     33  O   UNL     1      -5.782  14.366  24.100  0.00  0.00    +0.000 OA
ATOM     34  O   UNL     1      -6.340  12.218  22.859  0.00  0.00    +0.000 OA
BRANCH  32  35
ATOM     35  N   UNL     1      -5.059  12.142  25.006  0.00  0.00    +0.000 NA
ATOM     36  H   UNL     1      -4.977  11.148  24.811  0.00  0.00    +0.000 HD
ATOM     37  H   UNL     1      -4.337  12.579  25.573  0.00  0.00    +0.000 HD
ENDBRANCH  32  35
ENDBRANCH  29  32
ENDBRANCH   5  26
TORSDOF 7
ENDMDL
MODEL 9
REMARK VINA RESULT:      -9.0      1.549      1.989
REMARK  Name = 
REMARK  8 active torsions:
REMARK  status: ('A' for Active; 'I' for Inactive)
REMARK    1  A    between atoms: C_1  and  C_2
REMARK    2  A    between atoms: C_6  and  C_7
REMARK    3  A    between atoms: C_9  and  C_10
REMARK    4  A    between atoms: C_13  and  O_14
REMARK    5  A    between atoms: O_14  and  C_15
REMARK    6  A    between atoms: N_24  and  C_25
REMARK    7  A    between atoms: C_28  and  S_29
REMARK    8  A    between atoms: S_29  and  N_30
REMARK                            x       y       z     vdW  Elec       q    Type
REMARK                         _______ _______ _______ _____ _____    ______ ____
ROOT
ATOM      1  C   UNL     1      -0.332  12.236  18.961  0.00  0.00    +0.000 C 
ATOM      2  C   UNL     1       0.978  11.579  18.480  0.00  0.00    +0.000 C 
ATOM      3  C   UNL     1       1.134  10.657  19.650  0.00  0.00    +0.000 C 
ATOM      4  N   UNL     1       0.714  11.170  20.764  0.00  0.00    +0.000 NA
ATOM      5  N   UNL     1      -0.127  12.190  20.429  0.00  0.00    +0.000 N 
ENDROOT
BRANCH   1  11
ATOM      6  C   UNL     1      -5.255  11.656  17.984  0.00  0.00    +0.000 C 
ATOM      7  C   UNL     1      -3.838  11.195  17.812  0.00  0.00    +0.000 A 
ATOM      8  C   UNL     1      -3.546  10.126  16.960  0.00  0.00    +0.000 A 
ATOM      9  C   UNL     1      -2.242   9.653  16.847  0.00  0.00    +0.000 A 
ATOM     10  C   UNL     1      -1.217  10.261  17.565  0.00  0.00    +0.000 A 
ATOM     11  C   UNL     1      -1.465  11.371  18.388  0.00  0.00    +0.000 A 
ATOM     12  C   UNL     1      -2.795  11.816  18.518  0.00  0.00    +0.000 A 
ENDBRANCH   1  11
BRANCH   3  13
ATOM     13  C   UNL     1       1.530   9.253  19.612  0.00  0.00    +0.000 A 
ATOM     14  C   UNL     1       2.028   8.670  18.455  0.00  0.00    +0.000 A 
ATOM     15  C   UNL     1       2.422   7.341  18.492  0.00  0.00    +0.000 A 
ATOM     16  C   UNL     1       2.281   6.610  19.670  0.00  0.00    +0.000 A 
ATOM     17  C   UNL     1       1.564   7.128  20.745  0.00  0.00    +0.000 A 
ATOM     18  C   UNL     1       1.236   8.471  20.738  0.00  0.00    +0.000 A 
BRANCH  16  19
ATOM     19  O   UNL     1       2.884   5.382  19.707  0.00  0.00    +0.000 OA
BRANCH  19  20
ATOM     20  C   UNL     1       3.923   5.124  18.834  0.00  0.00    +0.000 A 
ATOM     21  C   UNL     1       3.530   4.515  17.645  0.00  0.00    +0.000 A 
ATOM     22  C   UNL     1       4.484   4.119  16.709  0.00  0.00    +0.000 A 
ATOM     23  C   UNL     1       5.840   4.321  16.965  0.00  0.00    +0.000 A 
ATOM     24  C   UNL     1       6.239   4.972  18.127  0.00  0.00    +0.000 A 
ATOM     25  C   UNL     1       5.279   5.412  19.039  0.00  0.00    +0.000 A 
ENDBRANCH  19  20
ENDBRANCH  16  19
ENDBRANCH   3  13
BRANCH   5  26
ATOM     26  C   UNL     1      -1.118  12.422  21.387  0.00  0.00    +0.000 A 
ATOM     27  C   UNL     1      -1.894  13.605  21.289  0.00  0.00    +0.000 A 
ATOM     28  C   UNL     1      -2.940  13.882  22.148  0.00  0.00    +0.000 A 
ATOM     29  C   UNL     1      -3.256  12.934  23.107  0.00  0.00    +0.000 A 
ATOM     30  C   UNL     1      -2.468  11.792  23.296  0.00  0.00    +0.000 A 
ATOM     31  C   UNL     1      -1.398  11.541  22.433  0.00  0.00    +0.000 A 
BRANCH  29  32
ATOM     32  S   UNL     1      -4.837  13.042  23.874  0.00  0.00    +0.000 S 
ATOM     33  O   UNL     1      -4.930  12.059  24.928  0.00  0.00    +0.000 OA
ATOM     34  O   UNL     1      -5.206  14.428  24.045  0.00  0.00    +0.000 OA
BRANCH  32  35
ATOM     35  N   UNL     1      -5.747  12.466  22.592  0.00  0.00    +0.000 NA
ATOM     36  H   UNL     1      -6.079  13.208  21.982  0.00  0.00    +0.000 HD
ATOM     37  H   UNL     1      -5.341  11.639  22.160  0.00  0.00    +0.000 HD
ENDBRANCH  32  35
ENDBRANCH  29  32
ENDBRANCH   5  26
TORSDOF 7
ENDMDL
