MODEL 1
REMARK VINA RESULT:      -7.2      0.000      0.000
REMARK  Name = 
REMARK  6 active torsions:
REMARK  status: ('A' for Active; 'I' for Inactive)
REMARK    1  A    between atoms: C_1  and  C_2
REMARK    2  A    between atoms: C_8  and  C_9
REMARK    3  A    between atoms: N_11  and  C_12
REMARK    4  A    between atoms: C_12  and  C_13
REMARK    5  A    between atoms: C_12  and  C_14
REMARK    6  A    between atoms: C_14  and  N_15
REMARK                            x       y       z     vdW  Elec       q    Type
REMARK                         _______ _______ _______ _____ _____    ______ ____
ROOT
ATOM      1  C   UNL     1       4.670   4.737  19.185  0.00  0.00    +0.000 C 
ATOM      2  O   UNL     1       4.155   5.775  19.604  0.00  0.00    +0.000 OA
ATOM      3  N   UNL     1       6.020   4.638  18.903  0.00  0.00    +0.000 N 
ATOM      4  H   UNL     1       6.401   3.734  18.643  0.00  0.00    +0.000 HD
ENDROOT
BRANCH   1  12
ATOM      5  C   UNL     1       1.525   2.539  21.653  0.00  0.00    +0.000 C 
ATOM      6  C   UNL     1       2.803   2.755  20.885  0.00  0.00    +0.000 C 
ATOM      7  O   UNL     1       3.888   2.398  21.345  0.00  0.00    +0.000 OA
ATOM      8  N   UNL     1       2.687   3.306  19.633  0.00  0.00    +0.000 N 
ATOM      9  C   UNL     1       1.485   3.746  18.957  0.00  0.00    +0.000 C 
ATOM     10  C   UNL     1       1.785   3.436  17.503  0.00  0.00    +0.000 C 
ATOM     11  C   UNL     1       3.287   3.692  17.369  0.00  0.00    +0.000 C 
ATOM     12  C   UNL     1       3.857   3.488  18.782  0.00  0.00    +0.000 C 
ENDBRANCH   1  12
BRANCH   3  13
ATOM     13  C   UNL     1       6.937   5.758  19.093  0.00  0.00    +0.000 C 
ATOM     14  C   UNL     1       8.219   5.271  19.769  0.00  0.00    +0.000 C 
BRANCH  13  15
ATOM     15  C   UNL     1       7.277   6.462  17.771  0.00  0.00    +0.000 C 
BRANCH  15  16
ATOM     16  N   UNL     1       6.772   5.753  16.606  0.00  0.00    +0.000 N 
ATOM     17  C   UNL     1       5.679   6.081  15.859  0.00  0.00    +0.000 A 
ATOM     18  C   UNL     1       5.639   5.172  14.828  0.00  0.00    +0.000 A 
ATOM     19  C   UNL     1       6.750   4.338  15.043  0.00  0.00    +0.000 A 
ATOM     20  N   UNL     1       7.448   4.687  16.127  0.00  0.00    +0.000 NA
ENDBRANCH  15  16
ENDBRANCH  13  15
ENDBRANCH   3  13
TORSDOF 4
ENDMDL
MODEL 2
REMARK VINA RESULT:      -6.8      1.942      2.502
REMARK  Name = 
REMARK  6 active torsions:
REMARK  status: ('A' for Active; 'I' for Inactive)
REMARK    1  A    between atoms: C_1  and  C_2
REMARK    2  A    between atoms: C_8  and  C_9
REMARK    3  A    between atoms: N_11  and  C_12
REMARK    4  A    between atoms: C_12  and  C_13
REMARK    5  A    between atoms: C_12  and  C_14
REMARK    6  A    between atoms: C_14  and  N_15
REMARK                            x       y       z     vdW  Elec       q    Type
REMARK                         _______ _______ _______ _____ _____    ______ ____
ROOT
ATOM      1  C   UNL     1       4.260   6.039  17.769  0.00  0.00    +0.000 C 
ATOM      2  O   UNL     1       4.456   6.605  16.693  0.00  0.00    +0.000 OA
ATOM      3  N   UNL     1       5.291   5.544  18.547  0.00  0.00    +0.000 N 
ATOM      4  H   UNL     1       5.074   5.164  19.463  0.00  0.00    +0.000 HD
ENDROOT
BRANCH   1  12
ATOM      5  C   UNL     1       2.514   1.879  18.443  0.00  0.00    +0.000 C 
ATOM      6  C   UNL     1       2.653   3.263  17.863  0.00  0.00    +0.000 C 
ATOM      7  O   UNL     1       2.590   3.450  16.648  0.00  0.00    +0.000 OA
ATOM      8  N   UNL     1       2.786   4.297  18.756  0.00  0.00    +0.000 N 
ATOM      9  C   UNL     1       2.848   4.230  20.200  0.00  0.00    +0.000 C 
ATOM     10  C   UNL     1       2.160   5.513  20.625  0.00  0.00    +0.000 C 
ATOM     11  C   UNL     1       2.554   6.523  19.545  0.00  0.00    +0.000 C 
ATOM     12  C   UNL     1       2.855   5.679  18.296  0.00  0.00    +0.000 C 
ENDBRANCH   1  12
BRANCH   3  13
ATOM     13  C   UNL     1       6.691   5.667  18.152  0.00  0.00    +0.000 C 
ATOM     14  C   UNL     1       7.552   5.964  19.380  0.00  0.00    +0.000 C 
BRANCH  13  15
ATOM     15  C   UNL     1       7.208   4.409  17.441  0.00  0.00    +0.000 C 
BRANCH  15  16
ATOM     16  N   UNL     1       6.907   4.398  16.018  0.00  0.00    +0.000 N 
ATOM     17  C   UNL     1       5.939   3.669  15.392  0.00  0.00    +0.000 A 
ATOM     18  C   UNL     1       5.984   4.038  14.068  0.00  0.00    +0.000 A 
ATOM     19  C   UNL     1       7.012   4.994  13.998  0.00  0.00    +0.000 A 
ATOM     20  N   UNL     1       7.581   5.219  15.186  0.00  0.00    +0.000 NA
ENDBRANCH  15  16
ENDBRANCH  13  15
ENDBRANCH   3  13
TORSDOF 4
ENDMDL
MODEL 3
REMARK VINA RESULT:      -6.8      1.929      3.344
REMARK  Name = 
REMARK  6 active torsions:
REMARK  status: ('A' for Active; 'I' for Inactive)
REMARK    1  A    between atoms: C_1  and  C_2
REMARK    2  A    between atoms: C_8  and  C_9
REMARK    3  A    between atoms: N_11  and  C_12
REMARK    4  A    between atoms: C_12  and  C_13
REMARK    5  A    between atoms: C_12  and  C_14
REMARK    6  A    between atoms: C_14  and  N_15
REMARK                            x       y       z     vdW  Elec       q    Type
REMARK                         _______ _______ _______ _____ _____    ______ ____
ROOT
ATOM      1  C   UNL     1       3.966   4.086  17.052  0.00  0.00    +0.000 C 
ATOM      2  O   UNL     1       4.294   3.000  17.530  0.00  0.00    +0.000 OA
ATOM      3  N   UNL     1       4.667   4.689  16.023  0.00  0.00    +0.000 N 
ATOM      4  H   UNL     1       4.299   5.542  15.614  0.00  0.00    +0.000 HD
ENDROOT
BRANCH   1  12
ATOM      5  C   UNL     1       1.047   3.028  20.394  0.00  0.00    +0.000 C 
ATOM      6  C   UNL     1       1.519   3.413  19.016  0.00  0.00    +0.000 C 
ATOM      7  O   UNL     1       1.093   2.836  18.016  0.00  0.00    +0.000 OA
ATOM      8  N   UNL     1       2.387   4.474  18.933  0.00  0.00    +0.000 N 
ATOM      9  C   UNL     1       2.947   5.258  20.013  0.00  0.00    +0.000 C 
ATOM     10  C   UNL     1       3.061   6.640  19.398  0.00  0.00    +0.000 C 
ATOM     11  C   UNL     1       3.405   6.369  17.933  0.00  0.00    +0.000 C 
ATOM     12  C   UNL     1       2.844   4.969  17.640  0.00  0.00    +0.000 C 
ENDBRANCH   1  12
BRANCH   3  13
ATOM     13  C   UNL     1       5.844   4.071  15.419  0.00  0.00    +0.000 C 
ATOM     14  C   UNL     1       5.536   3.668  13.977  0.00  0.00    +0.000 C 
BRANCH  13  15
ATOM     15  C   UNL     1       7.069   4.996  15.455  0.00  0.00    +0.000 C 
BRANCH  15  16
ATOM     16  N   UNL     1       7.326   5.546  16.776  0.00  0.00    +0.000 N 
ATOM     17  C   UNL     1       7.470   4.848  17.939  0.00  0.00    +0.000 A 
ATOM     18  C   UNL     1       7.769   5.780  18.905  0.00  0.00    +0.000 A 
ATOM     19  C   UNL     1       7.781   7.010  18.224  0.00  0.00    +0.000 A 
ATOM     20  N   UNL     1       7.511   6.875  16.922  0.00  0.00    +0.000 NA
ENDBRANCH  15  16
ENDBRANCH  13  15
ENDBRANCH   3  13
TORSDOF 4
ENDMDL
MODEL 4
REMARK VINA RESULT:      -6.5      1.642      3.329
REMARK  Name = 
REMARK  6 active torsions:
REMARK  status: ('A' for Active; 'I' for Inactive)
REMARK    1  A    between atoms: C_1  and  C_2
REMARK    2  A    between atoms: C_8  and  C_9
REMARK    3  A    between atoms: N_11  and  C_12
REMARK    4  A    between atoms: C_12  and  C_13
REMARK    5  A    between atoms: C_12  and  C_14
REMARK    6  A    between atoms: C_14  and  N_15
REMARK                            x       y       z     vdW  Elec       q    Type
REMARK                         _______ _______ _______ _____ _____    ______ ____
ROOT
ATOM      1  C   UNL     1       4.031   3.128  18.124  0.00  0.00    +0.000 C 
ATOM      2  O   UNL     1       3.590   2.157  17.510  0.00  0.00    +0.000 OA
ATOM      3  N   UNL     1       5.016   3.951  17.608  0.00  0.00    +0.000 N 
ATOM      4  H   UNL     1       5.278   4.784  18.123  0.00  0.00    +0.000 HD
ENDROOT
BRANCH   1  12
ATOM      5  C   UNL     1       2.237   6.989  19.761  0.00  0.00    +0.000 C 
ATOM      6  C   UNL     1       3.236   5.877  19.578  0.00  0.00    +0.000 C 
ATOM      7  O   UNL     1       4.431   6.119  19.406  0.00  0.00    +0.000 OA
ATOM      8  N   UNL     1       2.758   4.594  19.678  0.00  0.00    +0.000 N 
ATOM      9  C   UNL     1       1.396   4.161  19.903  0.00  0.00    +0.000 C 
ATOM     10  C   UNL     1       1.576   2.899  20.725  0.00  0.00    +0.000 C 
ATOM     11  C   UNL     1       2.859   2.275  20.173  0.00  0.00    +0.000 C 
ATOM     12  C   UNL     1       3.658   3.450  19.588  0.00  0.00    +0.000 C 
ENDBRANCH   1  12
BRANCH   3  13
ATOM     13  C   UNL     1       5.596   3.731  16.286  0.00  0.00    +0.000 C 
ATOM     14  C   UNL     1       4.771   4.465  15.228  0.00  0.00    +0.000 C 
BRANCH  13  15
ATOM     15  C   UNL     1       7.062   4.180  16.212  0.00  0.00    +0.000 C 
BRANCH  15  16
ATOM     16  N   UNL     1       7.421   5.117  17.264  0.00  0.00    +0.000 N 
ATOM     17  C   UNL     1       7.429   6.479  17.181  0.00  0.00    +0.000 A 
ATOM     18  C   UNL     1       7.763   6.933  18.435  0.00  0.00    +0.000 A 
ATOM     19  C   UNL     1       7.938   5.768  19.203  0.00  0.00    +0.000 A 
ATOM     20  N   UNL     1       7.731   4.654  18.494  0.00  0.00    +0.000 NA
ENDBRANCH  15  16
ENDBRANCH  13  15
ENDBRANCH   3  13
TORSDOF 4
ENDMDL
MODEL 5
REMARK VINA RESULT:      -6.4      1.826      2.428
REMARK  Name = 
REMARK  6 active torsions:
REMARK  status: ('A' for Active; 'I' for Inactive)
REMARK    1  A    between atoms: C_1  and  C_2
REMARK    2  A    between atoms: C_8  and  C_9
REMARK    3  A    between atoms: N_11  and  C_12
REMARK    4  A    between atoms: C_12  and  C_13
REMARK    5  A    between atoms: C_12  and  C_14
REMARK    6  A    between atoms: C_14  and  N_15
REMARK                            x       y       z     vdW  Elec       q    Type
REMARK                         _______ _______ _______ _____ _____    ______ ____
ROOT
ATOM      1  C   UNL     1       4.517   5.212  18.678  0.00  0.00    +0.000 C 
ATOM      2  O   UNL     1       4.942   4.362  19.461  0.00  0.00    +0.000 OA
ATOM      3  N   UNL     1       5.351   5.958  17.864  0.00  0.00    +0.000 N 
ATOM      4  H   UNL     1       4.938   6.582  17.180  0.00  0.00    +0.000 HD
ENDROOT
BRANCH   1  12
ATOM      5  C   UNL     1       0.810   2.556  18.757  0.00  0.00    +0.000 C 
ATOM      6  C   UNL     1       1.804   3.558  18.230  0.00  0.00    +0.000 C 
ATOM      7  O   UNL     1       2.241   3.473  17.082  0.00  0.00    +0.000 OA
ATOM      8  N   UNL     1       2.140   4.593  19.066  0.00  0.00    +0.000 N 
ATOM      9  C   UNL     1       1.689   4.834  20.420  0.00  0.00    +0.000 C 
ATOM     10  C   UNL     1       1.644   6.348  20.494  0.00  0.00    +0.000 C 
ATOM     11  C   UNL     1       2.817   6.799  19.622  0.00  0.00    +0.000 C 
ATOM     12  C   UNL     1       3.038   5.653  18.622  0.00  0.00    +0.000 C 
ENDBRANCH   1  12
BRANCH   3  13
ATOM     13  C   UNL     1       6.801   5.781  17.869  0.00  0.00    +0.000 C 
ATOM     14  C   UNL     1       7.326   5.841  19.303  0.00  0.00    +0.000 C 
BRANCH  13  15
ATOM     15  C   UNL     1       7.228   4.463  17.208  0.00  0.00    +0.000 C 
BRANCH  15  16
ATOM     16  N   UNL     1       6.948   4.427  15.782  0.00  0.00    +0.000 N 
ATOM     17  C   UNL     1       6.017   3.658  15.149  0.00  0.00    +0.000 A 
ATOM     18  C   UNL     1       6.067   4.015  13.823  0.00  0.00    +0.000 A 
ATOM     19  C   UNL     1       7.061   5.007  13.757  0.00  0.00    +0.000 A 
ATOM     20  N   UNL     1       7.604   5.265  14.951  0.00  0.00    +0.000 NA
ENDBRANCH  15  16
ENDBRANCH  13  15
ENDBRANCH   3  13
TORSDOF 4
ENDMDL
MODEL 6
REMARK VINA RESULT:      -6.3      2.105      3.236
REMARK  Name = 
REMARK  6 active torsions:
REMARK  status: ('A' for Active; 'I' for Inactive)
REMARK    1  A    between atoms: C_1  and  C_2
REMARK    2  A    between atoms: C_8  and  C_9
REMARK    3  A    between atoms: N_11  and  C_12
REMARK    4  A    between atoms: C_12  and  C_13
REMARK    5  A    between atoms: C_12  and  C_14
REMARK    6  A    between atoms: C_14  and  N_15
REMARK                            x       y       z     vdW  Elec       q    Type
REMARK                         _______ _______ _______ _____ _____    ______ ____
ROOT
ATOM      1  C   UNL     1       1.721   4.113  18.225  0.00  0.00    +0.000 C 
ATOM      2  O   UNL     1       1.104   4.276  17.172  0.00  0.00    +0.000 OA
ATOM      3  N   UNL     1       2.743   4.954  18.627  0.00  0.00    +0.000 N 
ATOM      4  H   UNL     1       3.157   4.819  19.543  0.00  0.00    +0.000 HD
ENDROOT
BRANCH   1  12
ATOM      5  C   UNL     1       4.971   1.425  19.963  0.00  0.00    +0.000 C 
ATOM      6  C   UNL     1       3.762   1.817  19.154  0.00  0.00    +0.000 C 
ATOM      7  O   UNL     1       3.646   1.471  17.978  0.00  0.00    +0.000 OA
ATOM      8  N   UNL     1       2.779   2.516  19.810  0.00  0.00    +0.000 N 
ATOM      9  C   UNL     1       2.767   2.965  21.185  0.00  0.00    +0.000 C 
ATOM     10  C   UNL     1       1.300   2.864  21.557  0.00  0.00    +0.000 C 
ATOM     11  C   UNL     1       0.562   3.227  20.268  0.00  0.00    +0.000 C 
ATOM     12  C   UNL     1       1.539   2.878  19.134  0.00  0.00    +0.000 C 
ENDBRANCH   1  12
BRANCH   3  13
ATOM     13  C   UNL     1       3.157   6.108  17.832  0.00  0.00    +0.000 C 
ATOM     14  C   UNL     1       2.405   7.355  18.299  0.00  0.00    +0.000 C 
BRANCH  13  15
ATOM     15  C   UNL     1       4.671   6.351  17.904  0.00  0.00    +0.000 C 
BRANCH  15  16
ATOM     16  N   UNL     1       5.430   5.454  17.048  0.00  0.00    +0.000 N 
ATOM     17  C   UNL     1       6.782   5.443  16.869  0.00  0.00    +0.000 A 
ATOM     18  C   UNL     1       7.045   4.382  16.034  0.00  0.00    +0.000 A 
ATOM     19  C   UNL     1       5.785   3.819  15.764  0.00  0.00    +0.000 A 
ATOM     20  N   UNL     1       4.793   4.468  16.381  0.00  0.00    +0.000 NA
ENDBRANCH  15  16
ENDBRANCH  13  15
ENDBRANCH   3  13
TORSDOF 4
ENDMDL
MODEL 7
REMARK VINA RESULT:      -6.1      1.889      2.517
REMARK  Name = 
REMARK  6 active torsions:
REMARK  status: ('A' for Active; 'I' for Inactive)
REMARK    1  A    between atoms: C_1  and  C_2
REMARK    2  A    between atoms: C_8  and  C_9
REMARK    3  A    between atoms: N_11  and  C_12
REMARK    4  A    between atoms: C_12  and  C_13
REMARK    5  A    between atoms: C_12  and  C_14
REMARK    6  A    between atoms: C_14  and  N_15
REMARK                            x       y       z     vdW  Elec       q    Type
REMARK                         _______ _______ _______ _____ _____    ______ ____
ROOT
ATOM      1  C   UNL     1       4.136   3.954  17.363  0.00  0.00    +0.000 C 
ATOM      2  O   UNL     1       3.798   3.680  16.212  0.00  0.00    +0.000 OA
ATOM      3  N   UNL     1       5.157   4.844  17.648  0.00  0.00    +0.000 N 
ATOM      4  H   UNL     1       5.333   5.093  18.615  0.00  0.00    +0.000 HD
ENDROOT
BRANCH   1  12
ATOM      5  C   UNL     1       1.572   5.719  20.698  0.00  0.00    +0.000 C 
ATOM      6  C   UNL     1       2.757   5.057  20.043  0.00  0.00    +0.000 C 
ATOM      7  O   UNL     1       3.904   5.435  20.279  0.00  0.00    +0.000 OA
ATOM      8  N   UNL     1       2.494   3.983  19.230  0.00  0.00    +0.000 N 
ATOM      9  C   UNL     1       1.208   3.416  18.884  0.00  0.00    +0.000 C 
ATOM     10  C   UNL     1       1.519   1.937  18.751  0.00  0.00    +0.000 C 
ATOM     11  C   UNL     1       2.935   1.904  18.173  0.00  0.00    +0.000 C 
ATOM     12  C   UNL     1       3.577   3.231  18.608  0.00  0.00    +0.000 C 
ENDBRANCH   1  12
BRANCH   3  13
ATOM     13  C   UNL     1       5.901   5.533  16.597  0.00  0.00    +0.000 C 
ATOM     14  C   UNL     1       6.411   6.876  17.120  0.00  0.00    +0.000 C 
BRANCH  13  15
ATOM     15  C   UNL     1       7.075   4.695  16.071  0.00  0.00    +0.000 C 
BRANCH  15  16
ATOM     16  N   UNL     1       7.097   4.598  14.621  0.00  0.00    +0.000 N 
ATOM     17  C   UNL     1       6.322   3.788  13.843  0.00  0.00    +0.000 A 
ATOM     18  C   UNL     1       6.643   4.094  12.541  0.00  0.00    +0.000 A 
ATOM     19  C   UNL     1       7.621   5.099  12.640  0.00  0.00    +0.000 A 
ATOM     20  N   UNL     1       7.904   5.412  13.908  0.00  0.00    +0.000 NA
ENDBRANCH  15  16
ENDBRANCH  13  15
ENDBRANCH   3  13
TORSDOF 4
ENDMDL
MODEL 8
REMARK VINA RESULT:      -6.1      1.189      1.399
REMARK  Name = 
REMARK  6 active torsions:
REMARK  status: ('A' for Active; 'I' for Inactive)
REMARK    1  A    between atoms: C_1  and  C_2
REMARK    2  A    between atoms: C_8  and  C_9
REMARK    3  A    between atoms: N_11  and  C_12
REMARK    4  A    between atoms: C_12  and  C_13
REMARK    5  A    between atoms: C_12  and  C_14
REMARK    6  A    between atoms: C_14  and  N_15
REMARK                            x       y       z     vdW  Elec       q    Type
REMARK                         _______ _______ _______ _____ _____    ______ ____
ROOT
ATOM      1  C   UNL     1       4.658   4.116  18.882  0.00  0.00    +0.000 C 
ATOM      2  O   UNL     1       4.696   4.915  19.818  0.00  0.00    +0.000 OA
ATOM      3  N   UNL     1       5.538   4.177  17.816  0.00  0.00    +0.000 N 
ATOM      4  H   UNL     1       5.513   3.441  17.118  0.00  0.00    +0.000 HD
ENDROOT
BRANCH   1  12
ATOM      5  C   UNL     1       1.576   2.782  21.968  0.00  0.00    +0.000 C 
ATOM      6  C   UNL     1       2.724   2.674  20.999  0.00  0.00    +0.000 C 
ATOM      7  O   UNL     1       3.770   2.106  21.314  0.00  0.00    +0.000 OA
ATOM      8  N   UNL     1       2.520   3.182  19.739  0.00  0.00    +0.000 N 
ATOM      9  C   UNL     1       1.344   3.848  19.223  0.00  0.00    +0.000 C 
ATOM     10  C   UNL     1       1.325   3.416  17.769  0.00  0.00    +0.000 C 
ATOM     11  C   UNL     1       2.803   3.326  17.388  0.00  0.00    +0.000 C 
ATOM     12  C   UNL     1       3.544   3.062  18.708  0.00  0.00    +0.000 C 
ENDBRANCH   1  12
BRANCH   3  13
ATOM     13  C   UNL     1       6.585   5.191  17.730  0.00  0.00    +0.000 C 
ATOM     14  C   UNL     1       7.959   4.527  17.822  0.00  0.00    +0.000 C 
BRANCH  13  15
ATOM     15  C   UNL     1       6.488   6.020  16.442  0.00  0.00    +0.000 C 
BRANCH  15  16
ATOM     16  N   UNL     1       6.341   5.201  15.250  0.00  0.00    +0.000 N 
ATOM     17  C   UNL     1       7.326   4.835  14.381  0.00  0.00    +0.000 A 
ATOM     18  C   UNL     1       6.729   4.008  13.459  0.00  0.00    +0.000 A 
ATOM     19  C   UNL     1       5.383   3.940  13.857  0.00  0.00    +0.000 A 
ATOM     20  N   UNL     1       5.138   4.666  14.952  0.00  0.00    +0.000 NA
ENDBRANCH  15  16
ENDBRANCH  13  15
ENDBRANCH   3  13
TORSDOF 4
ENDMDL
MODEL 9
REMARK VINA RESULT:      -6.1      2.041      3.347
REMARK  Name = 
REMARK  6 active torsions:
REMARK  status: ('A' for Active; 'I' for Inactive)
REMARK    1  A    between atoms: C_1  and  C_2
REMARK    2  A    between atoms: C_8  and  C_9
REMARK    3  A    between atoms: N_11  and  C_12
REMARK    4  A    between atoms: C_12  and  C_13
REMARK    5  A    between atoms: C_12  and  C_14
REMARK    6  A    between atoms: C_14  and  N_15
REMARK                            x       y       z     vdW  Elec       q    Type
REMARK                         _______ _______ _______ _____ _____    ______ ____
ROOT
ATOM      1  C   UNL     1       2.699   4.103  17.147  0.00  0.00    +0.000 C 
ATOM      2  O   UNL     1       2.384   3.009  16.679  0.00  0.00    +0.000 OA
ATOM      3  N   UNL     1       3.903   4.719  16.855  0.00  0.00    +0.000 N 
ATOM      4  H   UNL     1       4.070   5.657  17.202  0.00  0.00    +0.000 HD
ENDROOT
BRANCH   1  12
ATOM      5  C   UNL     1       1.512   2.575  21.278  0.00  0.00    +0.000 C 
ATOM      6  C   UNL     1       1.340   3.084  19.870  0.00  0.00    +0.000 C 
ATOM      7  O   UNL     1       0.574   2.528  19.083  0.00  0.00    +0.000 OA
ATOM      8  N   UNL     1       2.027   4.226  19.538  0.00  0.00    +0.000 N 
ATOM      9  C   UNL     1       2.935   4.995  20.360  0.00  0.00    +0.000 C 
ATOM     10  C   UNL     1       2.696   6.416  19.885  0.00  0.00    +0.000 C 
ATOM     11  C   UNL     1       2.414   6.266  18.389  0.00  0.00    +0.000 C 
ATOM     12  C   UNL     1       1.871   4.838  18.223  0.00  0.00    +0.000 C 
ENDBRANCH   1  12
BRANCH   3  13
ATOM     13  C   UNL     1       4.885   4.116  15.958  0.00  0.00    +0.000 C 
ATOM     14  C   UNL     1       5.290   5.123  14.881  0.00  0.00    +0.000 C 
BRANCH  13  15
ATOM     15  C   UNL     1       6.130   3.621  16.707  0.00  0.00    +0.000 C 
BRANCH  15  16
ATOM     16  N   UNL     1       6.615   4.573  17.693  0.00  0.00    +0.000 N 
ATOM     17  C   UNL     1       7.508   5.583  17.485  0.00  0.00    +0.000 A 
ATOM     18  C   UNL     1       7.602   6.257  18.680  0.00  0.00    +0.000 A 
ATOM     19  C   UNL     1       6.729   5.575  19.545  0.00  0.00    +0.000 A 
ATOM     20  N   UNL     1       6.121   4.545  18.949  0.00  0.00    +0.000 NA
ENDBRANCH  15  16
ENDBRANCH  13  15
ENDBRANCH   3  13
TORSDOF 4
ENDMDL
