MODEL 1
REMARK VINA RESULT:      -7.5      0.000      0.000
REMARK  Name = 
REMARK  10 active torsions:
REMARK  status: ('A' for Active; 'I' for Inactive)
REMARK    1  A    between atoms: C_1  and  C_2
REMARK    2  A    between atoms: C_2  and  C_3
REMARK    3  A    between atoms: C_3  and  C_4
REMARK    4  A    between atoms: C_4  and  N_5
REMARK    5  A    between atoms: N_5  and  C_6
REMARK    6  A    between atoms: N_9  and  C_10
REMARK    7  A    between atoms: C_19  and  O_20
REMARK    8  A    between atoms: O_20  and  C_21
REMARK    9  A    between atoms: C_22  and  O_23
REMARK   10  A    between atoms: O_23  and  C_24
REMARK                            x       y       z     vdW  Elec       q    Type
REMARK                         _______ _______ _______ _____ _____    ______ ____
ROOT
ATOM      1  C   UNL     1       3.113   5.366  20.208  0.00  0.00    +0.000 A 
ATOM      2  N   UNL     1       4.108   4.701  19.587  0.00  0.00    +0.000 NA
ATOM      3  C   UNL     1       4.604   5.242  18.470  0.00  0.00    +0.000 A 
ATOM      4  N   UNL     1       5.636   4.568  17.817  0.00  0.00    +0.000 N 
ATOM      5  N   UNL     1       4.205   6.421  17.966  0.00  0.00    +0.000 NA
ATOM      6  C   UNL     1       3.245   7.097  18.592  0.00  0.00    +0.000 A 
ATOM      7  C   UNL     1       2.813   8.316  18.073  0.00  0.00    +0.000 A 
ATOM      8  C   UNL     1       1.801   9.104  18.664  0.00  0.00    +0.000 A 
ATOM      9  C   UNL     1       1.203   8.636  19.834  0.00  0.00    +0.000 A 
ATOM     10  C   UNL     1       1.622   7.396  20.326  0.00  0.00    +0.000 A 
ATOM     11  C   UNL     1       2.637   6.606  19.736  0.00  0.00    +0.000 A 
ATOM     12  H   UNL     1       5.926   3.750  18.328  0.00  0.00    +0.000 HD
ENDROOT
BRANCH   4  13
ATOM     13  C   UNL     1       6.011   4.665  16.473  0.00  0.00    +0.000 A 
ATOM     14  C   UNL     1       5.233   4.068  15.481  0.00  0.00    +0.000 A 
ATOM     15  C   UNL     1       5.658   4.084  14.149  0.00  0.00    +0.000 A 
ATOM     16  C   UNL     1       6.847   4.724  13.843  0.00  0.00    +0.000 A 
ATOM     17  N   UNL     1       7.626   5.321  14.762  0.00  0.00    +0.000 NA
ATOM     18  C   UNL     1       7.200   5.264  16.047  0.00  0.00    +0.000 A 
ENDBRANCH   4  13
BRANCH   1  19
ATOM     19  N   UNL     1       2.456   4.749  21.301  0.00  0.00    +0.000 N 
ATOM     20  H   UNL     1       3.042   4.778  22.127  0.00  0.00    +0.000 HD
BRANCH  19  21
ATOM     21  C   UNL     1       1.993   3.387  21.064  0.00  0.00    +0.000 C 
BRANCH  21  22
ATOM     22  C   UNL     1       0.767   3.416  20.142  0.00  0.00    +0.000 C 
BRANCH  22  24
ATOM     23  C   UNL     1       1.309   3.718  17.691  0.00  0.00    +0.000 C 
ATOM     24  C   UNL     1       1.023   2.719  18.802  0.00  0.00    +0.000 C 
ENDBRANCH  22  24
ENDBRANCH  21  22
ENDBRANCH  19  21
ENDBRANCH   1  19
BRANCH   8  25
ATOM     25  O   UNL     1       1.433  10.143  17.860  0.00  0.00    +0.000 OA
ATOM     26  C   UNL     1       2.105  11.383  17.964  0.00  0.00    +0.000 C 
ENDBRANCH   8  25
BRANCH   9  27
ATOM     27  O   UNL     1       0.222   9.092  20.652  0.00  0.00    +0.000 OA
ATOM     28  C   UNL     1       0.102  10.412  21.112  0.00  0.00    +0.000 C 
ENDBRANCH   9  27
TORSDOF 7
ENDMDL
MODEL 2
REMARK VINA RESULT:      -7.2      1.250      1.642
REMARK  Name = 
REMARK  10 active torsions:
REMARK  status: ('A' for Active; 'I' for Inactive)
REMARK    1  A    between atoms: C_1  and  C_2
REMARK    2  A    between atoms: C_2  and  C_3
REMARK    3  A    between atoms: C_3  and  C_4
REMARK    4  A    between atoms: C_4  and  N_5
REMARK    5  A    between atoms: N_5  and  C_6
REMARK    6  A    between atoms: N_9  and  C_10
REMARK    7  A    between atoms: C_19  and  O_20
REMARK    8  A    between atoms: O_20  and  C_21
REMARK    9  A    between atoms: C_22  and  O_23
REMARK   10  A    between atoms: O_23  and  C_24
REMARK                            x       y       z     vdW  Elec       q    Type
REMARK                         _______ _______ _______ _____ _____    ______ ____
ROOT
ATOM      1  C   UNL     1       4.525   4.416  19.239  0.00  0.00    +0.000 A 
ATOM      2  N   UNL     1       5.466   3.926  18.407  0.00  0.00    +0.000 NA
ATOM      3  C   UNL     1       5.678   4.586  17.264  0.00  0.00    +0.000 A 
ATOM      4  N   UNL     1       6.649   4.093  16.393  0.00  0.00    +0.000 N 
ATOM      5  N   UNL     1       5.049   5.723  16.927  0.00  0.00    +0.000 NA
ATOM      6  C   UNL     1       4.141   6.229  17.760  0.00  0.00    +0.000 A 
ATOM      7  C   UNL     1       3.473   7.402  17.417  0.00  0.00    +0.000 A 
ATOM      8  C   UNL     1       2.495   8.013  18.232  0.00  0.00    +0.000 A 
ATOM      9  C   UNL     1       2.184   7.408  19.450  0.00  0.00    +0.000 A 
ATOM     10  C   UNL     1       2.837   6.214  19.767  0.00  0.00    +0.000 A 
ATOM     11  C   UNL     1       3.819   5.601  18.952  0.00  0.00    +0.000 A 
ATOM     12  H   UNL     1       7.128   3.298  16.782  0.00  0.00    +0.000 HD
ENDROOT
BRANCH   4  13
ATOM     13  C   UNL     1       6.758   4.309  15.015  0.00  0.00    +0.000 A 
ATOM     14  C   UNL     1       6.037   3.518  14.120  0.00  0.00    +0.000 A 
ATOM     15  C   UNL     1       6.217   3.672  12.743  0.00  0.00    +0.000 A 
ATOM     16  C   UNL     1       7.104   4.638  12.297  0.00  0.00    +0.000 A 
ATOM     17  N   UNL     1       7.814   5.429  13.119  0.00  0.00    +0.000 NA
ATOM     18  C   UNL     1       7.636   5.237  14.448  0.00  0.00    +0.000 A 
ENDBRANCH   4  13
BRANCH   1  19
ATOM     19  N   UNL     1       4.161   3.659  20.381  0.00  0.00    +0.000 N 
ATOM     20  H   UNL     1       4.988   3.321  20.858  0.00  0.00    +0.000 HD
BRANCH  19  21
ATOM     21  C   UNL     1       3.240   2.556  20.132  0.00  0.00    +0.000 C 
BRANCH  21  22
ATOM     22  C   UNL     1       1.930   2.799  20.894  0.00  0.00    +0.000 C 
BRANCH  22  24
ATOM     23  C   UNL     1       1.146   2.950  18.496  0.00  0.00    +0.000 C 
ATOM     24  C   UNL     1       0.751   3.080  19.959  0.00  0.00    +0.000 C 
ENDBRANCH  22  24
ENDBRANCH  21  22
ENDBRANCH  19  21
ENDBRANCH   1  19
BRANCH   8  25
ATOM     25  O   UNL     1       1.859   9.031  17.584  0.00  0.00    +0.000 OA
ATOM     26  C   UNL     1       2.008  10.359  18.048  0.00  0.00    +0.000 C 
ENDBRANCH   8  25
BRANCH   9  27
ATOM     27  O   UNL     1       1.319   7.682  20.458  0.00  0.00    +0.000 OA
ATOM     28  C   UNL     1       1.374   8.816  21.282  0.00  0.00    +0.000 C 
ENDBRANCH   9  27
TORSDOF 7
ENDMDL
MODEL 3
REMARK VINA RESULT:      -7.0      3.053      7.139
REMARK  Name = 
REMARK  10 active torsions:
REMARK  status: ('A' for Active; 'I' for Inactive)
REMARK    1  A    between atoms: C_1  and  C_2
REMARK    2  A    between atoms: C_2  and  C_3
REMARK    3  A    between atoms: C_3  and  C_4
REMARK    4  A    between atoms: C_4  and  N_5
REMARK    5  A    between atoms: N_5  and  C_6
REMARK    6  A    between atoms: N_9  and  C_10
REMARK    7  A    between atoms: C_19  and  O_20
REMARK    8  A    between atoms: O_20  and  C_21
REMARK    9  A    between atoms: C_22  and  O_23
REMARK   10  A    between atoms: O_23  and  C_24
REMARK                            x       y       z     vdW  Elec       q    Type
REMARK                         _______ _______ _______ _____ _____    ______ ____
ROOT
ATOM      1  C   UNL     1       3.903   6.729  17.426  0.00  0.00    +0.000 A 
ATOM      2  N   UNL     1       3.497   8.013  17.366  0.00  0.00    +0.000 NA
ATOM      3  C   UNL     1       2.526   8.389  18.204  0.00  0.00    +0.000 A 
ATOM      4  N   UNL     1       2.095   9.715  18.157  0.00  0.00    +0.000 N 
ATOM      5  N   UNL     1       1.974   7.581  19.124  0.00  0.00    +0.000 NA
ATOM      6  C   UNL     1       2.394   6.320  19.209  0.00  0.00    +0.000 A 
ATOM      7  C   UNL     1       1.822   5.468  20.151  0.00  0.00    +0.000 A 
ATOM      8  C   UNL     1       2.199   4.116  20.315  0.00  0.00    +0.000 A 
ATOM      9  C   UNL     1       3.201   3.609  19.488  0.00  0.00    +0.000 A 
ATOM     10  C   UNL     1       3.743   4.465  18.525  0.00  0.00    +0.000 A 
ATOM     11  C   UNL     1       3.368   5.820  18.360  0.00  0.00    +0.000 A 
ATOM     12  H   UNL     1       2.638  10.258  17.506  0.00  0.00    +0.000 HD
ENDROOT
BRANCH   4  13
ATOM     13  C   UNL     1       0.866  10.236  18.577  0.00  0.00    +0.000 A 
ATOM     14  C   UNL     1      -0.304   9.920  17.885  0.00  0.00    +0.000 A 
ATOM     15  C   UNL     1      -1.516  10.514  18.247  0.00  0.00    +0.000 A 
ATOM     16  C   UNL     1      -1.526  11.397  19.314  0.00  0.00    +0.000 A 
ATOM     17  N   UNL     1      -0.428  11.725  20.015  0.00  0.00    +0.000 NA
ATOM     18  C   UNL     1       0.736  11.152  19.623  0.00  0.00    +0.000 A 
ENDBRANCH   4  13
BRANCH   1  19
ATOM     19  N   UNL     1       4.814   6.254  16.450  0.00  0.00    +0.000 N 
ATOM     20  H   UNL     1       4.640   5.276  16.252  0.00  0.00    +0.000 HD
BRANCH  19  21
ATOM     21  C   UNL     1       6.224   6.459  16.759  0.00  0.00    +0.000 C 
BRANCH  21  22
ATOM     22  C   UNL     1       6.980   5.132  16.613  0.00  0.00    +0.000 C 
BRANCH  22  24
ATOM     23  C   UNL     1       7.644   5.803  18.958  0.00  0.00    +0.000 C 
ATOM     24  C   UNL     1       7.660   4.697  17.914  0.00  0.00    +0.000 C 
ENDBRANCH  22  24
ENDBRANCH  21  22
ENDBRANCH  19  21
ENDBRANCH   1  19
BRANCH   8  25
ATOM     25  O   UNL     1       1.358   3.455  21.161  0.00  0.00    +0.000 OA
ATOM     26  C   UNL     1       1.873   2.465  22.030  0.00  0.00    +0.000 C 
ENDBRANCH   8  25
BRANCH   9  27
ATOM     27  O   UNL     1       3.798   2.400  19.345  0.00  0.00    +0.000 OA
ATOM     28  C   UNL     1       3.566   1.505  18.289  0.00  0.00    +0.000 C 
ENDBRANCH   9  27
TORSDOF 7
ENDMDL
MODEL 4
REMARK VINA RESULT:      -7.0      2.913      7.126
REMARK  Name = 
REMARK  10 active torsions:
REMARK  status: ('A' for Active; 'I' for Inactive)
REMARK    1  A    between atoms: C_1  and  C_2
REMARK    2  A    between atoms: C_2  and  C_3
REMARK    3  A    between atoms: C_3  and  C_4
REMARK    4  A    between atoms: C_4  and  N_5
REMARK    5  A    between atoms: N_5  and  C_6
REMARK    6  A    between atoms: N_9  and  C_10
REMARK    7  A    between atoms: C_19  and  O_20
REMARK    8  A    between atoms: O_20  and  C_21
REMARK    9  A    between atoms: C_22  and  O_23
REMARK   10  A    between atoms: O_23  and  C_24
REMARK                            x       y       z     vdW  Elec       q    Type
REMARK                         _______ _______ _______ _____ _____    ______ ____
ROOT
ATOM      1  C   UNL     1       3.898   6.676  17.305  0.00  0.00    +0.000 A 
ATOM      2  N   UNL     1       3.464   7.944  17.156  0.00  0.00    +0.000 NA
ATOM      3  C   UNL     1       2.596   8.405  18.062  0.00  0.00    +0.000 A 
ATOM      4  N   UNL     1       2.139   9.716  17.924  0.00  0.00    +0.000 N 
ATOM      5  N   UNL     1       2.176   7.701  19.125  0.00  0.00    +0.000 NA
ATOM      6  C   UNL     1       2.626   6.460  19.294  0.00  0.00    +0.000 A 
ATOM      7  C   UNL     1       2.189   5.714  20.387  0.00  0.00    +0.000 A 
ATOM      8  C   UNL     1       2.608   4.391  20.650  0.00  0.00    +0.000 A 
ATOM      9  C   UNL     1       3.511   3.800  19.766  0.00  0.00    +0.000 A 
ATOM     10  C   UNL     1       3.915   4.547  18.656  0.00  0.00    +0.000 A 
ATOM     11  C   UNL     1       3.499   5.873  18.392  0.00  0.00    +0.000 A 
ATOM     12  H   UNL     1       2.588  10.186  17.155  0.00  0.00    +0.000 HD
ENDROOT
BRANCH   4  13
ATOM     13  C   UNL     1       0.961  10.274  18.432  0.00  0.00    +0.000 A 
ATOM     14  C   UNL     1       1.012  11.179  19.492  0.00  0.00    +0.000 A 
ATOM     15  C   UNL     1      -0.169  11.664  20.060  0.00  0.00    +0.000 A 
ATOM     16  C   UNL     1      -1.378  11.243  19.531  0.00  0.00    +0.000 A 
ATOM     17  N   UNL     1      -1.478  10.379  18.506  0.00  0.00    +0.000 NA
ATOM     18  C   UNL     1      -0.315   9.908  17.995  0.00  0.00    +0.000 A 
ENDBRANCH   4  13
BRANCH   1  19
ATOM     19  N   UNL     1       4.692   6.100  16.282  0.00  0.00    +0.000 N 
ATOM     20  H   UNL     1       4.467   5.119  16.171  0.00  0.00    +0.000 HD
BRANCH  19  21
ATOM     21  C   UNL     1       6.132   6.269  16.439  0.00  0.00    +0.000 C 
BRANCH  21  22
ATOM     22  C   UNL     1       6.809   4.892  16.471  0.00  0.00    +0.000 C 
BRANCH  22  24
ATOM     23  C   UNL     1       7.556   5.867  18.680  0.00  0.00    +0.000 C 
ATOM     24  C   UNL     1       7.643   4.677  17.737  0.00  0.00    +0.000 C 
ENDBRANCH  22  24
ENDBRANCH  21  22
ENDBRANCH  19  21
ENDBRANCH   1  19
BRANCH   8  25
ATOM     25  O   UNL     1       1.889   3.823  21.660  0.00  0.00    +0.000 OA
ATOM     26  C   UNL     1       1.336   2.532  21.489  0.00  0.00    +0.000 C 
ENDBRANCH   8  25
BRANCH   9  27
ATOM     27  O   UNL     1       4.108   2.585  19.683  0.00  0.00    +0.000 OA
ATOM     28  C   UNL     1       3.766   1.579  18.767  0.00  0.00    +0.000 C 
ENDBRANCH   9  27
TORSDOF 7
ENDMDL
MODEL 5
REMARK VINA RESULT:      -6.9      0.850      1.127
REMARK  Name = 
REMARK  10 active torsions:
REMARK  status: ('A' for Active; 'I' for Inactive)
REMARK    1  A    between atoms: C_1  and  C_2
REMARK    2  A    between atoms: C_2  and  C_3
REMARK    3  A    between atoms: C_3  and  C_4
REMARK    4  A    between atoms: C_4  and  N_5
REMARK    5  A    between atoms: N_5  and  C_6
REMARK    6  A    between atoms: N_9  and  C_10
REMARK    7  A    between atoms: C_19  and  O_20
REMARK    8  A    between atoms: O_20  and  C_21
REMARK    9  A    between atoms: C_22  and  O_23
REMARK   10  A    between atoms: O_23  and  C_24
REMARK                            x       y       z     vdW  Elec       q    Type
REMARK                         _______ _______ _______ _____ _____    ______ ____
ROOT
ATOM      1  C   UNL     1       3.195   5.232  20.012  0.00  0.00    +0.000 A 
ATOM      2  N   UNL     1       4.140   4.487  19.406  0.00  0.00    +0.000 NA
ATOM      3  C   UNL     1       4.661   4.961  18.270  0.00  0.00    +0.000 A 
ATOM      4  N   UNL     1       5.642   4.203  17.631  0.00  0.00    +0.000 N 
ATOM      5  N   UNL     1       4.335   6.148  17.733  0.00  0.00    +0.000 NA
ATOM      6  C   UNL     1       3.424   6.903  18.345  0.00  0.00    +0.000 A 
ATOM      7  C   UNL     1       3.067   8.131  17.792  0.00  0.00    +0.000 A 
ATOM      8  C   UNL     1       2.113   9.000  18.366  0.00  0.00    +0.000 A 
ATOM      9  C   UNL     1       1.496   8.606  19.552  0.00  0.00    +0.000 A 
ATOM     10  C   UNL     1       1.838   7.357  20.078  0.00  0.00    +0.000 A 
ATOM     11  C   UNL     1       2.796   6.485  19.507  0.00  0.00    +0.000 A 
ATOM     12  H   UNL     1       5.884   3.384  18.164  0.00  0.00    +0.000 HD
ENDROOT
BRANCH   4  13
ATOM     13  C   UNL     1       6.012   4.236  16.282  0.00  0.00    +0.000 A 
ATOM     14  C   UNL     1       7.181   4.889  15.890  0.00  0.00    +0.000 A 
ATOM     15  C   UNL     1       7.501   5.003  14.534  0.00  0.00    +0.000 A 
ATOM     16  C   UNL     1       6.647   4.434  13.604  0.00  0.00    +0.000 A 
ATOM     17  N   UNL     1       5.515   3.788  13.933  0.00  0.00    +0.000 NA
ATOM     18  C   UNL     1       5.220   3.719  15.254  0.00  0.00    +0.000 A 
ENDBRANCH   4  13
BRANCH   1  19
ATOM     19  N   UNL     1       2.508   4.691  21.127  0.00  0.00    +0.000 N 
ATOM     20  H   UNL     1       3.113   4.675  21.940  0.00  0.00    +0.000 HD
BRANCH  19  21
ATOM     21  C   UNL     1       1.915   3.376  20.918  0.00  0.00    +0.000 C 
BRANCH  21  22
ATOM     22  C   UNL     1       0.712   3.500  19.974  0.00  0.00    +0.000 C 
BRANCH  22  24
ATOM     23  C   UNL     1       2.068   2.147  18.324  0.00  0.00    +0.000 C 
ATOM     24  C   UNL     1       0.686   2.401  18.908  0.00  0.00    +0.000 C 
ENDBRANCH  22  24
ENDBRANCH  21  22
ENDBRANCH  19  21
ENDBRANCH   1  19
BRANCH   8  25
ATOM     25  O   UNL     1       1.806  10.036  17.533  0.00  0.00    +0.000 OA
ATOM     26  C   UNL     1       2.132  11.359  17.910  0.00  0.00    +0.000 C 
ENDBRANCH   8  25
BRANCH   9  27
ATOM     27  O   UNL     1       0.552   9.147  20.363  0.00  0.00    +0.000 OA
ATOM     28  C   UNL     1       0.129   8.604  21.585  0.00  0.00    +0.000 C 
ENDBRANCH   9  27
TORSDOF 7
ENDMDL
MODEL 6
REMARK VINA RESULT:      -6.9      2.951      7.081
REMARK  Name = 
REMARK  10 active torsions:
REMARK  status: ('A' for Active; 'I' for Inactive)
REMARK    1  A    between atoms: C_1  and  C_2
REMARK    2  A    between atoms: C_2  and  C_3
REMARK    3  A    between atoms: C_3  and  C_4
REMARK    4  A    between atoms: C_4  and  N_5
REMARK    5  A    between atoms: N_5  and  C_6
REMARK    6  A    between atoms: N_9  and  C_10
REMARK    7  A    between atoms: C_19  and  O_20
REMARK    8  A    between atoms: O_20  and  C_21
REMARK    9  A    between atoms: C_22  and  O_23
REMARK   10  A    between atoms: O_23  and  C_24
REMARK                            x       y       z     vdW  Elec       q    Type
REMARK                         _______ _______ _______ _____ _____    ______ ____
ROOT
ATOM      1  C   UNL     1       3.870   6.737  17.442  0.00  0.00    +0.000 A 
ATOM      2  N   UNL     1       3.439   8.009  17.328  0.00  0.00    +0.000 NA
ATOM      3  C   UNL     1       2.516   8.424  18.201  0.00  0.00    +0.000 A 
ATOM      4  N   UNL     1       2.061   9.739  18.098  0.00  0.00    +0.000 N 
ATOM      5  N   UNL     1       2.037   7.669  19.203  0.00  0.00    +0.000 NA
ATOM      6  C   UNL     1       2.482   6.422  19.339  0.00  0.00    +0.000 A 
ATOM      7  C   UNL     1       1.985   5.623  20.366  0.00  0.00    +0.000 A 
ATOM      8  C   UNL     1       2.394   4.290  20.591  0.00  0.00    +0.000 A 
ATOM      9  C   UNL     1       3.352   3.745  19.736  0.00  0.00    +0.000 A 
ATOM     10  C   UNL     1       3.818   4.545  18.689  0.00  0.00    +0.000 A 
ATOM     11  C   UNL     1       3.411   5.882  18.464  0.00  0.00    +0.000 A 
ATOM     12  H   UNL     1       2.552  10.246  17.381  0.00  0.00    +0.000 HD
ENDROOT
BRANCH   4  13
ATOM     13  C   UNL     1       0.851  10.269  18.561  0.00  0.00    +0.000 A 
ATOM     14  C   UNL     1      -0.346   9.955  17.916  0.00  0.00    +0.000 A 
ATOM     15  C   UNL     1      -1.540  10.558  18.320  0.00  0.00    +0.000 A 
ATOM     16  C   UNL     1      -1.506  11.447  19.381  0.00  0.00    +0.000 A 
ATOM     17  N   UNL     1      -0.380  11.774  20.039  0.00  0.00    +0.000 NA
ATOM     18  C   UNL     1       0.765  11.192  19.606  0.00  0.00    +0.000 A 
ENDBRANCH   4  13
BRANCH   1  19
ATOM     19  N   UNL     1       4.728   6.213  16.443  0.00  0.00    +0.000 N 
ATOM     20  H   UNL     1       4.490   5.248  16.245  0.00  0.00    +0.000 HD
BRANCH  19  21
ATOM     21  C   UNL     1       6.155   6.330  16.719  0.00  0.00    +0.000 C 
BRANCH  21  22
ATOM     22  C   UNL     1       6.877   5.066  16.236  0.00  0.00    +0.000 C 
BRANCH  22  24
ATOM     23  C   UNL     1       6.221   3.936  14.072  0.00  0.00    +0.000 C 
ATOM     24  C   UNL     1       5.930   4.071  15.559  0.00  0.00    +0.000 C 
ENDBRANCH  22  24
ENDBRANCH  21  22
ENDBRANCH  19  21
ENDBRANCH   1  19
BRANCH   8  25
ATOM     25  O   UNL     1       1.619   3.673  21.528  0.00  0.00    +0.000 OA
ATOM     26  C   UNL     1       1.818   2.301  21.809  0.00  0.00    +0.000 C 
ENDBRANCH   8  25
BRANCH   9  27
ATOM     27  O   UNL     1       3.960   2.537  19.631  0.00  0.00    +0.000 OA
ATOM     28  C   UNL     1       3.674   1.572  18.654  0.00  0.00    +0.000 C 
ENDBRANCH   9  27
TORSDOF 7
ENDMDL
MODEL 7
REMARK VINA RESULT:      -6.8      4.011      7.936
REMARK  Name = 
REMARK  10 active torsions:
REMARK  status: ('A' for Active; 'I' for Inactive)
REMARK    1  A    between atoms: C_1  and  C_2
REMARK    2  A    between atoms: C_2  and  C_3
REMARK    3  A    between atoms: C_3  and  C_4
REMARK    4  A    between atoms: C_4  and  N_5
REMARK    5  A    between atoms: N_5  and  C_6
REMARK    6  A    between atoms: N_9  and  C_10
REMARK    7  A    between atoms: C_19  and  O_20
REMARK    8  A    between atoms: O_20  and  C_21
REMARK    9  A    between atoms: C_22  and  O_23
REMARK   10  A    between atoms: O_23  and  C_24
REMARK                            x       y       z     vdW  Elec       q    Type
REMARK                         _______ _______ _______ _____ _____    ______ ____
ROOT
ATOM      1  C   UNL     1       6.918   5.811  16.962  0.00  0.00    +0.000 A 
ATOM      2  N   UNL     1       6.268   5.538  18.111  0.00  0.00    +0.000 NA
ATOM      3  C   UNL     1       5.272   4.648  18.055  0.00  0.00    +0.000 A 
ATOM      4  N   UNL     1       4.590   4.352  19.236  0.00  0.00    +0.000 N 
ATOM      5  N   UNL     1       4.921   3.983  16.943  0.00  0.00    +0.000 NA
ATOM      6  C   UNL     1       5.581   4.225  15.813  0.00  0.00    +0.000 A 
ATOM      7  C   UNL     1       5.219   3.551  14.648  0.00  0.00    +0.000 A 
ATOM      8  C   UNL     1       5.858   3.741  13.403  0.00  0.00    +0.000 A 
ATOM      9  C   UNL     1       6.910   4.654  13.337  0.00  0.00    +0.000 A 
ATOM     10  C   UNL     1       7.241   5.349  14.504  0.00  0.00    +0.000 A 
ATOM     11  C   UNL     1       6.604   5.158  15.754  0.00  0.00    +0.000 A 
ATOM     12  H   UNL     1       4.993   4.828  20.026  0.00  0.00    +0.000 HD
ENDROOT
BRANCH   4  13
ATOM     13  C   UNL     1       3.298   3.833  19.376  0.00  0.00    +0.000 A 
ATOM     14  C   UNL     1       2.275   4.625  19.898  0.00  0.00    +0.000 A 
ATOM     15  C   UNL     1       1.009   4.078  20.125  0.00  0.00    +0.000 A 
ATOM     16  C   UNL     1       0.796   2.749  19.799  0.00  0.00    +0.000 A 
ATOM     17  N   UNL     1       1.747   1.949  19.286  0.00  0.00    +0.000 NA
ATOM     18  C   UNL     1       2.970   2.503  19.103  0.00  0.00    +0.000 A 
ENDBRANCH   4  13
BRANCH   1  19
ATOM     19  N   UNL     1       7.870   6.861  16.948  0.00  0.00    +0.000 N 
ATOM     20  H   UNL     1       8.770   6.516  16.637  0.00  0.00    +0.000 HD
BRANCH  19  21
ATOM     21  C   UNL     1       8.019   7.586  18.204  0.00  0.00    +0.000 C 
BRANCH  21  22
ATOM     22  C   UNL     1       8.123   9.090  17.919  0.00  0.00    +0.000 C 
BRANCH  22  24
ATOM     23  C   UNL     1       9.409  11.207  18.421  0.00  0.00    +0.000 C 
ATOM     24  C   UNL     1       9.047   9.812  18.904  0.00  0.00    +0.000 C 
ENDBRANCH  22  24
ENDBRANCH  21  22
ENDBRANCH  19  21
ENDBRANCH   1  19
BRANCH   8  25
ATOM     25  O   UNL     1       5.192   3.114  12.391  0.00  0.00    +0.000 OA
ATOM     26  C   UNL     1       5.851   2.122  11.627  0.00  0.00    +0.000 C 
ENDBRANCH   8  25
BRANCH   9  27
ATOM     27  O   UNL     1       7.726   5.100  12.349  0.00  0.00    +0.000 OA
ATOM     28  C   UNL     1       8.736   6.061  12.509  0.00  0.00    +0.000 C 
ENDBRANCH   9  27
TORSDOF 7
ENDMDL
MODEL 8
REMARK VINA RESULT:      -6.7      3.337      6.089
REMARK  Name = 
REMARK  10 active torsions:
REMARK  status: ('A' for Active; 'I' for Inactive)
REMARK    1  A    between atoms: C_1  and  C_2
REMARK    2  A    between atoms: C_2  and  C_3
REMARK    3  A    between atoms: C_3  and  C_4
REMARK    4  A    between atoms: C_4  and  N_5
REMARK    5  A    between atoms: N_5  and  C_6
REMARK    6  A    between atoms: N_9  and  C_10
REMARK    7  A    between atoms: C_19  and  O_20
REMARK    8  A    between atoms: O_20  and  C_21
REMARK    9  A    between atoms: C_22  and  O_23
REMARK   10  A    between atoms: O_23  and  C_24
REMARK                            x       y       z     vdW  Elec       q    Type
REMARK                         _______ _______ _______ _____ _____    ______ ____
ROOT
ATOM      1  C   UNL     1       6.734   5.840  16.720  0.00  0.00    +0.000 A 
ATOM      2  N   UNL     1       7.189   5.672  15.462  0.00  0.00    +0.000 NA
ATOM      3  C   UNL     1       6.470   4.891  14.650  0.00  0.00    +0.000 A 
ATOM      4  N   UNL     1       6.926   4.709  13.344  0.00  0.00    +0.000 N 
ATOM      5  N   UNL     1       5.310   4.312  14.997  0.00  0.00    +0.000 NA
ATOM      6  C   UNL     1       4.840   4.500  16.229  0.00  0.00    +0.000 A 
ATOM      7  C   UNL     1       3.643   3.896  16.607  0.00  0.00    +0.000 A 
ATOM      8  C   UNL     1       3.066   4.035  17.888  0.00  0.00    +0.000 A 
ATOM      9  C   UNL     1       3.732   4.824  18.826  0.00  0.00    +0.000 A 
ATOM     10  C   UNL     1       4.949   5.397  18.445  0.00  0.00    +0.000 A 
ATOM     11  C   UNL     1       5.527   5.261  17.161  0.00  0.00    +0.000 A 
ATOM     12  H   UNL     1       7.746   5.262  13.156  0.00  0.00    +0.000 HD
ENDROOT
BRANCH   4  13
ATOM     13  C   UNL     1       6.638   3.653  12.472  0.00  0.00    +0.000 A 
ATOM     14  C   UNL     1       5.314   3.319  12.187  0.00  0.00    +0.000 A 
ATOM     15  C   UNL     1       5.025   2.207  11.391  0.00  0.00    +0.000 A 
ATOM     16  C   UNL     1       6.080   1.469  10.880  0.00  0.00    +0.000 A 
ATOM     17  N   UNL     1       7.371   1.757  11.119  0.00  0.00    +0.000 NA
ATOM     18  C   UNL     1       7.616   2.825  11.916  0.00  0.00    +0.000 A 
ENDBRANCH   4  13
BRANCH   1  19
ATOM     19  N   UNL     1       7.546   6.530  17.655  0.00  0.00    +0.000 N 
ATOM     20  H   UNL     1       7.291   6.272  18.601  0.00  0.00    +0.000 HD
BRANCH  19  21
ATOM     21  C   UNL     1       7.562   7.981  17.518  0.00  0.00    +0.000 C 
BRANCH  21  22
ATOM     22  C   UNL     1       8.525   8.583  18.550  0.00  0.00    +0.000 C 
BRANCH  22  24
ATOM     23  C   UNL     1       9.577  10.704  19.435  0.00  0.00    +0.000 C 
ATOM     24  C   UNL     1       8.826  10.060  18.280  0.00  0.00    +0.000 C 
ENDBRANCH  22  24
ENDBRANCH  21  22
ENDBRANCH  19  21
ENDBRANCH   1  19
BRANCH   8  25
ATOM     25  O   UNL     1       2.008   3.192  18.062  0.00  0.00    +0.000 OA
ATOM     26  C   UNL     1       2.148   2.052  18.889  0.00  0.00    +0.000 C 
ENDBRANCH   8  25
BRANCH   9  27
ATOM     27  O   UNL     1       3.503   5.168  20.118  0.00  0.00    +0.000 OA
ATOM     28  C   UNL     1       2.239   5.412  20.676  0.00  0.00    +0.000 C 
ENDBRANCH   9  27
TORSDOF 7
ENDMDL
MODEL 9
REMARK VINA RESULT:      -6.6      0.844      1.212
REMARK  Name = 
REMARK  10 active torsions:
REMARK  status: ('A' for Active; 'I' for Inactive)
REMARK    1  A    between atoms: C_1  and  C_2
REMARK    2  A    between atoms: C_2  and  C_3
REMARK    3  A    between atoms: C_3  and  C_4
REMARK    4  A    between atoms: C_4  and  N_5
REMARK    5  A    between atoms: N_5  and  C_6
REMARK    6  A    between atoms: N_9  and  C_10
REMARK    7  A    between atoms: C_19  and  O_20
REMARK    8  A    between atoms: O_20  and  C_21
REMARK    9  A    between atoms: C_22  and  O_23
REMARK   10  A    between atoms: O_23  and  C_24
REMARK                            x       y       z     vdW  Elec       q    Type
REMARK                         _______ _______ _______ _____ _____    ______ ____
ROOT
ATOM      1  C   UNL     1       2.818   5.687  19.858  0.00  0.00    +0.000 A 
ATOM      2  N   UNL     1       3.776   4.919  19.300  0.00  0.00    +0.000 NA
ATOM      3  C   UNL     1       4.415   5.414  18.236  0.00  0.00    +0.000 A 
ATOM      4  N   UNL     1       5.410   4.634  17.647  0.00  0.00    +0.000 N 
ATOM      5  N   UNL     1       4.193   6.637  17.728  0.00  0.00    +0.000 NA
ATOM      6  C   UNL     1       3.270   7.411  18.295  0.00  0.00    +0.000 A 
ATOM      7  C   UNL     1       3.021   8.678  17.772  0.00  0.00    +0.000 A 
ATOM      8  C   UNL     1       2.063   9.571  18.302  0.00  0.00    +0.000 A 
ATOM      9  C   UNL     1       1.327   9.159  19.413  0.00  0.00    +0.000 A 
ATOM     10  C   UNL     1       1.563   7.873  19.908  0.00  0.00    +0.000 A 
ATOM     11  C   UNL     1       2.524   6.979  19.380  0.00  0.00    +0.000 A 
ATOM     12  H   UNL     1       5.565   3.781  18.160  0.00  0.00    +0.000 HD
ENDROOT
BRANCH   4  13
ATOM     13  C   UNL     1       5.897   4.704  16.337  0.00  0.00    +0.000 A 
ATOM     14  C   UNL     1       5.220   4.061  15.301  0.00  0.00    +0.000 A 
ATOM     15  C   UNL     1       5.756   4.053  14.010  0.00  0.00    +0.000 A 
ATOM     16  C   UNL     1       6.952   4.714  13.787  0.00  0.00    +0.000 A 
ATOM     17  N   UNL     1       7.636   5.355  14.751  0.00  0.00    +0.000 NA
ATOM     18  C   UNL     1       7.103   5.321  15.997  0.00  0.00    +0.000 A 
ENDBRANCH   4  13
BRANCH   1  19
ATOM     19  N   UNL     1       2.013   5.135  20.886  0.00  0.00    +0.000 N 
ATOM     20  H   UNL     1       2.582   4.602  21.532  0.00  0.00    +0.000 HD
BRANCH  19  21
ATOM     21  C   UNL     1       0.884   4.332  20.432  0.00  0.00    +0.000 C 
BRANCH  21  22
ATOM     22  C   UNL     1       1.220   2.843  20.584  0.00  0.00    +0.000 C 
BRANCH  22  24
ATOM     23  C   UNL     1       3.559   2.070  21.148  0.00  0.00    +0.000 C 
ATOM     24  C   UNL     1       2.237   2.581  21.698  0.00  0.00    +0.000 C 
ENDBRANCH  22  24
ENDBRANCH  21  22
ENDBRANCH  19  21
ENDBRANCH   1  19
BRANCH   8  25
ATOM     25  O   UNL     1       1.878  10.654  17.495  0.00  0.00    +0.000 OA
ATOM     26  C   UNL     1       2.347  11.924  17.907  0.00  0.00    +0.000 C 
ENDBRANCH   8  25
BRANCH   9  27
ATOM     27  O   UNL     1       0.344   9.714  20.165  0.00  0.00    +0.000 OA
ATOM     28  C   UNL     1       0.546  10.455  21.339  0.00  0.00    +0.000 C 
ENDBRANCH   9  27
TORSDOF 7
ENDMDL
