MODEL 1
REMARK VINA RESULT:      -9.0      0.000      0.000
REMARK  Name = 
REMARK  5 active torsions:
REMARK  status: ('A' for Active; 'I' for Inactive)
REMARK    1  A    between atoms: C_1  and  C_2
REMARK    2  A    between atoms: C_3  and  N_4
REMARK    3  A    between atoms: C_5  and  C_7
REMARK    4  A    between atoms: C_10  and  C_11
REMARK    5  A    between atoms: C_22  and  C_23
REMARK                            x       y       z     vdW  Elec       q    Type
REMARK                         _______ _______ _______ _____ _____    ______ ____
ROOT
ATOM      1  C   UNL     1       0.639  10.597  21.182  0.00  0.00    +0.000 C 
ATOM      2  C   UNL     1      -0.418  10.888  20.144  0.00  0.00    +0.000 A 
ATOM      3  C   UNL     1      -0.435  10.209  18.900  0.00  0.00    +0.000 A 
ATOM      4  C   UNL     1      -1.324  10.631  17.903  0.00  0.00    +0.000 A 
ATOM      5  C   UNL     1      -2.242  11.653  18.135  0.00  0.00    +0.000 A 
ATOM      6  C   UNL     1      -2.271  12.286  19.370  0.00  0.00    +0.000 A 
ATOM      7  C   UNL     1      -1.373  11.924  20.388  0.00  0.00    +0.000 A 
ENDROOT
BRANCH   7   8
ATOM      8  C   UNL     1      -1.429  12.651  21.670  0.00  0.00    +0.000 A 
ATOM      9  N   UNL     1      -0.544  13.455  22.219  0.00  0.00    +0.000 NA
ATOM     10  C   UNL     1      -1.190  13.947  23.312  0.00  0.00    +0.000 A 
ATOM     11  N   UNL     1      -0.719  14.877  24.175  0.00  0.00    +0.000 NA
ATOM     12  C   UNL     1      -1.607  15.229  25.134  0.00  0.00    +0.000 A 
ATOM     13  C   UNL     1      -2.895  14.712  25.285  0.00  0.00    +0.000 A 
ATOM     14  C   UNL     1      -3.361  13.738  24.400  0.00  0.00    +0.000 A 
ATOM     15  C   UNL     1      -2.454  13.393  23.411  0.00  0.00    +0.000 A 
ATOM     16  O   UNL     1      -2.613  12.528  22.371  0.00  0.00    +0.000 OA
ENDBRANCH   7   8
BRANCH   3  17
ATOM     17  N   UNL     1       0.461   9.171  18.539  0.00  0.00    +0.000 N 
ATOM     18  C   UNL     1       1.723   9.354  17.985  0.00  0.00    +0.000 C 
ATOM     19  O   UNL     1       2.180  10.441  17.645  0.00  0.00    +0.000 OA
ATOM     20  H   UNL     1       0.402   8.315  19.085  0.00  0.00    +0.000 HD
BRANCH  18  21
ATOM     21  C   UNL     1       2.509   8.116  17.921  0.00  0.00    +0.000 A 
ATOM     22  C   UNL     1       3.802   7.849  17.498  0.00  0.00    +0.000 A 
ATOM     23  C   UNL     1       4.019   6.460  17.694  0.00  0.00    +0.000 A 
ATOM     24  C   UNL     1       2.856   5.945  18.228  0.00  0.00    +0.000 A 
ATOM     25  O   UNL     1       1.938   6.950  18.364  0.00  0.00    +0.000 OA
BRANCH  24  26
ATOM     26  C   UNL     1       2.422   4.610  18.640  0.00  0.00    +0.000 A 
ATOM     27  C   UNL     1       2.472   3.528  17.744  0.00  0.00    +0.000 A 
ATOM     28  C   UNL     1       1.998   2.262  18.115  0.00  0.00    +0.000 A 
ATOM     29  C   UNL     1       1.471   2.066  19.389  0.00  0.00    +0.000 A 
ATOM     30  C   UNL     1       1.449   3.125  20.286  0.00  0.00    +0.000 A 
ATOM     31  F   UNL     1       0.949   2.937  21.514  0.00  0.00    +0.000 F 
ATOM     32  C   UNL     1       1.922   4.384  19.929  0.00  0.00    +0.000 A 
ENDBRANCH  24  26
ENDBRANCH  18  21
ENDBRANCH   3  17
TORSDOF 4
ENDMDL
MODEL 2
REMARK VINA RESULT:      -8.9      1.100      1.299
REMARK  Name = 
REMARK  5 active torsions:
REMARK  status: ('A' for Active; 'I' for Inactive)
REMARK    1  A    between atoms: C_1  and  C_2
REMARK    2  A    between atoms: C_3  and  N_4
REMARK    3  A    between atoms: C_5  and  C_7
REMARK    4  A    between atoms: C_10  and  C_11
REMARK    5  A    between atoms: C_22  and  C_23
REMARK                            x       y       z     vdW  Elec       q    Type
REMARK                         _______ _______ _______ _____ _____    ______ ____
ROOT
ATOM      1  C   UNL     1       0.638  10.568  21.371  0.00  0.00    +0.000 C 
ATOM      2  C   UNL     1      -0.352  10.891  20.278  0.00  0.00    +0.000 A 
ATOM      3  C   UNL     1      -0.323  10.214  19.034  0.00  0.00    +0.000 A 
ATOM      4  C   UNL     1      -1.144  10.663  17.991  0.00  0.00    +0.000 A 
ATOM      5  C   UNL     1      -2.042  11.712  18.176  0.00  0.00    +0.000 A 
ATOM      6  C   UNL     1      -2.118  12.345  19.408  0.00  0.00    +0.000 A 
ATOM      7  C   UNL     1      -1.287  11.956  20.472  0.00  0.00    +0.000 A 
ENDROOT
BRANCH   7   8
ATOM      8  C   UNL     1      -1.390  12.683  21.751  0.00  0.00    +0.000 A 
ATOM      9  N   UNL     1      -0.523  13.481  22.336  0.00  0.00    +0.000 NA
ATOM     10  C   UNL     1      -1.210  13.977  23.402  0.00  0.00    +0.000 A 
ATOM     11  N   UNL     1      -0.768  14.905  24.284  0.00  0.00    +0.000 NA
ATOM     12  C   UNL     1      -1.691  15.263  25.206  0.00  0.00    +0.000 A 
ATOM     13  C   UNL     1      -2.988  14.755  25.304  0.00  0.00    +0.000 A 
ATOM     14  C   UNL     1      -3.424  13.784  24.401  0.00  0.00    +0.000 A 
ATOM     15  C   UNL     1      -2.481  13.433  23.450  0.00  0.00    +0.000 A 
ATOM     16  O   UNL     1      -2.603  12.568  22.404  0.00  0.00    +0.000 OA
ENDBRANCH   7   8
BRANCH   3  17
ATOM     17  N   UNL     1       0.560   9.149  18.719  0.00  0.00    +0.000 N 
ATOM     18  C   UNL     1       1.779   9.282  18.065  0.00  0.00    +0.000 C 
ATOM     19  O   UNL     1       2.198  10.332  17.587  0.00  0.00    +0.000 OA
ATOM     20  H   UNL     1       0.548   8.353  19.352  0.00  0.00    +0.000 HD
BRANCH  18  21
ATOM     21  C   UNL     1       2.575   8.049  18.072  0.00  0.00    +0.000 A 
ATOM     22  C   UNL     1       3.702   7.657  17.368  0.00  0.00    +0.000 A 
ATOM     23  C   UNL     1       4.036   6.353  17.819  0.00  0.00    +0.000 A 
ATOM     24  C   UNL     1       3.104   6.010  18.776  0.00  0.00    +0.000 A 
ATOM     25  O   UNL     1       2.214   7.038  18.929  0.00  0.00    +0.000 OA
BRANCH  24  26
ATOM     26  C   UNL     1       2.874   4.826  19.604  0.00  0.00    +0.000 A 
ATOM     27  C   UNL     1       1.709   4.706  20.382  0.00  0.00    +0.000 A 
ATOM     28  C   UNL     1       1.516   3.601  21.224  0.00  0.00    +0.000 A 
ATOM     29  C   UNL     1       2.486   2.604  21.293  0.00  0.00    +0.000 A 
ATOM     30  C   UNL     1       3.622   2.705  20.502  0.00  0.00    +0.000 A 
ATOM     31  F   UNL     1       4.553   1.745  20.561  0.00  0.00    +0.000 F 
ATOM     32  C   UNL     1       3.821   3.795  19.659  0.00  0.00    +0.000 A 
ENDBRANCH  24  26
ENDBRANCH  18  21
ENDBRANCH   3  17
TORSDOF 4
ENDMDL
MODEL 3
REMARK VINA RESULT:      -8.8      0.820      1.162
REMARK  Name = 
REMARK  5 active torsions:
REMARK  status: ('A' for Active; 'I' for Inactive)
REMARK    1  A    between atoms: C_1  and  C_2
REMARK    2  A    between atoms: C_3  and  N_4
REMARK    3  A    between atoms: C_5  and  C_7
REMARK    4  A    between atoms: C_10  and  C_11
REMARK    5  A    between atoms: C_22  and  C_23
REMARK                            x       y       z     vdW  Elec       q    Type
REMARK                         _______ _______ _______ _____ _____    ______ ____
ROOT
ATOM      1  C   UNL     1       0.540  10.706  21.478  0.00  0.00    +0.000 C 
ATOM      2  C   UNL     1      -0.345  11.180  20.351  0.00  0.00    +0.000 A 
ATOM      3  C   UNL     1      -0.310  10.561  19.077  0.00  0.00    +0.000 A 
ATOM      4  C   UNL     1      -1.016  11.141  18.015  0.00  0.00    +0.000 A 
ATOM      5  C   UNL     1      -1.813  12.267  18.203  0.00  0.00    +0.000 A 
ATOM      6  C   UNL     1      -1.899  12.848  19.461  0.00  0.00    +0.000 A 
ATOM      7  C   UNL     1      -1.177  12.327  20.548  0.00  0.00    +0.000 A 
ENDROOT
BRANCH   7   8
ATOM      8  C   UNL     1      -1.283  13.001  21.855  0.00  0.00    +0.000 A 
ATOM      9  N   UNL     1      -0.425  13.792  22.464  0.00  0.00    +0.000 NA
ATOM     10  C   UNL     1      -1.112  14.234  23.554  0.00  0.00    +0.000 A 
ATOM     11  N   UNL     1      -0.679  15.134  24.467  0.00  0.00    +0.000 NA
ATOM     12  C   UNL     1      -1.602  15.440  25.409  0.00  0.00    +0.000 A 
ATOM     13  C   UNL     1      -2.889  14.906  25.497  0.00  0.00    +0.000 A 
ATOM     14  C   UNL     1      -3.315  13.963  24.559  0.00  0.00    +0.000 A 
ATOM     15  C   UNL     1      -2.373  13.666  23.588  0.00  0.00    +0.000 A 
ATOM     16  O   UNL     1      -2.489  12.840  22.510  0.00  0.00    +0.000 OA
ENDBRANCH   7   8
BRANCH   3  17
ATOM     17  N   UNL     1       0.478   9.426  18.757  0.00  0.00    +0.000 N 
ATOM     18  C   UNL     1       1.726   9.459  18.145  0.00  0.00    +0.000 C 
ATOM     19  O   UNL     1       2.259  10.477  17.713  0.00  0.00    +0.000 OA
ATOM     20  H   UNL     1       0.370   8.617  19.364  0.00  0.00    +0.000 HD
BRANCH  18  21
ATOM     21  C   UNL     1       2.400   8.155  18.139  0.00  0.00    +0.000 A 
ATOM     22  C   UNL     1       3.570   7.709  17.545  0.00  0.00    +0.000 A 
ATOM     23  C   UNL     1       3.724   6.347  17.916  0.00  0.00    +0.000 A 
ATOM     24  C   UNL     1       2.649   6.026  18.718  0.00  0.00    +0.000 A 
ATOM     25  O   UNL     1       1.843   7.123  18.852  0.00  0.00    +0.000 OA
BRANCH  24  26
ATOM     26  C   UNL     1       2.209   4.811  19.403  0.00  0.00    +0.000 A 
ATOM     27  C   UNL     1       2.531   4.587  20.753  0.00  0.00    +0.000 A 
ATOM     28  C   UNL     1       2.164   3.395  21.393  0.00  0.00    +0.000 A 
ATOM     29  C   UNL     1       1.468   2.416  20.689  0.00  0.00    +0.000 A 
ATOM     30  C   UNL     1       1.122   2.647  19.365  0.00  0.00    +0.000 A 
ATOM     31  F   UNL     1       0.447   1.710  18.687  0.00  0.00    +0.000 F 
ATOM     32  C   UNL     1       1.476   3.829  18.722  0.00  0.00    +0.000 A 
ENDBRANCH  24  26
ENDBRANCH  18  21
ENDBRANCH   3  17
TORSDOF 4
ENDMDL
MODEL 4
REMARK VINA RESULT:      -8.7      2.560      3.714
REMARK  Name = 
REMARK  5 active torsions:
REMARK  status: ('A' for Active; 'I' for Inactive)
REMARK    1  A    between atoms: C_1  and  C_2
REMARK    2  A    between atoms: C_3  and  N_4
REMARK    3  A    between atoms: C_5  and  C_7
REMARK    4  A    between atoms: C_10  and  C_11
REMARK    5  A    between atoms: C_22  and  C_23
REMARK                            x       y       z     vdW  Elec       q    Type
REMARK                         _______ _______ _______ _____ _____    ______ ____
ROOT
ATOM      1  C   UNL     1      -1.945   9.665  18.035  0.00  0.00    +0.000 C 
ATOM      2  C   UNL     1      -1.212  10.556  19.009  0.00  0.00    +0.000 A 
ATOM      3  C   UNL     1       0.111  10.263  19.424  0.00  0.00    +0.000 A 
ATOM      4  C   UNL     1       0.686  11.016  20.456  0.00  0.00    +0.000 A 
ATOM      5  C   UNL     1       0.015  12.094  21.029  0.00  0.00    +0.000 A 
ATOM      6  C   UNL     1      -1.259  12.425  20.589  0.00  0.00    +0.000 A 
ATOM      7  C   UNL     1      -1.893  11.675  19.585  0.00  0.00    +0.000 A 
ENDROOT
BRANCH   7   8
ATOM      8  C   UNL     1      -3.259  12.053  19.177  0.00  0.00    +0.000 A 
ATOM      9  N   UNL     1      -3.855  11.922  18.012  0.00  0.00    +0.000 NA
ATOM     10  C   UNL     1      -5.140  12.298  18.262  0.00  0.00    +0.000 A 
ATOM     11  N   UNL     1      -6.171  12.270  17.386  0.00  0.00    +0.000 NA
ATOM     12  C   UNL     1      -7.356  12.636  17.928  0.00  0.00    +0.000 A 
ATOM     13  C   UNL     1      -7.562  13.028  19.253  0.00  0.00    +0.000 A 
ATOM     14  C   UNL     1      -6.485  13.071  20.140  0.00  0.00    +0.000 A 
ATOM     15  C   UNL     1      -5.279  12.680  19.584  0.00  0.00    +0.000 A 
ATOM     16  O   UNL     1      -4.061  12.557  20.184  0.00  0.00    +0.000 OA
ENDBRANCH   7   8
BRANCH   3  17
ATOM     17  N   UNL     1       0.886   9.182  18.933  0.00  0.00    +0.000 N 
ATOM     18  C   UNL     1       1.942   9.291  18.035  0.00  0.00    +0.000 C 
ATOM     19  O   UNL     1       2.271  10.333  17.477  0.00  0.00    +0.000 OA
ATOM     20  H   UNL     1       0.992   8.385  19.556  0.00  0.00    +0.000 HD
BRANCH  18  21
ATOM     21  C   UNL     1       2.696   8.042  17.878  0.00  0.00    +0.000 A 
ATOM     22  C   UNL     1       3.953   7.766  17.365  0.00  0.00    +0.000 A 
ATOM     23  C   UNL     1       4.153   6.367  17.498  0.00  0.00    +0.000 A 
ATOM     24  C   UNL     1       3.016   5.855  18.087  0.00  0.00    +0.000 A 
ATOM     25  O   UNL     1       2.129   6.871  18.316  0.00  0.00    +0.000 OA
BRANCH  24  26
ATOM     26  C   UNL     1       2.580   4.514  18.479  0.00  0.00    +0.000 A 
ATOM     27  C   UNL     1       2.767   3.416  17.621  0.00  0.00    +0.000 A 
ATOM     28  C   UNL     1       2.294   2.142  17.967  0.00  0.00    +0.000 A 
ATOM     29  C   UNL     1       1.632   1.955  19.177  0.00  0.00    +0.000 A 
ATOM     30  C   UNL     1       1.472   3.031  20.040  0.00  0.00    +0.000 A 
ATOM     31  F   UNL     1       0.842   2.852  21.207  0.00  0.00    +0.000 F 
ATOM     32  C   UNL     1       1.943   4.298  19.708  0.00  0.00    +0.000 A 
ENDBRANCH  24  26
ENDBRANCH  18  21
ENDBRANCH   3  17
TORSDOF 4
ENDMDL
MODEL 5
REMARK VINA RESULT:      -8.6      2.754      3.918
REMARK  Name = 
REMARK  5 active torsions:
REMARK  status: ('A' for Active; 'I' for Inactive)
REMARK    1  A    between atoms: C_1  and  C_2
REMARK    2  A    between atoms: C_3  and  N_4
REMARK    3  A    between atoms: C_5  and  C_7
REMARK    4  A    between atoms: C_10  and  C_11
REMARK    5  A    between atoms: C_22  and  C_23
REMARK                            x       y       z     vdW  Elec       q    Type
REMARK                         _______ _______ _______ _____ _____    ______ ____
ROOT
ATOM      1  C   UNL     1      -1.862   9.598  17.939  0.00  0.00    +0.000 C 
ATOM      2  C   UNL     1      -1.148  10.446  18.964  0.00  0.00    +0.000 A 
ATOM      3  C   UNL     1       0.158  10.122  19.408  0.00  0.00    +0.000 A 
ATOM      4  C   UNL     1       0.711  10.832  20.481  0.00  0.00    +0.000 A 
ATOM      5  C   UNL     1       0.036  11.898  21.070  0.00  0.00    +0.000 A 
ATOM      6  C   UNL     1      -1.221  12.260  20.605  0.00  0.00    +0.000 A 
ATOM      7  C   UNL     1      -1.833  11.553  19.557  0.00  0.00    +0.000 A 
ENDROOT
BRANCH   7   8
ATOM      8  C   UNL     1      -3.182  11.962  19.123  0.00  0.00    +0.000 A 
ATOM      9  N   UNL     1      -3.757  11.845  17.945  0.00  0.00    +0.000 NA
ATOM     10  C   UNL     1      -5.038  12.249  18.170  0.00  0.00    +0.000 A 
ATOM     11  N   UNL     1      -6.052  12.246  17.273  0.00  0.00    +0.000 NA
ATOM     12  C   UNL     1      -7.239  12.638  17.793  0.00  0.00    +0.000 A 
ATOM     13  C   UNL     1      -7.462  13.034  19.113  0.00  0.00    +0.000 A 
ATOM     14  C   UNL     1      -6.403  13.053  20.022  0.00  0.00    +0.000 A 
ATOM     15  C   UNL     1      -5.194  12.635  19.489  0.00  0.00    +0.000 A 
ATOM     16  O   UNL     1      -3.992  12.484  20.113  0.00  0.00    +0.000 OA
ENDBRANCH   7   8
BRANCH   3  17
ATOM     17  N   UNL     1       0.934   9.048  18.902  0.00  0.00    +0.000 N 
ATOM     18  C   UNL     1       1.978   9.169  17.991  0.00  0.00    +0.000 C 
ATOM     19  O   UNL     1       2.292  10.215  17.432  0.00  0.00    +0.000 OA
ATOM     20  H   UNL     1       1.055   8.250  19.521  0.00  0.00    +0.000 HD
BRANCH  18  21
ATOM     21  C   UNL     1       2.739   7.926  17.820  0.00  0.00    +0.000 A 
ATOM     22  C   UNL     1       4.007   7.666  17.326  0.00  0.00    +0.000 A 
ATOM     23  C   UNL     1       4.210   6.264  17.430  0.00  0.00    +0.000 A 
ATOM     24  C   UNL     1       3.062   5.735  17.985  0.00  0.00    +0.000 A 
ATOM     25  O   UNL     1       2.168   6.743  18.219  0.00  0.00    +0.000 OA
BRANCH  24  26
ATOM     26  C   UNL     1       2.624   4.385  18.336  0.00  0.00    +0.000 A 
ATOM     27  C   UNL     1       1.399   4.173  18.993  0.00  0.00    +0.000 A 
ATOM     28  C   UNL     1       1.005   2.886  19.387  0.00  0.00    +0.000 A 
ATOM     29  C   UNL     1       1.833   1.797  19.124  0.00  0.00    +0.000 A 
ATOM     30  C   UNL     1       3.028   2.000  18.448  0.00  0.00    +0.000 A 
ATOM     31  F   UNL     1       3.823   0.954  18.188  0.00  0.00    +0.000 F 
ATOM     32  C   UNL     1       3.425   3.272  18.048  0.00  0.00    +0.000 A 
ENDBRANCH  24  26
ENDBRANCH  18  21
ENDBRANCH   3  17
TORSDOF 4
ENDMDL
MODEL 6
REMARK VINA RESULT:      -8.6      3.460     10.476
REMARK  Name = 
REMARK  5 active torsions:
REMARK  status: ('A' for Active; 'I' for Inactive)
REMARK    1  A    between atoms: C_1  and  C_2
REMARK    2  A    between atoms: C_3  and  N_4
REMARK    3  A    between atoms: C_5  and  C_7
REMARK    4  A    between atoms: C_10  and  C_11
REMARK    5  A    between atoms: C_22  and  C_23
REMARK                            x       y       z     vdW  Elec       q    Type
REMARK                         _______ _______ _______ _____ _____    ______ ____
ROOT
ATOM      1  C   UNL     1       2.791   8.389  18.010  0.00  0.00    +0.000 C 
ATOM      2  C   UNL     1       2.556   7.254  18.977  0.00  0.00    +0.000 A 
ATOM      3  C   UNL     1       1.627   7.371  20.041  0.00  0.00    +0.000 A 
ATOM      4  C   UNL     1       1.569   6.364  21.012  0.00  0.00    +0.000 A 
ATOM      5  C   UNL     1       2.349   5.214  20.913  0.00  0.00    +0.000 A 
ATOM      6  C   UNL     1       3.222   5.064  19.844  0.00  0.00    +0.000 A 
ATOM      7  C   UNL     1       3.344   6.065  18.866  0.00  0.00    +0.000 A 
ENDROOT
BRANCH   7   8
ATOM      8  C   UNL     1       4.309   5.866  17.768  0.00  0.00    +0.000 A 
ATOM      9  N   UNL     1       5.509   6.377  17.601  0.00  0.00    +0.000 NA
ATOM     10  C   UNL     1       5.986   5.728  16.503  0.00  0.00    +0.000 A 
ATOM     11  N   UNL     1       7.222   5.856  15.966  0.00  0.00    +0.000 NA
ATOM     12  C   UNL     1       7.446   5.036  14.913  0.00  0.00    +0.000 A 
ATOM     13  C   UNL     1       6.530   4.129  14.374  0.00  0.00    +0.000 A 
ATOM     14  C   UNL     1       5.252   4.022  14.925  0.00  0.00    +0.000 A 
ATOM     15  C   UNL     1       5.034   4.853  16.012  0.00  0.00    +0.000 A 
ATOM     16  O   UNL     1       3.929   4.952  16.803  0.00  0.00    +0.000 OA
ENDBRANCH   7   8
BRANCH   3  17
ATOM     17  N   UNL     1       0.795   8.499  20.260  0.00  0.00    +0.000 N 
ATOM     18  C   UNL     1       0.919   9.398  21.314  0.00  0.00    +0.000 C 
ATOM     19  O   UNL     1       1.706   9.267  22.247  0.00  0.00    +0.000 OA
ATOM     20  H   UNL     1       0.398   8.934  19.430  0.00  0.00    +0.000 HD
BRANCH  18  21
ATOM     21  C   UNL     1       0.067  10.583  21.164  0.00  0.00    +0.000 A 
ATOM     22  C   UNL     1      -0.276  11.356  20.066  0.00  0.00    +0.000 A 
ATOM     23  C   UNL     1      -1.158  12.365  20.533  0.00  0.00    +0.000 A 
ATOM     24  C   UNL     1      -1.316  12.162  21.889  0.00  0.00    +0.000 A 
ATOM     25  O   UNL     1      -0.569  11.081  22.273  0.00  0.00    +0.000 OA
BRANCH  24  26
ATOM     26  C   UNL     1      -2.063  12.842  22.946  0.00  0.00    +0.000 A 
ATOM     27  C   UNL     1      -1.638  14.086  23.444  0.00  0.00    +0.000 A 
ATOM     28  C   UNL     1      -2.316  14.710  24.500  0.00  0.00    +0.000 A 
ATOM     29  C   UNL     1      -3.430  14.096  25.067  0.00  0.00    +0.000 A 
ATOM     30  C   UNL     1      -3.871  12.882  24.558  0.00  0.00    +0.000 A 
ATOM     31  F   UNL     1      -4.945  12.293  25.096  0.00  0.00    +0.000 F 
ATOM     32  C   UNL     1      -3.207  12.257  23.506  0.00  0.00    +0.000 A 
ENDBRANCH  24  26
ENDBRANCH  18  21
ENDBRANCH   3  17
TORSDOF 4
ENDMDL
MODEL 7
REMARK VINA RESULT:      -8.5      3.661     10.094
REMARK  Name = 
REMARK  5 active torsions:
REMARK  status: ('A' for Active; 'I' for Inactive)
REMARK    1  A    between atoms: C_1  and  C_2
REMARK    2  A    between atoms: C_3  and  N_4
REMARK    3  A    between atoms: C_5  and  C_7
REMARK    4  A    between atoms: C_10  and  C_11
REMARK    5  A    between atoms: C_22  and  C_23
REMARK                            x       y       z     vdW  Elec       q    Type
REMARK                         _______ _______ _______ _____ _____    ______ ____
ROOT
ATOM      1  C   UNL     1       2.810   8.068  17.768  0.00  0.00    +0.000 C 
ATOM      2  C   UNL     1       2.695   6.948  18.774  0.00  0.00    +0.000 A 
ATOM      3  C   UNL     1       1.778   7.017  19.851  0.00  0.00    +0.000 A 
ATOM      4  C   UNL     1       1.827   6.040  20.854  0.00  0.00    +0.000 A 
ATOM      5  C   UNL     1       2.706   4.962  20.775  0.00  0.00    +0.000 A 
ATOM      6  C   UNL     1       3.570   4.856  19.694  0.00  0.00    +0.000 A 
ATOM      7  C   UNL     1       3.585   5.832  18.684  0.00  0.00    +0.000 A 
ENDROOT
BRANCH   7   8
ATOM      8  C   UNL     1       4.545   5.684  17.573  0.00  0.00    +0.000 A 
ATOM      9  N   UNL     1       5.775   6.137  17.460  0.00  0.00    +0.000 NA
ATOM     10  C   UNL     1       6.221   5.572  16.304  0.00  0.00    +0.000 A 
ATOM     11  N   UNL     1       7.467   5.678  15.784  0.00  0.00    +0.000 NA
ATOM     12  C   UNL     1       7.650   4.953  14.657  0.00  0.00    +0.000 A 
ATOM     13  C   UNL     1       6.687   4.160  14.029  0.00  0.00    +0.000 A 
ATOM     14  C   UNL     1       5.400   4.075  14.565  0.00  0.00    +0.000 A 
ATOM     15  C   UNL     1       5.223   4.807  15.727  0.00  0.00    +0.000 A 
ATOM     16  O   UNL     1       4.119   4.894  16.522  0.00  0.00    +0.000 OA
ENDBRANCH   7   8
BRANCH   3  17
ATOM     17  N   UNL     1       0.852   8.072  20.052  0.00  0.00    +0.000 N 
ATOM     18  C   UNL     1       0.956   9.059  21.026  0.00  0.00    +0.000 C 
ATOM     19  O   UNL     1       1.815   9.080  21.902  0.00  0.00    +0.000 OA
ATOM     20  H   UNL     1       0.355   8.398  19.226  0.00  0.00    +0.000 HD
BRANCH  18  21
ATOM     21  C   UNL     1      -0.022  10.140  20.857  0.00  0.00    +0.000 A 
ATOM     22  C   UNL     1      -0.326  11.255  21.622  0.00  0.00    +0.000 A 
ATOM     23  C   UNL     1      -1.354  11.955  20.937  0.00  0.00    +0.000 A 
ATOM     24  C   UNL     1      -1.628  11.241  19.789  0.00  0.00    +0.000 A 
ATOM     25  O   UNL     1      -0.821  10.137  19.741  0.00  0.00    +0.000 OA
BRANCH  24  26
ATOM     26  C   UNL     1      -2.568  11.405  18.680  0.00  0.00    +0.000 A 
ATOM     27  C   UNL     1      -3.885  11.841  18.911  0.00  0.00    +0.000 A 
ATOM     28  C   UNL     1      -4.806  11.938  17.858  0.00  0.00    +0.000 A 
ATOM     29  C   UNL     1      -4.418  11.603  16.564  0.00  0.00    +0.000 A 
ATOM     30  C   UNL     1      -3.110  11.202  16.329  0.00  0.00    +0.000 A 
ATOM     31  F   UNL     1      -2.732  10.886  15.084  0.00  0.00    +0.000 F 
ATOM     32  C   UNL     1      -2.186  11.107  17.365  0.00  0.00    +0.000 A 
ENDBRANCH  24  26
ENDBRANCH  18  21
ENDBRANCH   3  17
TORSDOF 4
ENDMDL
MODEL 8
REMARK VINA RESULT:      -8.5      3.493     10.345
REMARK  Name = 
REMARK  5 active torsions:
REMARK  status: ('A' for Active; 'I' for Inactive)
REMARK    1  A    between atoms: C_1  and  C_2
REMARK    2  A    between atoms: C_3  and  N_4
REMARK    3  A    between atoms: C_5  and  C_7
REMARK    4  A    between atoms: C_10  and  C_11
REMARK    5  A    between atoms: C_22  and  C_23
REMARK                            x       y       z     vdW  Elec       q    Type
REMARK                         _______ _______ _______ _____ _____    ______ ____
ROOT
ATOM      1  C   UNL     1       2.788   8.568  17.946  0.00  0.00    +0.000 C 
ATOM      2  C   UNL     1       2.497   7.459  18.929  0.00  0.00    +0.000 A 
ATOM      3  C   UNL     1       1.558   7.630  19.976  0.00  0.00    +0.000 A 
ATOM      4  C   UNL     1       1.449   6.642  20.963  0.00  0.00    +0.000 A 
ATOM      5  C   UNL     1       2.187   5.463  20.895  0.00  0.00    +0.000 A 
ATOM      6  C   UNL     1       3.069   5.262  19.842  0.00  0.00    +0.000 A 
ATOM      7  C   UNL     1       3.242   6.241  18.849  0.00  0.00    +0.000 A 
ENDROOT
BRANCH   7   8
ATOM      8  C   UNL     1       4.214   5.986  17.769  0.00  0.00    +0.000 A 
ATOM      9  N   UNL     1       5.393   6.529  17.555  0.00  0.00    +0.000 NA
ATOM     10  C   UNL     1       5.895   5.808  16.514  0.00  0.00    +0.000 A 
ATOM     11  N   UNL     1       7.125   5.940  15.964  0.00  0.00    +0.000 NA
ATOM     12  C   UNL     1       7.382   5.041  14.985  0.00  0.00    +0.000 A 
ATOM     13  C   UNL     1       6.504   4.056  14.528  0.00  0.00    +0.000 A 
ATOM     14  C   UNL     1       5.231   3.945  15.091  0.00  0.00    +0.000 A 
ATOM     15  C   UNL     1       4.979   4.857  16.104  0.00  0.00    +0.000 A 
ATOM     16  O   UNL     1       3.871   4.979  16.887  0.00  0.00    +0.000 OA
ENDBRANCH   7   8
BRANCH   3  17
ATOM     17  N   UNL     1       0.766   8.791  20.164  0.00  0.00    +0.000 N 
ATOM     18  C   UNL     1       0.854   9.658  21.247  0.00  0.00    +0.000 C 
ATOM     19  O   UNL     1       1.563   9.468  22.231  0.00  0.00    +0.000 OA
ATOM     20  H   UNL     1       0.452   9.263  19.319  0.00  0.00    +0.000 HD
BRANCH  18  21
ATOM     21  C   UNL     1       0.072  10.886  21.067  0.00  0.00    +0.000 A 
ATOM     22  C   UNL     1       0.231  11.984  20.236  0.00  0.00    +0.000 A 
ATOM     23  C   UNL     1      -0.861  12.855  20.492  0.00  0.00    +0.000 A 
ATOM     24  C   UNL     1      -1.635  12.251  21.462  0.00  0.00    +0.000 A 
ATOM     25  O   UNL     1      -1.068  11.057  21.813  0.00  0.00    +0.000 OA
BRANCH  24  26
ATOM     26  C   UNL     1      -2.863  12.618  22.166  0.00  0.00    +0.000 A 
ATOM     27  C   UNL     1      -3.850  13.397  21.537  0.00  0.00    +0.000 A 
ATOM     28  C   UNL     1      -4.999  13.802  22.231  0.00  0.00    +0.000 A 
ATOM     29  C   UNL     1      -5.173  13.429  23.561  0.00  0.00    +0.000 A 
ATOM     30  C   UNL     1      -4.215  12.634  24.176  0.00  0.00    +0.000 A 
ATOM     31  F   UNL     1      -4.383  12.268  25.452  0.00  0.00    +0.000 F 
ATOM     32  C   UNL     1      -3.074  12.222  23.494  0.00  0.00    +0.000 A 
ENDBRANCH  24  26
ENDBRANCH  18  21
ENDBRANCH   3  17
TORSDOF 4
ENDMDL
MODEL 9
REMARK VINA RESULT:      -8.5      4.576      6.638
REMARK  Name = 
REMARK  5 active torsions:
REMARK  status: ('A' for Active; 'I' for Inactive)
REMARK    1  A    between atoms: C_1  and  C_2
REMARK    2  A    between atoms: C_3  and  N_4
REMARK    3  A    between atoms: C_5  and  C_7
REMARK    4  A    between atoms: C_10  and  C_11
REMARK    5  A    between atoms: C_22  and  C_23
REMARK                            x       y       z     vdW  Elec       q    Type
REMARK                         _______ _______ _______ _____ _____    ______ ____
ROOT
ATOM      1  C   UNL     1       2.995   8.254  18.035  0.00  0.00    +0.000 C 
ATOM      2  C   UNL     1       2.837   6.961  18.798  0.00  0.00    +0.000 A 
ATOM      3  C   UNL     1       3.470   5.769  18.367  0.00  0.00    +0.000 A 
ATOM      4  C   UNL     1       3.157   4.560  19.002  0.00  0.00    +0.000 A 
ATOM      5  C   UNL     1       2.296   4.517  20.096  0.00  0.00    +0.000 A 
ATOM      6  C   UNL     1       1.714   5.688  20.561  0.00  0.00    +0.000 A 
ATOM      7  C   UNL     1       1.966   6.919  19.933  0.00  0.00    +0.000 A 
ENDROOT
BRANCH   7   8
ATOM      8  C   UNL     1       1.298   8.127  20.451  0.00  0.00    +0.000 A 
ATOM      9  N   UNL     1       0.830   9.172  19.803  0.00  0.00    +0.000 NA
ATOM     10  C   UNL     1       0.193   9.891  20.768  0.00  0.00    +0.000 A 
ATOM     11  N   UNL     1      -0.515  11.031  20.588  0.00  0.00    +0.000 NA
ATOM     12  C   UNL     1      -1.100  11.493  21.717  0.00  0.00    +0.000 A 
ATOM     13  C   UNL     1      -1.011  10.908  22.982  0.00  0.00    +0.000 A 
ATOM     14  C   UNL     1      -0.260   9.744  23.158  0.00  0.00    +0.000 A 
ATOM     15  C   UNL     1       0.323   9.267  21.996  0.00  0.00    +0.000 A 
ATOM     16  O   UNL     1       1.063   8.137  21.813  0.00  0.00    +0.000 OA
ENDBRANCH   7   8
BRANCH   3  17
ATOM     17  N   UNL     1       4.347   5.682  17.256  0.00  0.00    +0.000 N 
ATOM     18  C   UNL     1       5.659   5.224  17.300  0.00  0.00    +0.000 C 
ATOM     19  O   UNL     1       6.256   4.931  18.331  0.00  0.00    +0.000 OA
ATOM     20  H   UNL     1       3.913   5.515  16.351  0.00  0.00    +0.000 HD
BRANCH  18  21
ATOM     21  C   UNL     1       6.249   5.038  15.970  0.00  0.00    +0.000 A 
ATOM     22  C   UNL     1       7.442   5.463  15.407  0.00  0.00    +0.000 A 
ATOM     23  C   UNL     1       7.477   4.953  14.082  0.00  0.00    +0.000 A 
ATOM     24  C   UNL     1       6.310   4.239  13.899  0.00  0.00    +0.000 A 
ATOM     25  O   UNL     1       5.563   4.293  15.043  0.00  0.00    +0.000 OA
BRANCH  24  26
ATOM     26  C   UNL     1       5.732   3.493  12.782  0.00  0.00    +0.000 A 
ATOM     27  C   UNL     1       4.499   3.872  12.222  0.00  0.00    +0.000 A 
ATOM     28  C   UNL     1       3.912   3.122  11.194  0.00  0.00    +0.000 A 
ATOM     29  C   UNL     1       4.556   1.985  10.712  0.00  0.00    +0.000 A 
ATOM     30  C   UNL     1       5.788   1.625  11.241  0.00  0.00    +0.000 A 
ATOM     31  F   UNL     1       6.412   0.536  10.775  0.00  0.00    +0.000 F 
ATOM     32  C   UNL     1       6.381   2.366  12.258  0.00  0.00    +0.000 A 
ENDBRANCH  24  26
ENDBRANCH  18  21
ENDBRANCH   3  17
TORSDOF 4
ENDMDL
