MODEL 1
REMARK VINA RESULT:      -8.0      0.000      0.000
REMARK  Name = 
REMARK  4 active torsions:
REMARK  status: ('A' for Active; 'I' for Inactive)
REMARK    1  A    between atoms: C_2  and  C_20
REMARK    2  A    between atoms: N_3  and  C_4
REMARK    3  A    between atoms: C_6  and  S_7
REMARK    4  A    between atoms: S_7  and  N_10
REMARK                            x       y       z     vdW  Elec       q    Type
REMARK                         _______ _______ _______ _____ _____    ______ ____
ROOT
ATOM      1  C   UNL     1       5.441   4.287  17.057  0.00  0.00    +0.000 A 
ATOM      2  C   UNL     1       4.051   4.186  17.223  0.00  0.00    +0.000 A 
ATOM      3  C   UNL     1       3.462   4.601  18.421  0.00  0.00    +0.000 A 
ATOM      4  C   UNL     1       4.242   5.124  19.456  0.00  0.00    +0.000 A 
ATOM      5  C   UNL     1       5.625   5.230  19.292  0.00  0.00    +0.000 A 
ATOM      6  C   UNL     1       6.222   4.803  18.104  0.00  0.00    +0.000 A 
ATOM      7 CL   UNL     1       7.934   4.992  17.928  0.00  0.00    +0.000 Cl
ENDROOT
BRANCH   1  10
ATOM      8  O   UNL     1       5.966   5.815  14.701  0.00  0.00    +0.000 OA
ATOM      9  C   UNL     1       6.240   4.611  14.741  0.00  0.00    +0.000 C 
ATOM     10  N   UNL     1       6.075   3.838  15.875  0.00  0.00    +0.000 N 
ATOM     11  H   UNL     1       6.622   2.987  15.952  0.00  0.00    +0.000 HD
BRANCH   9  12
ATOM     12  C   UNL     1       6.837   3.842  13.528  0.00  0.00    +0.000 C 
ATOM     13  C   UNL     1       5.797   3.363  12.478  0.00  0.00    +0.000 C 
ATOM     14  C   UNL     1       6.809   3.726  11.382  0.00  0.00    +0.000 C 
ATOM     15  C   UNL     1       7.473   4.683  12.389  0.00  0.00    +0.000 C 
ENDBRANCH   9  12
ENDBRANCH   1  10
BRANCH   3  16
ATOM     16  S   UNL     1       1.714   4.380  18.661  0.00  0.00    +0.000 S 
ATOM     17  O   UNL     1       1.286   5.395  19.593  0.00  0.00    +0.000 OA
ATOM     18  O   UNL     1       1.097   4.254  17.359  0.00  0.00    +0.000 OA
BRANCH  16  19
ATOM     19  N   UNL     1       1.580   2.866  19.431  0.00  0.00    +0.000 NA
ATOM     20  C   UNL     1       1.106   2.842  20.848  0.00  0.00    +0.000 C 
ATOM     21  C   UNL     1       2.244   3.092  21.846  0.00  0.00    +0.000 C 
ATOM     22  O   UNL     1       3.328   2.173  21.653  0.00  0.00    +0.000 OA
ATOM     23  C   UNL     1       3.853   2.276  20.321  0.00  0.00    +0.000 C 
ATOM     24  C   UNL     1       2.773   1.967  19.278  0.00  0.00    +0.000 C 
ENDBRANCH  16  19
ENDBRANCH   3  16
TORSDOF 4
ENDMDL
MODEL 2
REMARK VINA RESULT:      -7.8      3.098      4.472
REMARK  Name = 
REMARK  4 active torsions:
REMARK  status: ('A' for Active; 'I' for Inactive)
REMARK    1  A    between atoms: C_2  and  C_20
REMARK    2  A    between atoms: N_3  and  C_4
REMARK    3  A    between atoms: C_6  and  S_7
REMARK    4  A    between atoms: S_7  and  N_10
REMARK                            x       y       z     vdW  Elec       q    Type
REMARK                         _______ _______ _______ _____ _____    ______ ____
ROOT
ATOM      1  C   UNL     1       6.043   6.364  16.734  0.00  0.00    +0.000 A 
ATOM      2  C   UNL     1       4.881   6.370  17.521  0.00  0.00    +0.000 A 
ATOM      3  C   UNL     1       3.945   5.341  17.385  0.00  0.00    +0.000 A 
ATOM      4  C   UNL     1       4.156   4.299  16.478  0.00  0.00    +0.000 A 
ATOM      5  C   UNL     1       5.314   4.288  15.697  0.00  0.00    +0.000 A 
ATOM      6  C   UNL     1       6.246   5.321  15.816  0.00  0.00    +0.000 A 
ATOM      7 CL   UNL     1       7.687   5.245  14.858  0.00  0.00    +0.000 Cl
ENDROOT
BRANCH   1  10
ATOM      8  O   UNL     1       7.971   6.783  18.800  0.00  0.00    +0.000 OA
ATOM      9  C   UNL     1       7.855   7.597  17.878  0.00  0.00    +0.000 C 
ATOM     10  N   UNL     1       6.992   7.411  16.815  0.00  0.00    +0.000 N 
ATOM     11  H   UNL     1       7.188   7.910  15.953  0.00  0.00    +0.000 HD
BRANCH   9  12
ATOM     12  C   UNL     1       8.697   8.901  17.794  0.00  0.00    +0.000 C 
ATOM     13  C   UNL     1       7.875  10.198  17.558  0.00  0.00    +0.000 C 
ATOM     14  C   UNL     1       8.824  10.918  18.528  0.00  0.00    +0.000 C 
ATOM     15  C   UNL     1       9.163   9.541  19.129  0.00  0.00    +0.000 C 
ENDBRANCH   9  12
ENDBRANCH   1  10
BRANCH   3  16
ATOM     16  S   UNL     1       2.430   5.406  18.314  0.00  0.00    +0.000 S 
ATOM     17  O   UNL     1       2.115   6.800  18.510  0.00  0.00    +0.000 OA
ATOM     18  O   UNL     1       1.485   4.507  17.690  0.00  0.00    +0.000 OA
BRANCH  16  19
ATOM     19  N   UNL     1       2.835   4.738  19.829  0.00  0.00    +0.000 NA
ATOM     20  C   UNL     1       3.629   3.472  19.846  0.00  0.00    +0.000 C 
ATOM     21  C   UNL     1       2.743   2.229  19.691  0.00  0.00    +0.000 C 
ATOM     22  O   UNL     1       1.703   2.194  20.678  0.00  0.00    +0.000 OA
ATOM     23  C   UNL     1       0.875   3.363  20.588  0.00  0.00    +0.000 C 
ATOM     24  C   UNL     1       1.696   4.638  20.804  0.00  0.00    +0.000 C 
ENDBRANCH  16  19
ENDBRANCH   3  16
TORSDOF 4
ENDMDL
MODEL 3
REMARK VINA RESULT:      -7.6      1.149      1.523
REMARK  Name = 
REMARK  4 active torsions:
REMARK  status: ('A' for Active; 'I' for Inactive)
REMARK    1  A    between atoms: C_2  and  C_20
REMARK    2  A    between atoms: N_3  and  C_4
REMARK    3  A    between atoms: C_6  and  S_7
REMARK    4  A    between atoms: S_7  and  N_10
REMARK                            x       y       z     vdW  Elec       q    Type
REMARK                         _______ _______ _______ _____ _____    ______ ____
ROOT
ATOM      1  C   UNL     1       5.561   4.368  17.059  0.00  0.00    +0.000 A 
ATOM      2  C   UNL     1       4.230   4.660  17.391  0.00  0.00    +0.000 A 
ATOM      3  C   UNL     1       3.934   5.248  18.624  0.00  0.00    +0.000 A 
ATOM      4  C   UNL     1       4.952   5.556  19.530  0.00  0.00    +0.000 A 
ATOM      5  C   UNL     1       6.279   5.271  19.201  0.00  0.00    +0.000 A 
ATOM      6  C   UNL     1       6.580   4.669  17.977  0.00  0.00    +0.000 A 
ATOM      7 CL   UNL     1       8.242   4.372  17.593  0.00  0.00    +0.000 Cl
ENDROOT
BRANCH   1  10
ATOM      8  O   UNL     1       6.306   5.638  14.611  0.00  0.00    +0.000 OA
ATOM      9  C   UNL     1       6.181   4.411  14.667  0.00  0.00    +0.000 C 
ATOM     10  N   UNL     1       5.894   3.736  15.838  0.00  0.00    +0.000 N 
ATOM     11  H   UNL     1       6.142   2.753  15.892  0.00  0.00    +0.000 HD
BRANCH   9  12
ATOM     12  C   UNL     1       6.372   3.487  13.430  0.00  0.00    +0.000 C 
ATOM     13  C   UNL     1       5.118   3.336  12.524  0.00  0.00    +0.000 C 
ATOM     14  C   UNL     1       6.054   3.367  11.307  0.00  0.00    +0.000 C 
ATOM     15  C   UNL     1       7.089   4.087  12.192  0.00  0.00    +0.000 C 
ENDBRANCH   9  12
ENDBRANCH   1  10
BRANCH   3  16
ATOM     16  S   UNL     1       2.237   5.527  19.078  0.00  0.00    +0.000 S 
ATOM     17  O   UNL     1       2.195   6.772  19.806  0.00  0.00    +0.000 OA
ATOM     18  O   UNL     1       1.421   5.322  17.902  0.00  0.00    +0.000 OA
BRANCH  16  19
ATOM     19  N   UNL     1       1.878   4.266  20.167  0.00  0.00    +0.000 NA
ATOM     20  C   UNL     1       2.951   3.269  20.461  0.00  0.00    +0.000 C 
ATOM     21  C   UNL     1       3.013   2.154  19.409  0.00  0.00    +0.000 C 
ATOM     22  O   UNL     1       1.742   1.508  19.249  0.00  0.00    +0.000 OA
ATOM     23  C   UNL     1       0.735   2.452  18.860  0.00  0.00    +0.000 C 
ATOM     24  C   UNL     1       0.579   3.557  19.911  0.00  0.00    +0.000 C 
ENDBRANCH  16  19
ENDBRANCH   3  16
TORSDOF 4
ENDMDL
MODEL 4
REMARK VINA RESULT:      -7.6      5.274      6.414
REMARK  Name = 
REMARK  4 active torsions:
REMARK  status: ('A' for Active; 'I' for Inactive)
REMARK    1  A    between atoms: C_2  and  C_20
REMARK    2  A    between atoms: N_3  and  C_4
REMARK    3  A    between atoms: C_6  and  S_7
REMARK    4  A    between atoms: S_7  and  N_10
REMARK                            x       y       z     vdW  Elec       q    Type
REMARK                         _______ _______ _______ _____ _____    ______ ____
ROOT
ATOM      1  C   UNL     1       2.799   6.455  18.524  0.00  0.00    +0.000 A 
ATOM      2  C   UNL     1       2.401   7.752  18.167  0.00  0.00    +0.000 A 
ATOM      3  C   UNL     1       1.699   8.541  19.083  0.00  0.00    +0.000 A 
ATOM      4  C   UNL     1       1.394   8.054  20.357  0.00  0.00    +0.000 A 
ATOM      5  C   UNL     1       1.793   6.765  20.717  0.00  0.00    +0.000 A 
ATOM      6  C   UNL     1       2.481   5.966  19.801  0.00  0.00    +0.000 A 
ATOM      7 CL   UNL     1       2.992   4.389  20.304  0.00  0.00    +0.000 Cl
ENDROOT
BRANCH   1  10
ATOM      8  O   UNL     1       5.623   6.118  18.258  0.00  0.00    +0.000 OA
ATOM      9  C   UNL     1       4.849   5.547  17.484  0.00  0.00    +0.000 C 
ATOM     10  N   UNL     1       3.474   5.614  17.608  0.00  0.00    +0.000 N 
ATOM     11  H   UNL     1       2.923   4.875  17.183  0.00  0.00    +0.000 HD
BRANCH   9  12
ATOM     12  C   UNL     1       5.338   4.656  16.307  0.00  0.00    +0.000 C 
ATOM     13  C   UNL     1       5.498   5.393  14.949  0.00  0.00    +0.000 C 
ATOM     14  C   UNL     1       6.764   4.558  14.700  0.00  0.00    +0.000 C 
ATOM     15  C   UNL     1       6.858   4.351  16.223  0.00  0.00    +0.000 C 
ENDBRANCH   9  12
ENDBRANCH   1  10
BRANCH   3  16
ATOM     16  S   UNL     1       1.114  10.146  18.591  0.00  0.00    +0.000 S 
ATOM     17  O   UNL     1       2.236  10.845  18.015  0.00  0.00    +0.000 OA
ATOM     18  O   UNL     1      -0.114   9.966  17.849  0.00  0.00    +0.000 OA
BRANCH  16  19
ATOM     19  N   UNL     1       0.709  10.916  20.056  0.00  0.00    +0.000 NA
ATOM     20  C   UNL     1      -0.739  11.033  20.408  0.00  0.00    +0.000 C 
ATOM     21  C   UNL     1      -1.402  12.249  19.748  0.00  0.00    +0.000 C 
ATOM     22  O   UNL     1      -0.701  13.463  20.053  0.00  0.00    +0.000 OA
ATOM     23  C   UNL     1       0.663  13.388  19.615  0.00  0.00    +0.000 C 
ATOM     24  C   UNL     1       1.398  12.229  20.297  0.00  0.00    +0.000 C 
ENDBRANCH  16  19
ENDBRANCH   3  16
TORSDOF 4
ENDMDL
MODEL 5
REMARK VINA RESULT:      -7.6      2.859      4.142
REMARK  Name = 
REMARK  4 active torsions:
REMARK  status: ('A' for Active; 'I' for Inactive)
REMARK    1  A    between atoms: C_2  and  C_20
REMARK    2  A    between atoms: N_3  and  C_4
REMARK    3  A    between atoms: C_6  and  S_7
REMARK    4  A    between atoms: S_7  and  N_10
REMARK                            x       y       z     vdW  Elec       q    Type
REMARK                         _______ _______ _______ _____ _____    ______ ____
ROOT
ATOM      1  C   UNL     1       5.911   6.020  16.820  0.00  0.00    +0.000 A 
ATOM      2  C   UNL     1       4.829   5.948  17.711  0.00  0.00    +0.000 A 
ATOM      3  C   UNL     1       3.929   4.882  17.626  0.00  0.00    +0.000 A 
ATOM      4  C   UNL     1       4.098   3.880  16.667  0.00  0.00    +0.000 A 
ATOM      5  C   UNL     1       5.176   3.947  15.781  0.00  0.00    +0.000 A 
ATOM      6  C   UNL     1       6.070   5.017  15.850  0.00  0.00    +0.000 A 
ATOM      7 CL   UNL     1       7.415   5.038  14.759  0.00  0.00    +0.000 Cl
ENDROOT
BRANCH   1  10
ATOM      8  O   UNL     1       7.922   6.529  18.784  0.00  0.00    +0.000 OA
ATOM      9  C   UNL     1       7.725   7.332  17.866  0.00  0.00    +0.000 C 
ATOM     10  N   UNL     1       6.817   7.106  16.849  0.00  0.00    +0.000 N 
ATOM     11  H   UNL     1       6.948   7.609  15.977  0.00  0.00    +0.000 HD
BRANCH   9  12
ATOM     12  C   UNL     1       8.506   8.670  17.736  0.00  0.00    +0.000 C 
ATOM     13  C   UNL     1       7.618   9.935  17.573  0.00  0.00    +0.000 C 
ATOM     14  C   UNL     1       8.604  10.685  18.481  0.00  0.00    +0.000 C 
ATOM     15  C   UNL     1       9.041   9.319  19.041  0.00  0.00    +0.000 C 
ENDBRANCH   9  12
ENDBRANCH   1  10
BRANCH   3  16
ATOM     16  S   UNL     1       2.508   4.847  18.695  0.00  0.00    +0.000 S 
ATOM     17  O   UNL     1       2.865   5.566  19.893  0.00  0.00    +0.000 OA
ATOM     18  O   UNL     1       1.352   5.227  17.913  0.00  0.00    +0.000 OA
BRANCH  16  19
ATOM     19  N   UNL     1       2.324   3.202  19.100  0.00  0.00    +0.000 NA
ATOM     20  C   UNL     1       1.250   2.838  20.073  0.00  0.00    +0.000 C 
ATOM     21  C   UNL     1       1.704   3.002  21.529  0.00  0.00    +0.000 C 
ATOM     22  O   UNL     1       2.906   2.266  21.794  0.00  0.00    +0.000 OA
ATOM     23  C   UNL     1       3.968   2.694  20.929  0.00  0.00    +0.000 C 
ATOM     24  C   UNL     1       3.596   2.489  19.457  0.00  0.00    +0.000 C 
ENDBRANCH  16  19
ENDBRANCH   3  16
TORSDOF 4
ENDMDL
MODEL 6
REMARK VINA RESULT:      -7.5      5.329      8.044
REMARK  Name = 
REMARK  4 active torsions:
REMARK  status: ('A' for Active; 'I' for Inactive)
REMARK    1  A    between atoms: C_2  and  C_20
REMARK    2  A    between atoms: N_3  and  C_4
REMARK    3  A    between atoms: C_6  and  S_7
REMARK    4  A    between atoms: S_7  and  N_10
REMARK                            x       y       z     vdW  Elec       q    Type
REMARK                         _______ _______ _______ _____ _____    ______ ____
ROOT
ATOM      1  C   UNL     1       1.549   8.815  19.973  0.00  0.00    +0.000 A 
ATOM      2  C   UNL     1       1.671   7.457  20.306  0.00  0.00    +0.000 A 
ATOM      3  C   UNL     1       2.200   6.557  19.376  0.00  0.00    +0.000 A 
ATOM      4  C   UNL     1       2.616   6.997  18.116  0.00  0.00    +0.000 A 
ATOM      5  C   UNL     1       2.500   8.348  17.783  0.00  0.00    +0.000 A 
ATOM      6  C   UNL     1       1.958   9.250  18.702  0.00  0.00    +0.000 A 
ATOM      7 CL   UNL     1       1.872  10.922  18.262  0.00  0.00    +0.000 Cl
ENDROOT
BRANCH   1  10
ATOM      8  O   UNL     1      -1.052   9.984  19.823  0.00  0.00    +0.000 OA
ATOM      9  C   UNL     1      -0.262  10.327  20.708  0.00  0.00    +0.000 C 
ATOM     10  N   UNL     1       0.981   9.745  20.874  0.00  0.00    +0.000 N 
ATOM     11  H   UNL     1       1.418   9.815  21.788  0.00  0.00    +0.000 HD
BRANCH   9  12
ATOM     12  C   UNL     1      -0.597  11.424  21.758  0.00  0.00    +0.000 C 
ATOM     13  C   UNL     1      -1.926  12.188  21.507  0.00  0.00    +0.000 C 
ATOM     14  C   UNL     1      -2.165  12.173  23.024  0.00  0.00    +0.000 C 
ATOM     15  C   UNL     1      -1.216  10.963  23.104  0.00  0.00    +0.000 C 
ENDBRANCH   9  12
ENDBRANCH   1  10
BRANCH   3  16
ATOM     16  S   UNL     1       2.262   4.825  19.769  0.00  0.00    +0.000 S 
ATOM     17  O   UNL     1       2.775   4.716  21.113  0.00  0.00    +0.000 OA
ATOM     18  O   UNL     1       0.991   4.238  19.404  0.00  0.00    +0.000 OA
BRANCH  16  19
ATOM     19  N   UNL     1       3.433   4.191  18.704  0.00  0.00    +0.000 NA
ATOM     20  C   UNL     1       2.955   3.410  17.524  0.00  0.00    +0.000 C 
ATOM     21  C   UNL     1       2.679   1.941  17.872  0.00  0.00    +0.000 C 
ATOM     22  O   UNL     1       3.823   1.316  18.470  0.00  0.00    +0.000 OA
ATOM     23  C   UNL     1       4.214   2.007  19.666  0.00  0.00    +0.000 C 
ATOM     24  C   UNL     1       4.569   3.468  19.368  0.00  0.00    +0.000 C 
ENDBRANCH  16  19
ENDBRANCH   3  16
TORSDOF 4
ENDMDL
MODEL 7
REMARK VINA RESULT:      -7.5      5.701      8.356
REMARK  Name = 
REMARK  4 active torsions:
REMARK  status: ('A' for Active; 'I' for Inactive)
REMARK    1  A    between atoms: C_2  and  C_20
REMARK    2  A    between atoms: N_3  and  C_4
REMARK    3  A    between atoms: C_6  and  S_7
REMARK    4  A    between atoms: S_7  and  N_10
REMARK                            x       y       z     vdW  Elec       q    Type
REMARK                         _______ _______ _______ _____ _____    ______ ____
ROOT
ATOM      1  C   UNL     1       0.948   9.318  19.915  0.00  0.00    +0.000 A 
ATOM      2  C   UNL     1       1.436   8.055  20.283  0.00  0.00    +0.000 A 
ATOM      3  C   UNL     1       2.186   7.305  19.371  0.00  0.00    +0.000 A 
ATOM      4  C   UNL     1       2.462   7.804  18.095  0.00  0.00    +0.000 A 
ATOM      5  C   UNL     1       1.981   9.063  17.727  0.00  0.00    +0.000 A 
ATOM      6  C   UNL     1       1.219   9.810  18.628  0.00  0.00    +0.000 A 
ATOM      7 CL   UNL     1       0.679  11.382  18.143  0.00  0.00    +0.000 Cl
ENDROOT
BRANCH   1  10
ATOM      8  O   UNL     1       1.668  11.770  21.190  0.00  0.00    +0.000 OA
ATOM      9  C   UNL     1       0.584  11.232  21.435  0.00  0.00    +0.000 C 
ATOM     10  N   UNL     1       0.152  10.085  20.797  0.00  0.00    +0.000 N 
ATOM     11  H   UNL     1      -0.846   9.899  20.781  0.00  0.00    +0.000 HD
BRANCH   9  12
ATOM     12  C   UNL     1      -0.429  11.809  22.464  0.00  0.00    +0.000 C 
ATOM     13  C   UNL     1      -1.721  12.411  21.844  0.00  0.00    +0.000 C 
ATOM     14  C   UNL     1      -2.507  11.808  23.018  0.00  0.00    +0.000 C 
ATOM     15  C   UNL     1      -1.354  10.803  23.200  0.00  0.00    +0.000 C 
ENDBRANCH   9  12
ENDBRANCH   1  10
BRANCH   3  16
ATOM     16  S   UNL     1       2.719   5.667  19.810  0.00  0.00    +0.000 S 
ATOM     17  O   UNL     1       4.158   5.651  19.708  0.00  0.00    +0.000 OA
ATOM     18  O   UNL     1       2.053   5.296  21.040  0.00  0.00    +0.000 OA
BRANCH  16  19
ATOM     19  N   UNL     1       2.090   4.673  18.578  0.00  0.00    +0.000 NA
ATOM     20  C   UNL     1       1.202   3.540  18.977  0.00  0.00    +0.000 C 
ATOM     21  C   UNL     1       1.997   2.293  19.386  0.00  0.00    +0.000 C 
ATOM     22  O   UNL     1       2.910   1.889  18.356  0.00  0.00    +0.000 OA
ATOM     23  C   UNL     1       3.833   2.944  18.050  0.00  0.00    +0.000 C 
ATOM     24  C   UNL     1       3.097   4.199  17.569  0.00  0.00    +0.000 C 
ENDBRANCH  16  19
ENDBRANCH   3  16
TORSDOF 4
ENDMDL
MODEL 8
REMARK VINA RESULT:      -7.4      1.802      2.683
REMARK  Name = 
REMARK  4 active torsions:
REMARK  status: ('A' for Active; 'I' for Inactive)
REMARK    1  A    between atoms: C_2  and  C_20
REMARK    2  A    between atoms: N_3  and  C_4
REMARK    3  A    between atoms: C_6  and  S_7
REMARK    4  A    between atoms: S_7  and  N_10
REMARK                            x       y       z     vdW  Elec       q    Type
REMARK                         _______ _______ _______ _____ _____    ______ ____
ROOT
ATOM      1  C   UNL     1       4.629   4.318  16.431  0.00  0.00    +0.000 A 
ATOM      2  C   UNL     1       4.374   3.234  17.284  0.00  0.00    +0.000 A 
ATOM      3  C   UNL     1       4.315   3.436  18.666  0.00  0.00    +0.000 A 
ATOM      4  C   UNL     1       4.501   4.711  19.209  0.00  0.00    +0.000 A 
ATOM      5  C   UNL     1       4.751   5.792  18.362  0.00  0.00    +0.000 A 
ATOM      6  C   UNL     1       4.827   5.595  16.981  0.00  0.00    +0.000 A 
ATOM      7 CL   UNL     1       5.098   6.971  15.966  0.00  0.00    +0.000 Cl
ENDROOT
BRANCH   1  10
ATOM      8  O   UNL     1       7.029   3.958  14.923  0.00  0.00    +0.000 OA
ATOM      9  C   UNL     1       5.937   4.041  14.352  0.00  0.00    +0.000 C 
ATOM     10  N   UNL     1       4.738   4.143  15.031  0.00  0.00    +0.000 N 
ATOM     11  H   UNL     1       3.892   3.863  14.544  0.00  0.00    +0.000 HD
BRANCH   9  12
ATOM     12  C   UNL     1       5.791   4.000  12.804  0.00  0.00    +0.000 C 
ATOM     13  C   UNL     1       6.549   2.838  12.104  0.00  0.00    +0.000 C 
ATOM     14  C   UNL     1       5.353   2.696  11.151  0.00  0.00    +0.000 C 
ATOM     15  C   UNL     1       4.489   3.386  12.223  0.00  0.00    +0.000 C 
ENDBRANCH   9  12
ENDBRANCH   1  10
BRANCH   3  16
ATOM     16  S   UNL     1       4.086   2.044  19.747  0.00  0.00    +0.000 S 
ATOM     17  O   UNL     1       4.303   0.857  18.957  0.00  0.00    +0.000 OA
ATOM     18  O   UNL     1       4.846   2.286  20.954  0.00  0.00    +0.000 OA
BRANCH  16  19
ATOM     19  N   UNL     1       2.437   2.102  20.171  0.00  0.00    +0.000 NA
ATOM     20  C   UNL     1       1.464   2.553  19.130  0.00  0.00    +0.000 C 
ATOM     21  C   UNL     1       1.356   4.082  19.058  0.00  0.00    +0.000 C 
ATOM     22  O   UNL     1       1.038   4.650  20.336  0.00  0.00    +0.000 OA
ATOM     23  C   UNL     1       2.035   4.304  21.309  0.00  0.00    +0.000 C 
ATOM     24  C   UNL     1       2.139   2.784  21.475  0.00  0.00    +0.000 C 
ENDBRANCH  16  19
ENDBRANCH   3  16
TORSDOF 4
ENDMDL
MODEL 9
REMARK VINA RESULT:      -7.4      3.859      7.444
REMARK  Name = 
REMARK  4 active torsions:
REMARK  status: ('A' for Active; 'I' for Inactive)
REMARK    1  A    between atoms: C_2  and  C_20
REMARK    2  A    between atoms: N_3  and  C_4
REMARK    3  A    between atoms: C_6  and  S_7
REMARK    4  A    between atoms: S_7  and  N_10
REMARK                            x       y       z     vdW  Elec       q    Type
REMARK                         _______ _______ _______ _____ _____    ______ ____
ROOT
ATOM      1  C   UNL     1       2.698   5.129  20.221  0.00  0.00    +0.000 A 
ATOM      2  C   UNL     1       3.977   5.526  19.802  0.00  0.00    +0.000 A 
ATOM      3  C   UNL     1       4.850   4.585  19.248  0.00  0.00    +0.000 A 
ATOM      4  C   UNL     1       4.460   3.251  19.099  0.00  0.00    +0.000 A 
ATOM      5  C   UNL     1       3.186   2.854  19.510  0.00  0.00    +0.000 A 
ATOM      6  C   UNL     1       2.315   3.786  20.080  0.00  0.00    +0.000 A 
ATOM      7 CL   UNL     1       0.730   3.258  20.538  0.00  0.00    +0.000 Cl
ENDROOT
BRANCH   1  10
ATOM      8  O   UNL     1       2.138   7.799  19.373  0.00  0.00    +0.000 OA
ATOM      9  C   UNL     1       1.628   7.349  20.404  0.00  0.00    +0.000 C 
ATOM     10  N   UNL     1       1.805   6.045  20.825  0.00  0.00    +0.000 N 
ATOM     11  H   UNL     1       1.111   5.652  21.453  0.00  0.00    +0.000 HD
BRANCH   9  12
ATOM     12  C   UNL     1       0.699   8.194  21.321  0.00  0.00    +0.000 C 
ATOM     13  C   UNL     1       1.434   9.190  22.261  0.00  0.00    +0.000 C 
ATOM     14  C   UNL     1       0.306  10.197  21.995  0.00  0.00    +0.000 C 
ATOM     15  C   UNL     1       0.004   9.431  20.694  0.00  0.00    +0.000 C 
ENDBRANCH   9  12
ENDBRANCH   1  10
BRANCH   3  16
ATOM     16  S   UNL     1       6.502   5.073  18.808  0.00  0.00    +0.000 S 
ATOM     17  O   UNL     1       7.103   5.640  19.991  0.00  0.00    +0.000 OA
ATOM     18  O   UNL     1       7.124   3.968  18.112  0.00  0.00    +0.000 OA
BRANCH  16  19
ATOM     19  N   UNL     1       6.285   6.326  17.674  0.00  0.00    +0.000 NA
ATOM     20  C   UNL     1       5.001   6.364  16.911  0.00  0.00    +0.000 C 
ATOM     21  C   UNL     1       5.028   5.446  15.682  0.00  0.00    +0.000 C 
ATOM     22  O   UNL     1       6.141   5.740  14.827  0.00  0.00    +0.000 OA
ATOM     23  C   UNL     1       7.380   5.597  15.535  0.00  0.00    +0.000 C 
ATOM     24  C   UNL     1       7.440   6.544  16.739  0.00  0.00    +0.000 C 
ENDBRANCH  16  19
ENDBRANCH   3  16
TORSDOF 4
ENDMDL
