MODEL 1
REMARK VINA RESULT:      -7.6      0.000      0.000
REMARK  Name = 
REMARK  5 active torsions:
REMARK  status: ('A' for Active; 'I' for Inactive)
REMARK    1  A    between atoms: C_1  and  C_2
REMARK    2  A    between atoms: N_4  and  C_5
REMARK    3  A    between atoms: C_15  and  O_16
REMARK    4  A    between atoms: O_16  and  C_17
REMARK    5  A    between atoms: C_17  and  C_18
REMARK                            x       y       z     vdW  Elec       q    Type
REMARK                         _______ _______ _______ _____ _____    ______ ____
ROOT
ATOM      1  C   UNL     1       1.897   5.671  21.025  0.00  0.00    +0.000 C 
ATOM      2  C   UNL     1       1.519   7.018  20.542  0.00  0.00    +0.000 A 
ATOM      3  N   UNL     1       0.692   7.723  21.326  0.00  0.00    +0.000 NA
ATOM      4  N   UNL     1       0.608   8.912  20.717  0.00  0.00    +0.000 N 
ATOM      5  C   UNL     1      -0.143   9.973  21.339  0.00  0.00    +0.000 C 
ATOM      6  C   UNL     1       1.327   8.998  19.560  0.00  0.00    +0.000 A 
ATOM      7  N   UNL     1       1.437  10.086  18.785  0.00  0.00    +0.000 NA
ATOM      8  C   UNL     1       2.249   9.860  17.749  0.00  0.00    +0.000 A 
ATOM      9  N   UNL     1       2.887   8.720  17.446  0.00  0.00    +0.000 NA
ATOM     10  C   UNL     1       2.748   7.605  18.228  0.00  0.00    +0.000 A 
ATOM     11  N   UNL     1       3.479   6.493  17.868  0.00  0.00    +0.000 N 
ATOM     12  C   UNL     1       3.048   5.119  18.022  0.00  0.00    +0.000 C 
ATOM     13  C   UNL     1       4.190   4.354  18.701  0.00  0.00    +0.000 C 
ATOM     14  C   UNL     1       5.505   4.494  17.927  0.00  0.00    +0.000 C 
ATOM     15  C   UNL     1       5.834   5.955  17.555  0.00  0.00    +0.000 C 
ATOM     16  C   UNL     1       4.594   6.641  16.937  0.00  0.00    +0.000 C 
ATOM     17  C   UNL     1       1.922   7.748  19.376  0.00  0.00    +0.000 A 
ENDROOT
BRANCH  15  18
ATOM     18  O   UNL     1       6.957   5.926  16.668  0.00  0.00    +0.000 OA
BRANCH  18  19
ATOM     19  C   UNL     1       7.226   4.620  16.148  0.00  0.00    +0.000 C 
BRANCH  19  20
ATOM     20  C   UNL     1       7.191   4.640  14.643  0.00  0.00    +0.000 A 
ATOM     21  C   UNL     1       6.375   3.757  13.945  0.00  0.00    +0.000 A 
ATOM     22  C   UNL     1       6.386   3.797  12.555  0.00  0.00    +0.000 A 
ATOM     23  C   UNL     1       7.199   4.719  11.905  0.00  0.00    +0.000 A 
ATOM     24  C   UNL     1       7.977   5.566  12.674  0.00  0.00    +0.000 A 
ATOM     25  N   UNL     1       7.997   5.541  14.022  0.00  0.00    +0.000 NA
ENDBRANCH  19  20
ENDBRANCH  18  19
ENDBRANCH  15  18
TORSDOF 3
ENDMDL
MODEL 2
REMARK VINA RESULT:      -7.0      4.221      6.474
REMARK  Name = 
REMARK  5 active torsions:
REMARK  status: ('A' for Active; 'I' for Inactive)
REMARK    1  A    between atoms: C_1  and  C_2
REMARK    2  A    between atoms: N_4  and  C_5
REMARK    3  A    between atoms: C_15  and  O_16
REMARK    4  A    between atoms: O_16  and  C_17
REMARK    5  A    between atoms: C_17  and  C_18
REMARK                            x       y       z     vdW  Elec       q    Type
REMARK                         _______ _______ _______ _____ _____    ______ ____
ROOT
ATOM      1  C   UNL     1      -1.556  12.015  18.112  0.00  0.00    +0.000 C 
ATOM      2  C   UNL     1      -1.909  12.152  19.542  0.00  0.00    +0.000 A 
ATOM      3  N   UNL     1      -3.017  12.853  19.818  0.00  0.00    +0.000 NA
ATOM      4  N   UNL     1      -3.155  12.727  21.144  0.00  0.00    +0.000 N 
ATOM      5  C   UNL     1      -4.313  13.291  21.791  0.00  0.00    +0.000 C 
ATOM      6  C   UNL     1      -2.169  11.994  21.740  0.00  0.00    +0.000 A 
ATOM      7  N   UNL     1      -2.096  11.693  23.044  0.00  0.00    +0.000 NA
ATOM      8  C   UNL     1      -1.037  10.923  23.302  0.00  0.00    +0.000 A 
ATOM      9  N   UNL     1      -0.113  10.487  22.433  0.00  0.00    +0.000 NA
ATOM     10  C   UNL     1      -0.180  10.822  21.107  0.00  0.00    +0.000 A 
ATOM     11  N   UNL     1       0.784  10.289  20.278  0.00  0.00    +0.000 N 
ATOM     12  C   UNL     1       1.358  10.950  19.124  0.00  0.00    +0.000 C 
ATOM     13  C   UNL     1       1.300   9.961  17.954  0.00  0.00    +0.000 C 
ATOM     14  C   UNL     1       1.986   8.635  18.297  0.00  0.00    +0.000 C 
ATOM     15  C   UNL     1       1.540   8.058  19.656  0.00  0.00    +0.000 C 
ATOM     16  C   UNL     1       1.581   9.157  20.742  0.00  0.00    +0.000 C 
ATOM     17  C   UNL     1      -1.290  11.620  20.721  0.00  0.00    +0.000 A 
ENDROOT
BRANCH  15  18
ATOM     18  O   UNL     1       2.396   6.949  19.950  0.00  0.00    +0.000 OA
BRANCH  18  19
ATOM     19  C   UNL     1       2.753   6.195  18.788  0.00  0.00    +0.000 C 
BRANCH  19  20
ATOM     20  C   UNL     1       2.214   4.793  18.889  0.00  0.00    +0.000 A 
ATOM     21  C   UNL     1       1.432   4.415  19.976  0.00  0.00    +0.000 A 
ATOM     22  C   UNL     1       0.968   3.106  20.038  0.00  0.00    +0.000 A 
ATOM     23  C   UNL     1       1.287   2.219  19.016  0.00  0.00    +0.000 A 
ATOM     24  C   UNL     1       2.066   2.676  17.968  0.00  0.00    +0.000 A 
ATOM     25  N   UNL     1       2.541   3.935  17.887  0.00  0.00    +0.000 NA
ENDBRANCH  19  20
ENDBRANCH  18  19
ENDBRANCH  15  18
TORSDOF 3
ENDMDL
MODEL 3
REMARK VINA RESULT:      -7.0      0.851      1.138
REMARK  Name = 
REMARK  5 active torsions:
REMARK  status: ('A' for Active; 'I' for Inactive)
REMARK    1  A    between atoms: C_1  and  C_2
REMARK    2  A    between atoms: N_4  and  C_5
REMARK    3  A    between atoms: C_15  and  O_16
REMARK    4  A    between atoms: O_16  and  C_17
REMARK    5  A    between atoms: C_17  and  C_18
REMARK                            x       y       z     vdW  Elec       q    Type
REMARK                         _______ _______ _______ _____ _____    ______ ____
ROOT
ATOM      1  C   UNL     1       1.645   6.204  21.105  0.00  0.00    +0.000 C 
ATOM      2  C   UNL     1       1.287   7.572  20.670  0.00  0.00    +0.000 A 
ATOM      3  N   UNL     1       0.550   8.296  21.524  0.00  0.00    +0.000 NA
ATOM      4  N   UNL     1       0.469   9.497  20.939  0.00  0.00    +0.000 N 
ATOM      5  C   UNL     1      -0.191  10.577  21.630  0.00  0.00    +0.000 C 
ATOM      6  C   UNL     1       1.103   9.575  19.732  0.00  0.00    +0.000 A 
ATOM      7  N   UNL     1       1.198  10.669  18.966  0.00  0.00    +0.000 NA
ATOM      8  C   UNL     1       1.922  10.429  17.869  0.00  0.00    +0.000 A 
ATOM      9  N   UNL     1       2.489   9.270  17.504  0.00  0.00    +0.000 NA
ATOM     10  C   UNL     1       2.363   8.149  18.279  0.00  0.00    +0.000 A 
ATOM     11  N   UNL     1       3.020   7.015  17.850  0.00  0.00    +0.000 N 
ATOM     12  C   UNL     1       2.547   5.656  18.018  0.00  0.00    +0.000 C 
ATOM     13  C   UNL     1       3.704   4.836  18.598  0.00  0.00    +0.000 C 
ATOM     14  C   UNL     1       4.963   4.938  17.730  0.00  0.00    +0.000 C 
ATOM     15  C   UNL     1       5.321   6.390  17.354  0.00  0.00    +0.000 C 
ATOM     16  C   UNL     1       4.068   7.134  16.840  0.00  0.00    +0.000 C 
ATOM     17  C   UNL     1       1.631   8.305  19.487  0.00  0.00    +0.000 A 
ENDROOT
BRANCH  15  18
ATOM     18  O   UNL     1       6.374   6.332  16.385  0.00  0.00    +0.000 OA
BRANCH  18  19
ATOM     19  C   UNL     1       6.845   5.002  16.150  0.00  0.00    +0.000 C 
BRANCH  19  20
ATOM     20  C   UNL     1       6.884   4.715  14.673  0.00  0.00    +0.000 A 
ATOM     21  C   UNL     1       7.726   5.440  13.836  0.00  0.00    +0.000 A 
ATOM     22  C   UNL     1       7.719   5.154  12.475  0.00  0.00    +0.000 A 
ATOM     23  C   UNL     1       6.883   4.153  11.992  0.00  0.00    +0.000 A 
ATOM     24  C   UNL     1       6.080   3.477  12.893  0.00  0.00    +0.000 A 
ATOM     25  N   UNL     1       6.056   3.739  14.214  0.00  0.00    +0.000 NA
ENDBRANCH  19  20
ENDBRANCH  18  19
ENDBRANCH  15  18
TORSDOF 3
ENDMDL
MODEL 4
REMARK VINA RESULT:      -7.0      3.548      8.161
REMARK  Name = 
REMARK  5 active torsions:
REMARK  status: ('A' for Active; 'I' for Inactive)
REMARK    1  A    between atoms: C_1  and  C_2
REMARK    2  A    between atoms: N_4  and  C_5
REMARK    3  A    between atoms: C_15  and  O_16
REMARK    4  A    between atoms: O_16  and  C_17
REMARK    5  A    between atoms: C_17  and  C_18
REMARK                            x       y       z     vdW  Elec       q    Type
REMARK                         _______ _______ _______ _____ _____    ______ ____
ROOT
ATOM      1  C   UNL     1       1.052   4.848  20.739  0.00  0.00    +0.000 C 
ATOM      2  C   UNL     1       2.089   4.830  19.684  0.00  0.00    +0.000 A 
ATOM      3  N   UNL     1       2.535   3.624  19.307  0.00  0.00    +0.000 NA
ATOM      4  N   UNL     1       3.364   3.891  18.290  0.00  0.00    +0.000 N 
ATOM      5  C   UNL     1       3.971   2.801  17.567  0.00  0.00    +0.000 C 
ATOM      6  C   UNL     1       3.490   5.221  18.008  0.00  0.00    +0.000 A 
ATOM      7  N   UNL     1       4.227   5.746  17.021  0.00  0.00    +0.000 NA
ATOM      8  C   UNL     1       4.104   7.075  16.980  0.00  0.00    +0.000 A 
ATOM      9  N   UNL     1       3.379   7.852  17.798  0.00  0.00    +0.000 NA
ATOM     10  C   UNL     1       2.650   7.310  18.822  0.00  0.00    +0.000 A 
ATOM     11  N   UNL     1       1.896   8.179  19.582  0.00  0.00    +0.000 N 
ATOM     12  C   UNL     1       1.638   8.047  21.001  0.00  0.00    +0.000 C 
ATOM     13  C   UNL     1       0.128   8.213  21.210  0.00  0.00    +0.000 C 
ATOM     14  C   UNL     1      -0.385   9.531  20.619  0.00  0.00    +0.000 C 
ATOM     15  C   UNL     1       0.101   9.775  19.176  0.00  0.00    +0.000 C 
ATOM     16  C   UNL     1       1.622   9.520  19.074  0.00  0.00    +0.000 C 
ATOM     17  C   UNL     1       2.691   5.894  18.936  0.00  0.00    +0.000 A 
ENDROOT
BRANCH  15  18
ATOM     18  O   UNL     1      -0.267  11.114  18.824  0.00  0.00    +0.000 OA
BRANCH  18  19
ATOM     19  C   UNL     1      -1.593  11.456  19.237  0.00  0.00    +0.000 C 
BRANCH  19  20
ATOM     20  C   UNL     1      -2.547  11.338  18.079  0.00  0.00    +0.000 A 
ATOM     21  C   UNL     1      -3.910  11.543  18.264  0.00  0.00    +0.000 A 
ATOM     22  C   UNL     1      -4.758  11.408  17.171  0.00  0.00    +0.000 A 
ATOM     23  C   UNL     1      -4.225  11.082  15.929  0.00  0.00    +0.000 A 
ATOM     24  C   UNL     1      -2.857  10.899  15.829  0.00  0.00    +0.000 A 
ATOM     25  N   UNL     1      -2.012  11.011  16.873  0.00  0.00    +0.000 NA
ENDBRANCH  19  20
ENDBRANCH  18  19
ENDBRANCH  15  18
TORSDOF 3
ENDMDL
MODEL 5
REMARK VINA RESULT:      -6.9      3.576      8.303
REMARK  Name = 
REMARK  5 active torsions:
REMARK  status: ('A' for Active; 'I' for Inactive)
REMARK    1  A    between atoms: C_1  and  C_2
REMARK    2  A    between atoms: N_4  and  C_5
REMARK    3  A    between atoms: C_15  and  O_16
REMARK    4  A    between atoms: O_16  and  C_17
REMARK    5  A    between atoms: C_17  and  C_18
REMARK                            x       y       z     vdW  Elec       q    Type
REMARK                         _______ _______ _______ _____ _____    ______ ____
ROOT
ATOM      1  C   UNL     1       0.976   4.925  20.672  0.00  0.00    +0.000 C 
ATOM      2  C   UNL     1       2.036   4.845  19.643  0.00  0.00    +0.000 A 
ATOM      3  N   UNL     1       2.454   3.616  19.311  0.00  0.00    +0.000 NA
ATOM      4  N   UNL     1       3.314   3.828  18.307  0.00  0.00    +0.000 N 
ATOM      5  C   UNL     1       3.904   2.701  17.631  0.00  0.00    +0.000 C 
ATOM      6  C   UNL     1       3.488   5.146  17.992  0.00  0.00    +0.000 A 
ATOM      7  N   UNL     1       4.264   5.619  17.008  0.00  0.00    +0.000 NA
ATOM      8  C   UNL     1       4.183   6.950  16.927  0.00  0.00    +0.000 A 
ATOM      9  N   UNL     1       3.462   7.771  17.705  0.00  0.00    +0.000 NA
ATOM     10  C   UNL     1       2.693   7.281  18.726  0.00  0.00    +0.000 A 
ATOM     11  N   UNL     1       1.948   8.194  19.442  0.00  0.00    +0.000 N 
ATOM     12  C   UNL     1       1.653   8.111  20.858  0.00  0.00    +0.000 C 
ATOM     13  C   UNL     1       0.145   8.329  21.025  0.00  0.00    +0.000 C 
ATOM     14  C   UNL     1      -0.313   9.643  20.385  0.00  0.00    +0.000 C 
ATOM     15  C   UNL     1       0.214   9.831  18.948  0.00  0.00    +0.000 C 
ATOM     16  C   UNL     1       1.728   9.528  18.890  0.00  0.00    +0.000 C 
ATOM     17  C   UNL     1       2.689   5.868  18.880  0.00  0.00    +0.000 A 
ENDROOT
BRANCH  15  18
ATOM     18  O   UNL     1      -0.104  11.169  18.549  0.00  0.00    +0.000 OA
BRANCH  18  19
ATOM     19  C   UNL     1      -1.285  11.675  19.179  0.00  0.00    +0.000 C 
BRANCH  19  20
ATOM     20  C   UNL     1      -2.471  11.521  18.266  0.00  0.00    +0.000 A 
ATOM     21  C   UNL     1      -2.295  11.153  16.937  0.00  0.00    +0.000 A 
ATOM     22  C   UNL     1      -3.416  11.038  16.123  0.00  0.00    +0.000 A 
ATOM     23  C   UNL     1      -4.676  11.284  16.658  0.00  0.00    +0.000 A 
ATOM     24  C   UNL     1      -4.765  11.642  17.992  0.00  0.00    +0.000 A 
ATOM     25  N   UNL     1      -3.695  11.773  18.801  0.00  0.00    +0.000 NA
ENDBRANCH  19  20
ENDBRANCH  18  19
ENDBRANCH  15  18
TORSDOF 3
ENDMDL
MODEL 6
REMARK VINA RESULT:      -6.9      3.762      5.548
REMARK  Name = 
REMARK  5 active torsions:
REMARK  status: ('A' for Active; 'I' for Inactive)
REMARK    1  A    between atoms: C_1  and  C_2
REMARK    2  A    between atoms: N_4  and  C_5
REMARK    3  A    between atoms: C_15  and  O_16
REMARK    4  A    between atoms: O_16  and  C_17
REMARK    5  A    between atoms: C_17  and  C_18
REMARK                            x       y       z     vdW  Elec       q    Type
REMARK                         _______ _______ _______ _____ _____    ______ ____
ROOT
ATOM      1  C   UNL     1       4.376   2.251  18.056  0.00  0.00    +0.000 C 
ATOM      2  C   UNL     1       3.403   2.999  18.882  0.00  0.00    +0.000 A 
ATOM      3  N   UNL     1       2.606   2.268  19.674  0.00  0.00    +0.000 NA
ATOM      4  N   UNL     1       1.921   3.183  20.371  0.00  0.00    +0.000 N 
ATOM      5  C   UNL     1       1.013   2.750  21.404  0.00  0.00    +0.000 C 
ATOM      6  C   UNL     1       2.224   4.474  20.047  0.00  0.00    +0.000 A 
ATOM      7  N   UNL     1       1.706   5.568  20.621  0.00  0.00    +0.000 NA
ATOM      8  C   UNL     1       2.242   6.680  20.112  0.00  0.00    +0.000 A 
ATOM      9  N   UNL     1       3.162   6.771  19.141  0.00  0.00    +0.000 NA
ATOM     10  C   UNL     1       3.666   5.649  18.540  0.00  0.00    +0.000 A 
ATOM     11  N   UNL     1       4.643   5.835  17.586  0.00  0.00    +0.000 N 
ATOM     12  C   UNL     1       4.824   5.025  16.398  0.00  0.00    +0.000 C 
ATOM     13  C   UNL     1       6.305   4.637  16.329  0.00  0.00    +0.000 C 
ATOM     14  C   UNL     1       7.217   5.868  16.368  0.00  0.00    +0.000 C 
ATOM     15  C   UNL     1       6.856   6.851  17.501  0.00  0.00    +0.000 C 
ATOM     16  C   UNL     1       5.334   7.120  17.511  0.00  0.00    +0.000 C 
ATOM     17  C   UNL     1       3.179   4.407  19.030  0.00  0.00    +0.000 A 
ENDROOT
BRANCH  15  18
ATOM     18  O   UNL     1       7.632   8.037  17.298  0.00  0.00    +0.000 OA
BRANCH  18  19
ATOM     19  C   UNL     1       8.464   8.359  18.417  0.00  0.00    +0.000 C 
BRANCH  19  20
ATOM     20  C   UNL     1       8.720   9.841  18.467  0.00  0.00    +0.000 A 
ATOM     21  C   UNL     1       8.131  10.691  17.538  0.00  0.00    +0.000 A 
ATOM     22  C   UNL     1       8.408  12.052  17.610  0.00  0.00    +0.000 A 
ATOM     23  C   UNL     1       9.254  12.524  18.606  0.00  0.00    +0.000 A 
ATOM     24  C   UNL     1       9.796  11.613  19.495  0.00  0.00    +0.000 A 
ATOM     25  N   UNL     1       9.556  10.287  19.442  0.00  0.00    +0.000 NA
ENDBRANCH  19  20
ENDBRANCH  18  19
ENDBRANCH  15  18
TORSDOF 3
ENDMDL
MODEL 7
REMARK VINA RESULT:      -6.9      3.590      5.493
REMARK  Name = 
REMARK  5 active torsions:
REMARK  status: ('A' for Active; 'I' for Inactive)
REMARK    1  A    between atoms: C_1  and  C_2
REMARK    2  A    between atoms: N_4  and  C_5
REMARK    3  A    between atoms: C_15  and  O_16
REMARK    4  A    between atoms: O_16  and  C_17
REMARK    5  A    between atoms: C_17  and  C_18
REMARK                            x       y       z     vdW  Elec       q    Type
REMARK                         _______ _______ _______ _____ _____    ______ ____
ROOT
ATOM      1  C   UNL     1       4.374   2.082  18.011  0.00  0.00    +0.000 C 
ATOM      2  C   UNL     1       3.422   2.882  18.813  0.00  0.00    +0.000 A 
ATOM      3  N   UNL     1       2.604   2.198  19.625  0.00  0.00    +0.000 NA
ATOM      4  N   UNL     1       1.944   3.152  20.294  0.00  0.00    +0.000 N 
ATOM      5  C   UNL     1       1.024   2.776  21.337  0.00  0.00    +0.000 C 
ATOM      6  C   UNL     1       2.285   4.424  19.932  0.00  0.00    +0.000 A 
ATOM      7  N   UNL     1       1.798   5.549  20.472  0.00  0.00    +0.000 NA
ATOM      8  C   UNL     1       2.366   6.630  19.931  0.00  0.00    +0.000 A 
ATOM      9  N   UNL     1       3.289   6.665  18.959  0.00  0.00    +0.000 NA
ATOM     10  C   UNL     1       3.761   5.512  18.393  0.00  0.00    +0.000 A 
ATOM     11  N   UNL     1       4.744   5.642  17.435  0.00  0.00    +0.000 N 
ATOM     12  C   UNL     1       4.902   4.792  16.273  0.00  0.00    +0.000 C 
ATOM     13  C   UNL     1       6.372   4.360  16.218  0.00  0.00    +0.000 C 
ATOM     14  C   UNL     1       7.318   5.565  16.222  0.00  0.00    +0.000 C 
ATOM     15  C   UNL     1       6.985   6.591  17.324  0.00  0.00    +0.000 C 
ATOM     16  C   UNL     1       5.471   6.904  17.323  0.00  0.00    +0.000 C 
ATOM     17  C   UNL     1       3.238   4.300  18.919  0.00  0.00    +0.000 A 
ENDROOT
BRANCH  15  18
ATOM     18  O   UNL     1       7.795   7.748  17.088  0.00  0.00    +0.000 OA
BRANCH  18  19
ATOM     19  C   UNL     1       7.162   8.966  17.490  0.00  0.00    +0.000 C 
BRANCH  19  20
ATOM     20  C   UNL     1       8.183   9.934  18.024  0.00  0.00    +0.000 A 
ATOM     21  C   UNL     1       9.060   9.549  19.032  0.00  0.00    +0.000 A 
ATOM     22  C   UNL     1       9.977  10.480  19.508  0.00  0.00    +0.000 A 
ATOM     23  C   UNL     1       9.997  11.759  18.963  0.00  0.00    +0.000 A 
ATOM     24  C   UNL     1       9.093  12.060  17.960  0.00  0.00    +0.000 A 
ATOM     25  N   UNL     1       8.185  11.183  17.487  0.00  0.00    +0.000 NA
ENDBRANCH  19  20
ENDBRANCH  18  19
ENDBRANCH  15  18
TORSDOF 3
ENDMDL
MODEL 8
REMARK VINA RESULT:      -6.9      4.359      6.568
REMARK  Name = 
REMARK  5 active torsions:
REMARK  status: ('A' for Active; 'I' for Inactive)
REMARK    1  A    between atoms: C_1  and  C_2
REMARK    2  A    between atoms: N_4  and  C_5
REMARK    3  A    between atoms: C_15  and  O_16
REMARK    4  A    between atoms: O_16  and  C_17
REMARK    5  A    between atoms: C_17  and  C_18
REMARK                            x       y       z     vdW  Elec       q    Type
REMARK                         _______ _______ _______ _____ _____    ______ ____
ROOT
ATOM      1  C   UNL     1      -1.718  11.603  17.874  0.00  0.00    +0.000 C 
ATOM      2  C   UNL     1      -2.061  11.946  19.272  0.00  0.00    +0.000 A 
ATOM      3  N   UNL     1      -3.181  12.660  19.453  0.00  0.00    +0.000 NA
ATOM      4  N   UNL     1      -3.305  12.731  20.785  0.00  0.00    +0.000 N 
ATOM      5  C   UNL     1      -4.468  13.364  21.354  0.00  0.00    +0.000 C 
ATOM      6  C   UNL     1      -2.300  12.113  21.472  0.00  0.00    +0.000 A 
ATOM      7  N   UNL     1      -2.210  12.011  22.805  0.00  0.00    +0.000 NA
ATOM      8  C   UNL     1      -1.133  11.307  23.163  0.00  0.00    +0.000 A 
ATOM      9  N   UNL     1      -0.209  10.763  22.358  0.00  0.00    +0.000 NA
ATOM     10  C   UNL     1      -0.294  10.895  20.998  0.00  0.00    +0.000 A 
ATOM     11  N   UNL     1       0.673  10.262  20.246  0.00  0.00    +0.000 N 
ATOM     12  C   UNL     1       1.224  10.754  19.000  0.00  0.00    +0.000 C 
ATOM     13  C   UNL     1       1.176   9.601  17.991  0.00  0.00    +0.000 C 
ATOM     14  C   UNL     1       1.891   8.353  18.521  0.00  0.00    +0.000 C 
ATOM     15  C   UNL     1       1.467   7.978  19.955  0.00  0.00    +0.000 C 
ATOM     16  C   UNL     1       1.496   9.227  20.866  0.00  0.00    +0.000 C 
ATOM     17  C   UNL     1      -1.422  11.607  20.510  0.00  0.00    +0.000 A 
ENDROOT
BRANCH  15  18
ATOM     18  O   UNL     1       2.348   6.940  20.402  0.00  0.00    +0.000 OA
BRANCH  18  19
ATOM     19  C   UNL     1       2.901   6.175  19.327  0.00  0.00    +0.000 C 
BRANCH  19  20
ATOM     20  C   UNL     1       2.230   4.830  19.244  0.00  0.00    +0.000 A 
ATOM     21  C   UNL     1       2.450   3.998  18.151  0.00  0.00    +0.000 A 
ATOM     22  C   UNL     1       1.797   2.772  18.107  0.00  0.00    +0.000 A 
ATOM     23  C   UNL     1       0.956   2.407  19.152  0.00  0.00    +0.000 A 
ATOM     24  C   UNL     1       0.796   3.291  20.205  0.00  0.00    +0.000 A 
ATOM     25  N   UNL     1       1.405   4.491  20.270  0.00  0.00    +0.000 NA
ENDBRANCH  19  20
ENDBRANCH  18  19
ENDBRANCH  15  18
TORSDOF 3
ENDMDL
MODEL 9
REMARK VINA RESULT:      -6.8      4.244      6.031
REMARK  Name = 
REMARK  5 active torsions:
REMARK  status: ('A' for Active; 'I' for Inactive)
REMARK    1  A    between atoms: C_1  and  C_2
REMARK    2  A    between atoms: N_4  and  C_5
REMARK    3  A    between atoms: C_15  and  O_16
REMARK    4  A    between atoms: O_16  and  C_17
REMARK    5  A    between atoms: C_17  and  C_18
REMARK                            x       y       z     vdW  Elec       q    Type
REMARK                         _______ _______ _______ _____ _____    ______ ____
ROOT
ATOM      1  C   UNL     1      -1.341  11.275  17.802  0.00  0.00    +0.000 C 
ATOM      2  C   UNL     1      -1.642  11.612  19.210  0.00  0.00    +0.000 A 
ATOM      3  N   UNL     1      -2.712  12.391  19.421  0.00  0.00    +0.000 NA
ATOM      4  N   UNL     1      -2.813  12.444  20.756  0.00  0.00    +0.000 N 
ATOM      5  C   UNL     1      -3.925  13.138  21.354  0.00  0.00    +0.000 C 
ATOM      6  C   UNL     1      -1.838  11.753  21.416  0.00  0.00    +0.000 A 
ATOM      7  N   UNL     1      -1.735  11.621  22.745  0.00  0.00    +0.000 NA
ATOM      8  C   UNL     1      -0.699  10.845  23.075  0.00  0.00    +0.000 A 
ATOM      9  N   UNL     1       0.177  10.260  22.246  0.00  0.00    +0.000 NA
ATOM     10  C   UNL     1       0.081  10.422  20.890  0.00  0.00    +0.000 A 
ATOM     11  N   UNL     1       0.996   9.745  20.112  0.00  0.00    +0.000 N 
ATOM     12  C   UNL     1       1.559  10.224  18.867  0.00  0.00    +0.000 C 
ATOM     13  C   UNL     1       1.424   9.095  17.839  0.00  0.00    +0.000 C 
ATOM     14  C   UNL     1       2.068   7.796  18.335  0.00  0.00    +0.000 C 
ATOM     15  C   UNL     1       1.643   7.421  19.769  0.00  0.00    +0.000 C 
ATOM     16  C   UNL     1       1.762   8.649  20.700  0.00  0.00    +0.000 C 
ATOM     17  C   UNL     1      -1.008  11.212  20.432  0.00  0.00    +0.000 A 
ENDROOT
BRANCH  15  18
ATOM     18  O   UNL     1       2.463   6.323  20.183  0.00  0.00    +0.000 OA
BRANCH  18  19
ATOM     19  C   UNL     1       1.716   5.129  20.433  0.00  0.00    +0.000 C 
BRANCH  19  20
ATOM     20  C   UNL     1       2.297   3.978  19.656  0.00  0.00    +0.000 A 
ATOM     21  C   UNL     1       1.650   3.493  18.525  0.00  0.00    +0.000 A 
ATOM     22  C   UNL     1       2.211   2.417  17.847  0.00  0.00    +0.000 A 
ATOM     23  C   UNL     1       3.401   1.864  18.309  0.00  0.00    +0.000 A 
ATOM     24  C   UNL     1       3.983   2.409  19.439  0.00  0.00    +0.000 A 
ATOM     25  N   UNL     1       3.456   3.443  20.125  0.00  0.00    +0.000 NA
ENDBRANCH  19  20
ENDBRANCH  18  19
ENDBRANCH  15  18
TORSDOF 3
ENDMDL
