MODEL 1
REMARK VINA RESULT:      -8.2      0.000      0.000
REMARK  Name = 
REMARK  10 active torsions:
REMARK  status: ('A' for Active; 'I' for Inactive)
REMARK    1  A    between atoms: C_1  and  N_2
REMARK    2  A    between atoms: N_2  and  C_3
REMARK    3  A    between atoms: N_2  and  C_4
REMARK    4  A    between atoms: C_4  and  C_5
REMARK    5  A    between atoms: C_4  and  C_28
REMARK    6  A    between atoms: C_5  and  N_6
REMARK    7  A    between atoms: C_7  and  C_9
REMARK    8  A    between atoms: N_12  and  S_13
REMARK    9  A    between atoms: S_13  and  C_16
REMARK   10  A    between atoms: C_20  and  C_21
REMARK                            x       y       z     vdW  Elec       q    Type
REMARK                         _______ _______ _______ _____ _____    ______ ____
ROOT
ATOM      1  C   UNL     1       0.072   9.763  18.793  0.00  0.00    +0.000 C 
ATOM      2  C   UNL     1      -0.426  11.127  18.307  0.00  0.00    +0.000 C 
ATOM      3  C   UNL     1       0.371  12.279  18.926  0.00  0.00    +0.000 C 
ATOM      4  N   UNL     1       0.327  12.214  20.418  0.00  0.00    +0.000 NA
ATOM      5  C   UNL     1       0.817  10.900  20.943  0.00  0.00    +0.000 C 
ATOM      6  C   UNL     1       0.061   9.732  20.318  0.00  0.00    +0.000 C 
ENDROOT
BRANCH   1   8
ATOM      7  N   UNL     1       1.870   8.163  18.408  0.00  0.00    +0.000 N 
ATOM      8  C   UNL     1       1.459   9.456  18.221  0.00  0.00    +0.000 C 
ATOM      9  O   UNL     1       2.125  10.267  17.589  0.00  0.00    +0.000 OA
ATOM     10  H   UNL     1       1.497   7.659  19.202  0.00  0.00    +0.000 HD
BRANCH   7  11
ATOM     11  C   UNL     1       3.147   7.701  17.867  0.00  0.00    +0.000 C 
BRANCH  11  12
ATOM     12  C   UNL     1       3.730   6.436  18.580  0.00  0.00    +0.000 C 
BRANCH  12  13
ATOM     13  C   UNL     1       2.649   5.390  18.934  0.00  0.00    +0.000 A 
ATOM     14  C   UNL     1       2.163   5.283  20.249  0.00  0.00    +0.000 A 
ATOM     15  C   UNL     1       1.268   4.272  20.612  0.00  0.00    +0.000 A 
ATOM     16  C   UNL     1       0.804   3.373  19.655  0.00  0.00    +0.000 A 
ATOM     17  C   UNL     1       1.194   3.517  18.331  0.00  0.00    +0.000 A 
ATOM     18  C   UNL     1       2.092   4.525  17.971  0.00  0.00    +0.000 A 
ENDBRANCH  12  13
BRANCH  12  20
ATOM     19  C   UNL     1       5.458   6.591  16.774  0.00  0.00    +0.000 C 
ATOM     20  N   UNL     1       4.919   5.833  17.901  0.00  0.00    +0.000 NA
ATOM     21  C   UNL     1       5.998   5.512  18.838  0.00  0.00    +0.000 C 
ENDBRANCH  12  20
ENDBRANCH  11  12
ENDBRANCH   7  11
ENDBRANCH   1   8
BRANCH   4  22
ATOM     22  S   UNL     1       1.191  13.502  21.189  0.00  0.00    +0.000 S 
ATOM     23  O   UNL     1       0.486  13.860  22.404  0.00  0.00    +0.000 OA
ATOM     24  O   UNL     1       2.593  13.141  21.213  0.00  0.00    +0.000 OA
BRANCH  22  25
ATOM     25  C   UNL     1       1.000  14.881  20.083  0.00  0.00    +0.000 A 
ATOM     26  C   UNL     1      -0.240  15.515  19.966  0.00  0.00    +0.000 A 
ATOM     27  C   UNL     1      -0.412  16.515  19.011  0.00  0.00    +0.000 A 
ATOM     28  C   UNL     1       0.648  16.882  18.179  0.00  0.00    +0.000 A 
ATOM     29  C   UNL     1       1.899  16.251  18.290  0.00  0.00    +0.000 A 
ATOM     30  C   UNL     1       2.067  15.237  19.247  0.00  0.00    +0.000 A 
BRANCH  29  31
ATOM     31  C   UNL     1       3.048  16.643  17.392  0.00  0.00    +0.000 C 
ATOM     32  F   UNL     1       4.130  17.122  18.070  0.00  0.00    +0.000 F 
ATOM     33  F   UNL     1       3.508  15.594  16.656  0.00  0.00    +0.000 F 
ATOM     34  F   UNL     1       2.710  17.611  16.497  0.00  0.00    +0.000 F 
ENDBRANCH  29  31
ENDBRANCH  22  25
ENDBRANCH   4  22
TORSDOF 8
ENDMDL
MODEL 2
REMARK VINA RESULT:      -7.7      3.802      4.476
REMARK  Name = 
REMARK  10 active torsions:
REMARK  status: ('A' for Active; 'I' for Inactive)
REMARK    1  A    between atoms: C_1  and  N_2
REMARK    2  A    between atoms: N_2  and  C_3
REMARK    3  A    between atoms: N_2  and  C_4
REMARK    4  A    between atoms: C_4  and  C_5
REMARK    5  A    between atoms: C_4  and  C_28
REMARK    6  A    between atoms: C_5  and  N_6
REMARK    7  A    between atoms: C_7  and  C_9
REMARK    8  A    between atoms: N_12  and  S_13
REMARK    9  A    between atoms: S_13  and  C_16
REMARK   10  A    between atoms: C_20  and  C_21
REMARK                            x       y       z     vdW  Elec       q    Type
REMARK                         _______ _______ _______ _____ _____    ______ ____
ROOT
ATOM      1  C   UNL     1       0.108   9.384  18.861  0.00  0.00    +0.000 C 
ATOM      2  C   UNL     1      -0.634  10.593  18.282  0.00  0.00    +0.000 C 
ATOM      3  C   UNL     1       0.005  11.915  18.717  0.00  0.00    +0.000 C 
ATOM      4  N   UNL     1       0.068  12.012  20.207  0.00  0.00    +0.000 NA
ATOM      5  C   UNL     1       0.797  10.855  20.818  0.00  0.00    +0.000 C 
ATOM      6  C   UNL     1       0.200   9.523  20.378  0.00  0.00    +0.000 C 
ENDROOT
BRANCH   1   8
ATOM      7  N   UNL     1       2.027   7.978  18.330  0.00  0.00    +0.000 N 
ATOM      8  C   UNL     1       1.486   9.232  18.212  0.00  0.00    +0.000 C 
ATOM      9  O   UNL     1       2.039  10.123  17.580  0.00  0.00    +0.000 OA
ATOM     10  H   UNL     1       1.744   7.414  19.121  0.00  0.00    +0.000 HD
BRANCH   7  11
ATOM     11  C   UNL     1       3.312   7.660  17.711  0.00  0.00    +0.000 C 
BRANCH  11  12
ATOM     12  C   UNL     1       3.957   6.327  18.215  0.00  0.00    +0.000 C 
BRANCH  12  13
ATOM     13  C   UNL     1       2.922   5.330  18.784  0.00  0.00    +0.000 A 
ATOM     14  C   UNL     1       2.239   4.445  17.930  0.00  0.00    +0.000 A 
ATOM     15  C   UNL     1       1.222   3.615  18.411  0.00  0.00    +0.000 A 
ATOM     16  C   UNL     1       0.896   3.620  19.764  0.00  0.00    +0.000 A 
ATOM     17  C   UNL     1       1.621   4.414  20.643  0.00  0.00    +0.000 A 
ATOM     18  C   UNL     1       2.634   5.246  20.160  0.00  0.00    +0.000 A 
ENDBRANCH  12  13
BRANCH  12  20
ATOM     19  C   UNL     1       5.143   6.432  16.012  0.00  0.00    +0.000 C 
ATOM     20  N   UNL     1       4.903   5.688  17.246  0.00  0.00    +0.000 NA
ATOM     21  C   UNL     1       6.183   5.333  17.862  0.00  0.00    +0.000 C 
ENDBRANCH  12  20
ENDBRANCH  11  12
ENDBRANCH   7  11
ENDBRANCH   1   8
BRANCH   4  22
ATOM     22  S   UNL     1       0.761  13.494  20.772  0.00  0.00    +0.000 S 
ATOM     23  O   UNL     1       1.994  13.184  21.468  0.00  0.00    +0.000 OA
ATOM     24  O   UNL     1       0.735  14.441  19.677  0.00  0.00    +0.000 OA
BRANCH  22  25
ATOM     25  C   UNL     1      -0.377  14.063  22.014  0.00  0.00    +0.000 A 
ATOM     26  C   UNL     1      -0.052  15.169  22.804  0.00  0.00    +0.000 A 
ATOM     27  C   UNL     1      -0.893  15.536  23.853  0.00  0.00    +0.000 A 
ATOM     28  C   UNL     1      -2.055  14.803  24.109  0.00  0.00    +0.000 A 
ATOM     29  C   UNL     1      -2.392  13.691  23.319  0.00  0.00    +0.000 A 
ATOM     30  C   UNL     1      -1.536  13.319  22.269  0.00  0.00    +0.000 A 
BRANCH  29  31
ATOM     31  C   UNL     1      -3.645  12.895  23.594  0.00  0.00    +0.000 C 
ATOM     32  F   UNL     1      -4.521  13.530  24.423  0.00  0.00    +0.000 F 
ATOM     33  F   UNL     1      -4.343  12.625  22.456  0.00  0.00    +0.000 F 
ATOM     34  F   UNL     1      -3.389  11.691  24.173  0.00  0.00    +0.000 F 
ENDBRANCH  29  31
ENDBRANCH  22  25
ENDBRANCH   4  22
TORSDOF 8
ENDMDL
MODEL 3
REMARK VINA RESULT:      -7.7      1.034      1.673
REMARK  Name = 
REMARK  10 active torsions:
REMARK  status: ('A' for Active; 'I' for Inactive)
REMARK    1  A    between atoms: C_1  and  N_2
REMARK    2  A    between atoms: N_2  and  C_3
REMARK    3  A    between atoms: N_2  and  C_4
REMARK    4  A    between atoms: C_4  and  C_5
REMARK    5  A    between atoms: C_4  and  C_28
REMARK    6  A    between atoms: C_5  and  N_6
REMARK    7  A    between atoms: C_7  and  C_9
REMARK    8  A    between atoms: N_12  and  S_13
REMARK    9  A    between atoms: S_13  and  C_16
REMARK   10  A    between atoms: C_20  and  C_21
REMARK                            x       y       z     vdW  Elec       q    Type
REMARK                         _______ _______ _______ _____ _____    ______ ____
ROOT
ATOM      1  C   UNL     1       0.165   9.744  18.660  0.00  0.00    +0.000 C 
ATOM      2  C   UNL     1      -0.309  11.098  18.125  0.00  0.00    +0.000 C 
ATOM      3  C   UNL     1       0.521  12.255  18.689  0.00  0.00    +0.000 C 
ATOM      4  N   UNL     1       0.493  12.251  20.183  0.00  0.00    +0.000 NA
ATOM      5  C   UNL     1       0.961  10.948  20.753  0.00  0.00    +0.000 C 
ATOM      6  C   UNL     1       0.172   9.774  20.185  0.00  0.00    +0.000 C 
ENDROOT
BRANCH   1   8
ATOM      7  N   UNL     1       1.887   8.069  18.247  0.00  0.00    +0.000 N 
ATOM      8  C   UNL     1       1.537   9.383  18.084  0.00  0.00    +0.000 C 
ATOM      9  O   UNL     1       2.242  10.173  17.469  0.00  0.00    +0.000 OA
ATOM     10  H   UNL     1       1.488   7.567  19.031  0.00  0.00    +0.000 HD
BRANCH   7  11
ATOM     11  C   UNL     1       3.141   7.558  17.700  0.00  0.00    +0.000 C 
BRANCH  11  12
ATOM     12  C   UNL     1       3.752   6.358  18.498  0.00  0.00    +0.000 C 
BRANCH  12  13
ATOM     13  C   UNL     1       2.695   5.312  18.920  0.00  0.00    +0.000 A 
ATOM     14  C   UNL     1       2.244   5.251  20.251  0.00  0.00    +0.000 A 
ATOM     15  C   UNL     1       1.373   4.243  20.675  0.00  0.00    +0.000 A 
ATOM     16  C   UNL     1       0.898   3.301  19.767  0.00  0.00    +0.000 A 
ATOM     17  C   UNL     1       1.253   3.398  18.428  0.00  0.00    +0.000 A 
ATOM     18  C   UNL     1       2.127   4.403  18.006  0.00  0.00    +0.000 A 
ENDBRANCH  12  13
BRANCH  12  20
ATOM     19  C   UNL     1       5.946   6.676  17.332  0.00  0.00    +0.000 C 
ATOM     20  N   UNL     1       4.958   5.739  17.863  0.00  0.00    +0.000 NA
ATOM     21  C   UNL     1       5.621   4.773  18.741  0.00  0.00    +0.000 C 
ENDBRANCH  12  20
ENDBRANCH  11  12
ENDBRANCH   7  11
ENDBRANCH   1   8
BRANCH   4  22
ATOM     22  S   UNL     1       1.395  13.548  20.892  0.00  0.00    +0.000 S 
ATOM     23  O   UNL     1       0.465  14.444  21.549  0.00  0.00    +0.000 OA
ATOM     24  O   UNL     1       2.514  12.970  21.607  0.00  0.00    +0.000 OA
BRANCH  22  25
ATOM     25  C   UNL     1       2.043  14.443  19.498  0.00  0.00    +0.000 A 
ATOM     26  C   UNL     1       3.272  14.078  18.944  0.00  0.00    +0.000 A 
ATOM     27  C   UNL     1       3.828  14.857  17.931  0.00  0.00    +0.000 A 
ATOM     28  C   UNL     1       3.159  15.993  17.472  0.00  0.00    +0.000 A 
ATOM     29  C   UNL     1       1.921  16.369  18.022  0.00  0.00    +0.000 A 
ATOM     30  C   UNL     1       1.368  15.586  19.049  0.00  0.00    +0.000 A 
BRANCH  29  31
ATOM     31  C   UNL     1       1.194  17.598  17.530  0.00  0.00    +0.000 C 
ATOM     32  F   UNL     1      -0.134  17.390  17.305  0.00  0.00    +0.000 F 
ATOM     33  F   UNL     1       1.262  18.627  18.420  0.00  0.00    +0.000 F 
ATOM     34  F   UNL     1       1.701  18.077  16.362  0.00  0.00    +0.000 F 
ENDBRANCH  29  31
ENDBRANCH  22  25
ENDBRANCH   4  22
TORSDOF 8
ENDMDL
MODEL 4
REMARK VINA RESULT:      -7.7      4.555      5.722
REMARK  Name = 
REMARK  10 active torsions:
REMARK  status: ('A' for Active; 'I' for Inactive)
REMARK    1  A    between atoms: C_1  and  N_2
REMARK    2  A    between atoms: N_2  and  C_3
REMARK    3  A    between atoms: N_2  and  C_4
REMARK    4  A    between atoms: C_4  and  C_5
REMARK    5  A    between atoms: C_4  and  C_28
REMARK    6  A    between atoms: C_5  and  N_6
REMARK    7  A    between atoms: C_7  and  C_9
REMARK    8  A    between atoms: N_12  and  S_13
REMARK    9  A    between atoms: S_13  and  C_16
REMARK   10  A    between atoms: C_20  and  C_21
REMARK                            x       y       z     vdW  Elec       q    Type
REMARK                         _______ _______ _______ _____ _____    ______ ____
ROOT
ATOM      1  C   UNL     1       1.120   9.693  18.037  0.00  0.00    +0.000 C 
ATOM      2  C   UNL     1       1.807  11.022  18.367  0.00  0.00    +0.000 C 
ATOM      3  C   UNL     1       1.524  11.467  19.805  0.00  0.00    +0.000 C 
ATOM      4  N   UNL     1       0.054  11.569  20.051  0.00  0.00    +0.000 NA
ATOM      5  C   UNL     1      -0.661  10.287  19.752  0.00  0.00    +0.000 C 
ATOM      6  C   UNL     1      -0.372   9.804  18.336  0.00  0.00    +0.000 C 
ENDROOT
BRANCH   1   8
ATOM      7  N   UNL     1       2.602   7.758  18.034  0.00  0.00    +0.000 N 
ATOM      8  C   UNL     1       1.776   8.539  18.799  0.00  0.00    +0.000 C 
ATOM      9  O   UNL     1       1.639   8.358  20.002  0.00  0.00    +0.000 OA
ATOM     10  H   UNL     1       2.415   7.704  17.041  0.00  0.00    +0.000 HD
BRANCH   7  11
ATOM     11  C   UNL     1       3.347   6.653  18.632  0.00  0.00    +0.000 C 
BRANCH  11  12
ATOM     12  C   UNL     1       3.344   5.339  17.783  0.00  0.00    +0.000 C 
BRANCH  12  13
ATOM     13  C   UNL     1       4.663   5.116  17.008  0.00  0.00    +0.000 A 
ATOM     14  C   UNL     1       5.786   5.923  17.265  0.00  0.00    +0.000 A 
ATOM     15  C   UNL     1       6.950   5.809  16.499  0.00  0.00    +0.000 A 
ATOM     16  C   UNL     1       7.033   4.854  15.489  0.00  0.00    +0.000 A 
ATOM     17  C   UNL     1       5.973   3.982  15.280  0.00  0.00    +0.000 A 
ATOM     18  C   UNL     1       4.808   4.100  16.043  0.00  0.00    +0.000 A 
ENDBRANCH  12  13
BRANCH  12  20
ATOM     19  C   UNL     1       3.853   3.575  19.486  0.00  0.00    +0.000 C 
ATOM     20  N   UNL     1       2.896   4.119  18.526  0.00  0.00    +0.000 NA
ATOM     21  C   UNL     1       1.597   4.304  19.177  0.00  0.00    +0.000 C 
ENDBRANCH  12  20
ENDBRANCH  11  12
ENDBRANCH   7  11
ENDBRANCH   1   8
BRANCH   4  22
ATOM     22  S   UNL     1      -0.342  12.089  21.654  0.00  0.00    +0.000 S 
ATOM     23  O   UNL     1      -0.142  10.974  22.557  0.00  0.00    +0.000 OA
ATOM     24  O   UNL     1       0.309  13.363  21.879  0.00  0.00    +0.000 OA
BRANCH  22  25
ATOM     25  C   UNL     1      -2.097  12.374  21.601  0.00  0.00    +0.000 A 
ATOM     26  C   UNL     1      -2.729  12.609  20.377  0.00  0.00    +0.000 A 
ATOM     27  C   UNL     1      -4.080  12.949  20.356  0.00  0.00    +0.000 A 
ATOM     28  C   UNL     1      -4.797  13.051  21.550  0.00  0.00    +0.000 A 
ATOM     29  C   UNL     1      -4.171  12.815  22.786  0.00  0.00    +0.000 A 
ATOM     30  C   UNL     1      -2.807  12.482  22.804  0.00  0.00    +0.000 A 
BRANCH  29  31
ATOM     31  C   UNL     1      -4.942  12.925  24.080  0.00  0.00    +0.000 C 
ATOM     32  F   UNL     1      -4.362  12.257  25.117  0.00  0.00    +0.000 F 
ATOM     33  F   UNL     1      -5.068  14.216  24.496  0.00  0.00    +0.000 F 
ATOM     34  F   UNL     1      -6.208  12.437  23.982  0.00  0.00    +0.000 F 
ENDBRANCH  29  31
ENDBRANCH  22  25
ENDBRANCH   4  22
TORSDOF 8
ENDMDL
MODEL 5
REMARK VINA RESULT:      -7.6      3.827      4.415
REMARK  Name = 
REMARK  10 active torsions:
REMARK  status: ('A' for Active; 'I' for Inactive)
REMARK    1  A    between atoms: C_1  and  N_2
REMARK    2  A    between atoms: N_2  and  C_3
REMARK    3  A    between atoms: N_2  and  C_4
REMARK    4  A    between atoms: C_4  and  C_5
REMARK    5  A    between atoms: C_4  and  C_28
REMARK    6  A    between atoms: C_5  and  N_6
REMARK    7  A    between atoms: C_7  and  C_9
REMARK    8  A    between atoms: N_12  and  S_13
REMARK    9  A    between atoms: S_13  and  C_16
REMARK   10  A    between atoms: C_20  and  C_21
REMARK                            x       y       z     vdW  Elec       q    Type
REMARK                         _______ _______ _______ _____ _____    ______ ____
ROOT
ATOM      1  C   UNL     1      -0.029   9.592  18.867  0.00  0.00    +0.000 C 
ATOM      2  C   UNL     1      -0.674  10.836  18.249  0.00  0.00    +0.000 C 
ATOM      3  C   UNL     1      -0.012  12.126  18.742  0.00  0.00    +0.000 C 
ATOM      4  N   UNL     1      -0.053  12.209  20.233  0.00  0.00    +0.000 NA
ATOM      5  C   UNL     1       0.579  11.017  20.884  0.00  0.00    +0.000 C 
ATOM      6  C   UNL     1      -0.041   9.715  20.387  0.00  0.00    +0.000 C 
ENDROOT
BRANCH   1   8
ATOM      7  N   UNL     1       1.841   8.096  18.414  0.00  0.00    +0.000 N 
ATOM      8  C   UNL     1       1.385   9.384  18.317  0.00  0.00    +0.000 C 
ATOM      9  O   UNL     1       2.035  10.267  17.772  0.00  0.00    +0.000 OA
ATOM     10  H   UNL     1       1.465   7.516  19.153  0.00  0.00    +0.000 HD
BRANCH   7  11
ATOM     11  C   UNL     1       3.150   7.728  17.878  0.00  0.00    +0.000 C 
BRANCH  11  12
ATOM     12  C   UNL     1       3.766   6.436  18.512  0.00  0.00    +0.000 C 
BRANCH  12  13
ATOM     13  C   UNL     1       2.699   5.391  18.911  0.00  0.00    +0.000 A 
ATOM     14  C   UNL     1       2.269   5.284  20.246  0.00  0.00    +0.000 A 
ATOM     15  C   UNL     1       1.388   4.274  20.645  0.00  0.00    +0.000 A 
ATOM     16  C   UNL     1       0.883   3.377  19.708  0.00  0.00    +0.000 A 
ATOM     17  C   UNL     1       1.217   3.521  18.368  0.00  0.00    +0.000 A 
ATOM     18  C   UNL     1       2.101   4.528  17.972  0.00  0.00    +0.000 A 
ENDBRANCH  12  13
BRANCH  12  20
ATOM     19  C   UNL     1       5.469   6.692  16.695  0.00  0.00    +0.000 C 
ATOM     20  N   UNL     1       4.898   5.841  17.735  0.00  0.00    +0.000 NA
ATOM     21  C   UNL     1       5.967   5.335  18.598  0.00  0.00    +0.000 C 
ENDBRANCH  12  20
ENDBRANCH  11  12
ENDBRANCH   7  11
ENDBRANCH   1   8
BRANCH   4  22
ATOM     22  S   UNL     1       0.660  13.655  20.862  0.00  0.00    +0.000 S 
ATOM     23  O   UNL     1       1.887  13.298  21.545  0.00  0.00    +0.000 OA
ATOM     24  O   UNL     1       0.649  14.649  19.809  0.00  0.00    +0.000 OA
BRANCH  22  25
ATOM     25  C   UNL     1      -0.472  14.187  22.127  0.00  0.00    +0.000 A 
ATOM     26  C   UNL     1      -0.101  15.202  23.013  0.00  0.00    +0.000 A 
ATOM     27  C   UNL     1      -0.944  15.530  24.073  0.00  0.00    +0.000 A 
ATOM     28  C   UNL     1      -2.151  14.850  24.246  0.00  0.00    +0.000 A 
ATOM     29  C   UNL     1      -2.534  13.828  23.360  0.00  0.00    +0.000 A 
ATOM     30  C   UNL     1      -1.678  13.494  22.298  0.00  0.00    +0.000 A 
BRANCH  29  31
ATOM     31  C   UNL     1      -3.837  13.089  23.544  0.00  0.00    +0.000 C 
ATOM     32  F   UNL     1      -4.199  12.346  22.460  0.00  0.00    +0.000 F 
ATOM     33  F   UNL     1      -3.793  12.219  24.591  0.00  0.00    +0.000 F 
ATOM     34  F   UNL     1      -4.885  13.922  23.792  0.00  0.00    +0.000 F 
ENDBRANCH  29  31
ENDBRANCH  22  25
ENDBRANCH   4  22
TORSDOF 8
ENDMDL
MODEL 6
REMARK VINA RESULT:      -7.6      5.136      9.489
REMARK  Name = 
REMARK  10 active torsions:
REMARK  status: ('A' for Active; 'I' for Inactive)
REMARK    1  A    between atoms: C_1  and  N_2
REMARK    2  A    between atoms: N_2  and  C_3
REMARK    3  A    between atoms: N_2  and  C_4
REMARK    4  A    between atoms: C_4  and  C_5
REMARK    5  A    between atoms: C_4  and  C_28
REMARK    6  A    between atoms: C_5  and  N_6
REMARK    7  A    between atoms: C_7  and  C_9
REMARK    8  A    between atoms: N_12  and  S_13
REMARK    9  A    between atoms: S_13  and  C_16
REMARK   10  A    between atoms: C_20  and  C_21
REMARK                            x       y       z     vdW  Elec       q    Type
REMARK                         _______ _______ _______ _____ _____    ______ ____
ROOT
ATOM      1  C   UNL     1       1.409   4.866  21.021  0.00  0.00    +0.000 C 
ATOM      2  C   UNL     1       2.612   4.015  21.437  0.00  0.00    +0.000 C 
ATOM      3  C   UNL     1       3.442   3.572  20.229  0.00  0.00    +0.000 C 
ATOM      4  N   UNL     1       2.596   2.827  19.247  0.00  0.00    +0.000 NA
ATOM      5  C   UNL     1       1.410   3.626  18.801  0.00  0.00    +0.000 C 
ATOM      6  C   UNL     1       0.583   4.107  19.988  0.00  0.00    +0.000 C 
ENDROOT
BRANCH   1   8
ATOM      7  N   UNL     1       1.258   7.297  21.118  0.00  0.00    +0.000 N 
ATOM      8  C   UNL     1       1.865   6.233  20.504  0.00  0.00    +0.000 C 
ATOM      9  O   UNL     1       2.743   6.380  19.664  0.00  0.00    +0.000 OA
ATOM     10  H   UNL     1       0.335   7.154  21.507  0.00  0.00    +0.000 HD
BRANCH   7  11
ATOM     11  C   UNL     1       1.630   8.667  20.774  0.00  0.00    +0.000 C 
BRANCH  11  12
ATOM     12  C   UNL     1       0.460   9.527  20.191  0.00  0.00    +0.000 C 
BRANCH  12  13
ATOM     13  C   UNL     1      -0.028  10.624  21.164  0.00  0.00    +0.000 A 
ATOM     14  C   UNL     1      -0.748  10.281  22.323  0.00  0.00    +0.000 A 
ATOM     15  C   UNL     1      -1.291  11.264  23.155  0.00  0.00    +0.000 A 
ATOM     16  C   UNL     1      -1.087  12.612  22.872  0.00  0.00    +0.000 A 
ATOM     17  C   UNL     1      -0.300  12.974  21.788  0.00  0.00    +0.000 A 
ATOM     18  C   UNL     1       0.239  11.991  20.954  0.00  0.00    +0.000 A 
ENDBRANCH  12  13
BRANCH  12  20
ATOM     19  C   UNL     1       1.730   9.350  18.040  0.00  0.00    +0.000 C 
ATOM     20  N   UNL     1       0.699  10.045  18.807  0.00  0.00    +0.000 NA
ATOM     21  C   UNL     1      -0.532  10.124  18.017  0.00  0.00    +0.000 C 
ENDBRANCH  12  20
ENDBRANCH  11  12
ENDBRANCH   7  11
ENDBRANCH   1   8
BRANCH   4  22
ATOM     22  S   UNL     1       3.474   2.274  17.861  0.00  0.00    +0.000 S 
ATOM     23  O   UNL     1       4.389   1.235  18.286  0.00  0.00    +0.000 OA
ATOM     24  O   UNL     1       2.520   2.045  16.796  0.00  0.00    +0.000 OA
BRANCH  22  25
ATOM     25  C   UNL     1       4.484   3.664  17.401  0.00  0.00    +0.000 A 
ATOM     26  C   UNL     1       4.305   4.274  16.156  0.00  0.00    +0.000 A 
ATOM     27  C   UNL     1       5.178   5.284  15.754  0.00  0.00    +0.000 A 
ATOM     28  C   UNL     1       6.222   5.683  16.592  0.00  0.00    +0.000 A 
ATOM     29  C   UNL     1       6.408   5.077  17.847  0.00  0.00    +0.000 A 
ATOM     30  C   UNL     1       5.532   4.054  18.244  0.00  0.00    +0.000 A 
BRANCH  29  31
ATOM     31  C   UNL     1       7.536   5.505  18.755  0.00  0.00    +0.000 C 
ATOM     32  F   UNL     1       7.167   5.621  20.062  0.00  0.00    +0.000 F 
ATOM     33  F   UNL     1       8.573   4.623  18.739  0.00  0.00    +0.000 F 
ATOM     34  F   UNL     1       8.063   6.711  18.408  0.00  0.00    +0.000 F 
ENDBRANCH  29  31
ENDBRANCH  22  25
ENDBRANCH   4  22
TORSDOF 8
ENDMDL
MODEL 7
REMARK VINA RESULT:      -7.6      4.429      5.727
REMARK  Name = 
REMARK  10 active torsions:
REMARK  status: ('A' for Active; 'I' for Inactive)
REMARK    1  A    between atoms: C_1  and  N_2
REMARK    2  A    between atoms: N_2  and  C_3
REMARK    3  A    between atoms: N_2  and  C_4
REMARK    4  A    between atoms: C_4  and  C_5
REMARK    5  A    between atoms: C_4  and  C_28
REMARK    6  A    between atoms: C_5  and  N_6
REMARK    7  A    between atoms: C_7  and  C_9
REMARK    8  A    between atoms: N_12  and  S_13
REMARK    9  A    between atoms: S_13  and  C_16
REMARK   10  A    between atoms: C_20  and  C_21
REMARK                            x       y       z     vdW  Elec       q    Type
REMARK                         _______ _______ _______ _____ _____    ______ ____
ROOT
ATOM      1  C   UNL     1       1.131   9.524  17.999  0.00  0.00    +0.000 C 
ATOM      2  C   UNL     1       1.841  10.865  18.202  0.00  0.00    +0.000 C 
ATOM      3  C   UNL     1       1.542  11.466  19.579  0.00  0.00    +0.000 C 
ATOM      4  N   UNL     1       0.070  11.624  19.783  0.00  0.00    +0.000 NA
ATOM      5  C   UNL     1      -0.668  10.332  19.606  0.00  0.00    +0.000 C 
ATOM      6  C   UNL     1      -0.364   9.696  18.254  0.00  0.00    +0.000 C 
ENDROOT
BRANCH   1   8
ATOM      7  N   UNL     1       2.293   7.392  18.206  0.00  0.00    +0.000 N 
ATOM      8  C   UNL     1       1.747   8.443  18.892  0.00  0.00    +0.000 C 
ATOM      9  O   UNL     1       1.814   8.531  20.112  0.00  0.00    +0.000 OA
ATOM     10  H   UNL     1       1.916   7.177  17.291  0.00  0.00    +0.000 HD
BRANCH   7  11
ATOM     11  C   UNL     1       2.972   6.310  18.916  0.00  0.00    +0.000 C 
BRANCH  11  12
ATOM     12  C   UNL     1       3.932   5.455  18.024  0.00  0.00    +0.000 C 
BRANCH  12  13
ATOM     13  C   UNL     1       5.406   5.912  18.112  0.00  0.00    +0.000 A 
ATOM     14  C   UNL     1       6.284   5.315  19.034  0.00  0.00    +0.000 A 
ATOM     15  C   UNL     1       7.588   5.789  19.204  0.00  0.00    +0.000 A 
ATOM     16  C   UNL     1       8.057   6.841  18.423  0.00  0.00    +0.000 A 
ATOM     17  C   UNL     1       7.241   7.384  17.440  0.00  0.00    +0.000 A 
ATOM     18  C   UNL     1       5.936   6.912  17.274  0.00  0.00    +0.000 A 
ENDBRANCH  12  13
BRANCH  12  20
ATOM     19  C   UNL     1       3.308   3.523  19.491  0.00  0.00    +0.000 C 
ATOM     20  N   UNL     1       3.774   3.975  18.182  0.00  0.00    +0.000 NA
ATOM     21  C   UNL     1       2.940   3.384  17.133  0.00  0.00    +0.000 C 
ENDBRANCH  12  20
ENDBRANCH  11  12
ENDBRANCH   7  11
ENDBRANCH   1   8
BRANCH   4  22
ATOM     22  S   UNL     1      -0.343  12.318  21.314  0.00  0.00    +0.000 S 
ATOM     23  O   UNL     1      -0.035  11.354  22.349  0.00  0.00    +0.000 OA
ATOM     24  O   UNL     1       0.199  13.660  21.351  0.00  0.00    +0.000 OA
BRANCH  22  25
ATOM     25  C   UNL     1      -2.117  12.448  21.271  0.00  0.00    +0.000 A 
ATOM     26  C   UNL     1      -2.779  12.560  20.045  0.00  0.00    +0.000 A 
ATOM     27  C   UNL     1      -4.155  12.781  20.025  0.00  0.00    +0.000 A 
ATOM     28  C   UNL     1      -4.866  12.886  21.223  0.00  0.00    +0.000 A 
ATOM     29  C   UNL     1      -4.210  12.774  22.460  0.00  0.00    +0.000 A 
ATOM     30  C   UNL     1      -2.822  12.560  22.476  0.00  0.00    +0.000 A 
BRANCH  29  31
ATOM     31  C   UNL     1      -4.974  12.889  23.757  0.00  0.00    +0.000 C 
ATOM     32  F   UNL     1      -4.523  12.048  24.731  0.00  0.00    +0.000 F 
ATOM     33  F   UNL     1      -4.903  14.141  24.287  0.00  0.00    +0.000 F 
ATOM     34  F   UNL     1      -6.299  12.616  23.613  0.00  0.00    +0.000 F 
ENDBRANCH  29  31
ENDBRANCH  22  25
ENDBRANCH   4  22
TORSDOF 8
ENDMDL
MODEL 8
REMARK VINA RESULT:      -7.6      5.238      9.142
REMARK  Name = 
REMARK  10 active torsions:
REMARK  status: ('A' for Active; 'I' for Inactive)
REMARK    1  A    between atoms: C_1  and  N_2
REMARK    2  A    between atoms: N_2  and  C_3
REMARK    3  A    between atoms: N_2  and  C_4
REMARK    4  A    between atoms: C_4  and  C_5
REMARK    5  A    between atoms: C_4  and  C_28
REMARK    6  A    between atoms: C_5  and  N_6
REMARK    7  A    between atoms: C_7  and  C_9
REMARK    8  A    between atoms: N_12  and  S_13
REMARK    9  A    between atoms: S_13  and  C_16
REMARK   10  A    between atoms: C_20  and  C_21
REMARK                            x       y       z     vdW  Elec       q    Type
REMARK                         _______ _______ _______ _____ _____    ______ ____
ROOT
ATOM      1  C   UNL     1      -0.545  12.708  19.689  0.00  0.00    +0.000 C 
ATOM      2  C   UNL     1      -0.370  11.512  18.748  0.00  0.00    +0.000 C 
ATOM      3  C   UNL     1      -0.324  10.186  19.514  0.00  0.00    +0.000 C 
ATOM      4  N   UNL     1       0.763  10.201  20.539  0.00  0.00    +0.000 NA
ATOM      5  C   UNL     1       0.627  11.349  21.492  0.00  0.00    +0.000 C 
ATOM      6  C   UNL     1       0.547  12.681  20.754  0.00  0.00    +0.000 C 
ENDROOT
BRANCH   1   8
ATOM      7  N   UNL     1      -2.953  12.952  19.403  0.00  0.00    +0.000 N 
ATOM      8  C   UNL     1      -1.948  12.714  20.302  0.00  0.00    +0.000 C 
ATOM      9  O   UNL     1      -2.173  12.462  21.480  0.00  0.00    +0.000 OA
ATOM     10  H   UNL     1      -2.729  13.492  18.576  0.00  0.00    +0.000 HD
BRANCH   7  11
ATOM     11  C   UNL     1      -4.352  12.932  19.826  0.00  0.00    +0.000 C 
BRANCH  11  12
ATOM     12  C   UNL     1      -5.288  12.073  18.913  0.00  0.00    +0.000 C 
BRANCH  12  13
ATOM     13  C   UNL     1      -4.522  11.310  17.808  0.00  0.00    +0.000 A 
ATOM     14  C   UNL     1      -4.600  11.728  16.467  0.00  0.00    +0.000 A 
ATOM     15  C   UNL     1      -4.005  10.987  15.442  0.00  0.00    +0.000 A 
ATOM     16  C   UNL     1      -3.280   9.837  15.740  0.00  0.00    +0.000 A 
ATOM     17  C   UNL     1      -3.108   9.457  17.064  0.00  0.00    +0.000 A 
ATOM     18  C   UNL     1      -3.707  10.195  18.088  0.00  0.00    +0.000 A 
ENDBRANCH  12  13
BRANCH  12  20
ATOM     19  C   UNL     1      -7.312  11.902  20.378  0.00  0.00    +0.000 C 
ATOM     20  N   UNL     1      -6.252  11.202  19.656  0.00  0.00    +0.000 NA
ATOM     21  C   UNL     1      -6.840  10.163  18.808  0.00  0.00    +0.000 C 
ENDBRANCH  12  20
ENDBRANCH  11  12
ENDBRANCH   7  11
ENDBRANCH   1   8
BRANCH   4  22
ATOM     22  S   UNL     1       0.888   8.723  21.432  0.00  0.00    +0.000 S 
ATOM     23  O   UNL     1       1.832   8.922  22.512  0.00  0.00    +0.000 OA
ATOM     24  O   UNL     1      -0.454   8.245  21.686  0.00  0.00    +0.000 OA
BRANCH  22  25
ATOM     25  C   UNL     1       1.665   7.593  20.299  0.00  0.00    +0.000 A 
ATOM     26  C   UNL     1       2.184   8.063  19.090  0.00  0.00    +0.000 A 
ATOM     27  C   UNL     1       2.683   7.157  18.157  0.00  0.00    +0.000 A 
ATOM     28  C   UNL     1       2.666   5.787  18.431  0.00  0.00    +0.000 A 
ATOM     29  C   UNL     1       2.147   5.304  19.645  0.00  0.00    +0.000 A 
ATOM     30  C   UNL     1       1.637   6.220  20.578  0.00  0.00    +0.000 A 
BRANCH  29  31
ATOM     31  C   UNL     1       2.126   3.824  19.945  0.00  0.00    +0.000 C 
ATOM     32  F   UNL     1       1.629   3.527  21.179  0.00  0.00    +0.000 F 
ATOM     33  F   UNL     1       1.357   3.131  19.060  0.00  0.00    +0.000 F 
ATOM     34  F   UNL     1       3.362   3.258  19.894  0.00  0.00    +0.000 F 
ENDBRANCH  29  31
ENDBRANCH  22  25
ENDBRANCH   4  22
TORSDOF 8
ENDMDL
MODEL 9
REMARK VINA RESULT:      -7.5      4.555      5.802
REMARK  Name = 
REMARK  10 active torsions:
REMARK  status: ('A' for Active; 'I' for Inactive)
REMARK    1  A    between atoms: C_1  and  N_2
REMARK    2  A    between atoms: N_2  and  C_3
REMARK    3  A    between atoms: N_2  and  C_4
REMARK    4  A    between atoms: C_4  and  C_5
REMARK    5  A    between atoms: C_4  and  C_28
REMARK    6  A    between atoms: C_5  and  N_6
REMARK    7  A    between atoms: C_7  and  C_9
REMARK    8  A    between atoms: N_12  and  S_13
REMARK    9  A    between atoms: S_13  and  C_16
REMARK   10  A    between atoms: C_20  and  C_21
REMARK                            x       y       z     vdW  Elec       q    Type
REMARK                         _______ _______ _______ _____ _____    ______ ____
ROOT
ATOM      1  C   UNL     1       1.085   9.712  18.213  0.00  0.00    +0.000 C 
ATOM      2  C   UNL     1       1.784  11.035  18.542  0.00  0.00    +0.000 C 
ATOM      3  C   UNL     1       1.484  11.498  19.970  0.00  0.00    +0.000 C 
ATOM      4  N   UNL     1       0.011  11.623  20.191  0.00  0.00    +0.000 NA
ATOM      5  C   UNL     1      -0.716  10.347  19.892  0.00  0.00    +0.000 C 
ATOM      6  C   UNL     1      -0.410   9.846  18.485  0.00  0.00    +0.000 C 
ENDROOT
BRANCH   1   8
ATOM      7  N   UNL     1       2.511   7.736  18.246  0.00  0.00    +0.000 N 
ATOM      8  C   UNL     1       1.713   8.557  18.997  0.00  0.00    +0.000 C 
ATOM      9  O   UNL     1       1.577   8.407  20.205  0.00  0.00    +0.000 OA
ATOM     10  H   UNL     1       2.316   7.665  17.255  0.00  0.00    +0.000 HD
BRANCH   7  11
ATOM     11  C   UNL     1       3.228   6.623  18.864  0.00  0.00    +0.000 C 
BRANCH  11  12
ATOM     12  C   UNL     1       3.366   5.358  17.953  0.00  0.00    +0.000 C 
BRANCH  12  13
ATOM     13  C   UNL     1       4.776   5.206  17.339  0.00  0.00    +0.000 A 
ATOM     14  C   UNL     1       4.975   5.376  15.957  0.00  0.00    +0.000 A 
ATOM     15  C   UNL     1       6.221   5.134  15.370  0.00  0.00    +0.000 A 
ATOM     16  C   UNL     1       7.306   4.762  16.158  0.00  0.00    +0.000 A 
ATOM     17  C   UNL     1       7.158   4.682  17.536  0.00  0.00    +0.000 A 
ATOM     18  C   UNL     1       5.911   4.919  18.122  0.00  0.00    +0.000 A 
ENDBRANCH  12  13
BRANCH  12  20
ATOM     19  C   UNL     1       2.782   4.082  20.027  0.00  0.00    +0.000 C 
ATOM     20  N   UNL     1       2.862   4.091  18.568  0.00  0.00    +0.000 NA
ATOM     21  C   UNL     1       1.580   3.663  18.004  0.00  0.00    +0.000 C 
ENDBRANCH  12  20
ENDBRANCH  11  12
ENDBRANCH   7  11
ENDBRANCH   1   8
BRANCH   4  22
ATOM     22  S   UNL     1      -0.404  12.164  21.782  0.00  0.00    +0.000 S 
ATOM     23  O   UNL     1      -0.259  11.049  22.695  0.00  0.00    +0.000 OA
ATOM     24  O   UNL     1       0.279  13.419  22.015  0.00  0.00    +0.000 OA
BRANCH  22  25
ATOM     25  C   UNL     1      -2.148  12.501  21.688  0.00  0.00    +0.000 A 
ATOM     26  C   UNL     1      -2.724  12.865  20.468  0.00  0.00    +0.000 A 
ATOM     27  C   UNL     1      -4.064  13.243  20.426  0.00  0.00    +0.000 A 
ATOM     28  C   UNL     1      -4.827  13.255  21.596  0.00  0.00    +0.000 A 
ATOM     29  C   UNL     1      -4.258  12.889  22.828  0.00  0.00    +0.000 A 
ATOM     30  C   UNL     1      -2.904  12.518  22.868  0.00  0.00    +0.000 A 
BRANCH  29  31
ATOM     31  C   UNL     1      -5.078  12.902  24.096  0.00  0.00    +0.000 C 
ATOM     32  F   UNL     1      -5.315  14.156  24.577  0.00  0.00    +0.000 F 
ATOM     33  F   UNL     1      -6.303  12.335  23.922  0.00  0.00    +0.000 F 
ATOM     34  F   UNL     1      -4.487  12.218  25.112  0.00  0.00    +0.000 F 
ENDBRANCH  29  31
ENDBRANCH  22  25
ENDBRANCH   4  22
TORSDOF 8
ENDMDL
