MODEL 1
REMARK VINA RESULT:      -6.7      0.000      0.000
REMARK  Name = 
REMARK  6 active torsions:
REMARK  status: ('A' for Active; 'I' for Inactive)
REMARK    1  A    between atoms: C_1  and  O_2
REMARK    2  A    between atoms: O_2  and  C_3
REMARK    3  A    between atoms: C_3  and  C_5
REMARK    4  A    between atoms: C_9  and  N_10
REMARK    5  A    between atoms: C_11  and  C_13
REMARK    6  A    between atoms: C_16  and  C_17
REMARK                            x       y       z     vdW  Elec       q    Type
REMARK                         _______ _______ _______ _____ _____    ______ ____
ROOT
ATOM      1  N   UNL     1       2.748   6.426  20.099  0.00  0.00    +0.000 N 
ATOM      2  C   UNL     1       2.239   7.513  19.406  0.00  0.00    +0.000 C 
ATOM      3  O   UNL     1       2.313   7.698  18.193  0.00  0.00    +0.000 OA
ATOM      4  H   UNL     1       2.496   6.286  21.072  0.00  0.00    +0.000 HD
ENDROOT
BRANCH   2   5
ATOM      5  C   UNL     1       1.462   8.514  20.183  0.00  0.00    +0.000 A 
ATOM      6  C   UNL     1       0.786   9.586  19.592  0.00  0.00    +0.000 A 
ATOM      7  C   UNL     1       0.049  10.468  20.396  0.00  0.00    +0.000 A 
ATOM      8  C   UNL     1      -0.014  10.285  21.786  0.00  0.00    +0.000 A 
ATOM      9  C   UNL     1       0.641   9.198  22.369  0.00  0.00    +0.000 A 
ATOM     10  C   UNL     1       1.368   8.316  21.570  0.00  0.00    +0.000 A 
BRANCH   8  11
ATOM     11  C   UNL     1      -0.737  11.207  22.610  0.00  0.00    +0.000 C 
ATOM     12  N   UNL     1      -1.337  11.957  23.266  0.00  0.00    +0.000 NA
ENDBRANCH   8  11
ENDBRANCH   2   5
BRANCH   1  17
ATOM     13  C   UNL     1       2.856   4.191  19.042  0.00  0.00    +0.000 A 
ATOM     14  S   UNL     1       4.018   3.141  18.311  0.00  0.00    +0.000 S 
ATOM     15  C   UNL     1       5.289   4.231  18.572  0.00  0.00    +0.000 A 
ATOM     16  C   UNL     1       4.858   5.365  19.217  0.00  0.00    +0.000 A 
ATOM     17  C   UNL     1       3.447   5.373  19.484  0.00  0.00    +0.000 A 
BRANCH  13  18
ATOM     18  C   UNL     1       1.482   3.717  19.049  0.00  0.00    +0.000 C 
ATOM     19  O   UNL     1       0.888   3.208  18.103  0.00  0.00    +0.000 OA
BRANCH  18  21
ATOM     20  C   UNL     1       1.276   2.936  21.239  0.00  0.00    +0.000 C 
ATOM     21  O   UNL     1       0.901   3.923  20.272  0.00  0.00    +0.000 OA
ENDBRANCH  18  21
ENDBRANCH  13  18
ENDBRANCH   1  17
TORSDOF 5
ENDMDL
MODEL 2
REMARK VINA RESULT:      -6.6      0.192      1.098
REMARK  Name = 
REMARK  6 active torsions:
REMARK  status: ('A' for Active; 'I' for Inactive)
REMARK    1  A    between atoms: C_1  and  O_2
REMARK    2  A    between atoms: O_2  and  C_3
REMARK    3  A    between atoms: C_3  and  C_5
REMARK    4  A    between atoms: C_9  and  N_10
REMARK    5  A    between atoms: C_11  and  C_13
REMARK    6  A    between atoms: C_16  and  C_17
REMARK                            x       y       z     vdW  Elec       q    Type
REMARK                         _______ _______ _______ _____ _____    ______ ____
ROOT
ATOM      1  N   UNL     1       2.648   6.419  20.225  0.00  0.00    +0.000 N 
ATOM      2  C   UNL     1       2.157   7.550  19.590  0.00  0.00    +0.000 C 
ATOM      3  O   UNL     1       2.276   7.821  18.398  0.00  0.00    +0.000 OA
ATOM      4  H   UNL     1       2.360   6.209  21.174  0.00  0.00    +0.000 HD
ENDROOT
BRANCH   2   5
ATOM      5  C   UNL     1       1.341   8.488  20.405  0.00  0.00    +0.000 A 
ATOM      6  C   UNL     1       1.185   8.365  21.789  0.00  0.00    +0.000 A 
ATOM      7  C   UNL     1       0.423   9.314  22.487  0.00  0.00    +0.000 A 
ATOM      8  C   UNL     1      -0.184  10.383  21.809  0.00  0.00    +0.000 A 
ATOM      9  C   UNL     1      -0.003  10.517  20.431  0.00  0.00    +0.000 A 
ATOM     10  C   UNL     1       0.761   9.578  19.736  0.00  0.00    +0.000 A 
BRANCH   8  11
ATOM     11  C   UNL     1      -0.991  11.331  22.518  0.00  0.00    +0.000 C 
ATOM     12  N   UNL     1      -1.650  12.087  23.105  0.00  0.00    +0.000 NA
ENDBRANCH   8  11
ENDBRANCH   2   5
BRANCH   1  17
ATOM     13  C   UNL     1       2.826   4.244  19.059  0.00  0.00    +0.000 A 
ATOM     14  S   UNL     1       4.021   3.262  18.289  0.00  0.00    +0.000 S 
ATOM     15  C   UNL     1       5.260   4.372  18.614  0.00  0.00    +0.000 A 
ATOM     16  C   UNL     1       4.793   5.460  19.310  0.00  0.00    +0.000 A 
ATOM     17  C   UNL     1       3.380   5.417  19.565  0.00  0.00    +0.000 A 
BRANCH  13  18
ATOM     18  C   UNL     1       1.465   3.733  19.031  0.00  0.00    +0.000 C 
ATOM     19  O   UNL     1       0.893   3.252  18.057  0.00  0.00    +0.000 OA
BRANCH  18  21
ATOM     20  C   UNL     1       1.297   2.877  21.196  0.00  0.00    +0.000 C 
ATOM     21  O   UNL     1       0.867   3.868  20.256  0.00  0.00    +0.000 OA
ENDBRANCH  18  21
ENDBRANCH  13  18
ENDBRANCH   1  17
TORSDOF 5
ENDMDL
MODEL 3
REMARK VINA RESULT:      -6.5      2.478      3.325
REMARK  Name = 
REMARK  6 active torsions:
REMARK  status: ('A' for Active; 'I' for Inactive)
REMARK    1  A    between atoms: C_1  and  O_2
REMARK    2  A    between atoms: O_2  and  C_3
REMARK    3  A    between atoms: C_3  and  C_5
REMARK    4  A    between atoms: C_9  and  N_10
REMARK    5  A    between atoms: C_11  and  C_13
REMARK    6  A    between atoms: C_16  and  C_17
REMARK                            x       y       z     vdW  Elec       q    Type
REMARK                         _______ _______ _______ _____ _____    ______ ____
ROOT
ATOM      1  N   UNL     1       4.135   7.105  17.664  0.00  0.00    +0.000 N 
ATOM      2  C   UNL     1       2.856   6.809  18.110  0.00  0.00    +0.000 C 
ATOM      3  O   UNL     1       2.252   5.754  17.931  0.00  0.00    +0.000 OA
ATOM      4  H   UNL     1       4.604   7.939  17.999  0.00  0.00    +0.000 HD
ENDROOT
BRANCH   2   5
ATOM      5  C   UNL     1       2.174   7.827  18.951  0.00  0.00    +0.000 A 
ATOM      6  C   UNL     1       1.708   9.047  18.450  0.00  0.00    +0.000 A 
ATOM      7  C   UNL     1       1.046   9.940  19.306  0.00  0.00    +0.000 A 
ATOM      8  C   UNL     1       0.849   9.621  20.658  0.00  0.00    +0.000 A 
ATOM      9  C   UNL     1       1.292   8.390  21.148  0.00  0.00    +0.000 A 
ATOM     10  C   UNL     1       1.944   7.498  20.296  0.00  0.00    +0.000 A 
BRANCH   8  11
ATOM     11  C   UNL     1       0.205  10.548  21.540  0.00  0.00    +0.000 C 
ATOM     12  N   UNL     1      -0.305  11.313  22.251  0.00  0.00    +0.000 NA
ENDBRANCH   8  11
ENDBRANCH   2   5
BRANCH   1  17
ATOM     13  C   UNL     1       5.616   5.135  17.456  0.00  0.00    +0.000 A 
ATOM     14  S   UNL     1       6.447   4.241  16.232  0.00  0.00    +0.000 S 
ATOM     15  C   UNL     1       5.894   5.262  14.996  0.00  0.00    +0.000 A 
ATOM     16  C   UNL     1       5.110   6.275  15.492  0.00  0.00    +0.000 A 
ATOM     17  C   UNL     1       4.920   6.212  16.914  0.00  0.00    +0.000 A 
BRANCH  13  18
ATOM     18  C   UNL     1       5.734   4.622  18.812  0.00  0.00    +0.000 C 
ATOM     19  O   UNL     1       5.365   3.519  19.201  0.00  0.00    +0.000 OA
BRANCH  18  21
ATOM     20  C   UNL     1       7.703   5.749  19.360  0.00  0.00    +0.000 C 
ATOM     21  O   UNL     1       6.312   5.551  19.636  0.00  0.00    +0.000 OA
ENDBRANCH  18  21
ENDBRANCH  13  18
ENDBRANCH   1  17
TORSDOF 5
ENDMDL
MODEL 4
REMARK VINA RESULT:      -6.4      2.970      4.615
REMARK  Name = 
REMARK  6 active torsions:
REMARK  status: ('A' for Active; 'I' for Inactive)
REMARK    1  A    between atoms: C_1  and  O_2
REMARK    2  A    between atoms: O_2  and  C_3
REMARK    3  A    between atoms: C_3  and  C_5
REMARK    4  A    between atoms: C_9  and  N_10
REMARK    5  A    between atoms: C_11  and  C_13
REMARK    6  A    between atoms: C_16  and  C_17
REMARK                            x       y       z     vdW  Elec       q    Type
REMARK                         _______ _______ _______ _____ _____    ______ ____
ROOT
ATOM      1  N   UNL     1       4.139   6.628  17.211  0.00  0.00    +0.000 N 
ATOM      2  C   UNL     1       3.398   6.449  18.369  0.00  0.00    +0.000 C 
ATOM      3  O   UNL     1       3.476   5.494  19.139  0.00  0.00    +0.000 OA
ATOM      4  H   UNL     1       4.116   7.522  16.732  0.00  0.00    +0.000 HD
ENDROOT
BRANCH   2   5
ATOM      5  C   UNL     1       2.476   7.545  18.765  0.00  0.00    +0.000 A 
ATOM      6  C   UNL     1       1.945   7.673  20.053  0.00  0.00    +0.000 A 
ATOM      7  C   UNL     1       1.107   8.757  20.352  0.00  0.00    +0.000 A 
ATOM      8  C   UNL     1       0.796   9.712  19.372  0.00  0.00    +0.000 A 
ATOM      9  C   UNL     1       1.350   9.596  18.095  0.00  0.00    +0.000 A 
ATOM     10  C   UNL     1       2.190   8.522  17.798  0.00  0.00    +0.000 A 
BRANCH   8  11
ATOM     11  C   UNL     1      -0.089  10.799  19.668  0.00  0.00    +0.000 C 
ATOM     12  N   UNL     1      -0.793  11.690  19.916  0.00  0.00    +0.000 NA
ENDBRANCH   8  11
ENDBRANCH   2   5
BRANCH   1  17
ATOM     13  C   UNL     1       6.459   5.793  17.006  0.00  0.00    +0.000 A 
ATOM     14  S   UNL     1       7.319   4.467  16.307  0.00  0.00    +0.000 S 
ATOM     15  C   UNL     1       5.905   3.777  15.675  0.00  0.00    +0.000 A 
ATOM     16  C   UNL     1       4.799   4.539  15.964  0.00  0.00    +0.000 A 
ATOM     17  C   UNL     1       5.092   5.704  16.751  0.00  0.00    +0.000 A 
BRANCH  13  18
ATOM     18  C   UNL     1       7.258   6.746  17.759  0.00  0.00    +0.000 C 
ATOM     19  O   UNL     1       7.977   6.486  18.719  0.00  0.00    +0.000 OA
BRANCH  18  21
ATOM     20  C   UNL     1       8.037   8.945  17.817  0.00  0.00    +0.000 C 
ATOM     21  O   UNL     1       7.100   8.013  17.266  0.00  0.00    +0.000 OA
ENDBRANCH  18  21
ENDBRANCH  13  18
ENDBRANCH   1  17
TORSDOF 5
ENDMDL
MODEL 5
REMARK VINA RESULT:      -6.3      2.896      4.175
REMARK  Name = 
REMARK  6 active torsions:
REMARK  status: ('A' for Active; 'I' for Inactive)
REMARK    1  A    between atoms: C_1  and  O_2
REMARK    2  A    between atoms: O_2  and  C_3
REMARK    3  A    between atoms: C_3  and  C_5
REMARK    4  A    between atoms: C_9  and  N_10
REMARK    5  A    between atoms: C_11  and  C_13
REMARK    6  A    between atoms: C_16  and  C_17
REMARK                            x       y       z     vdW  Elec       q    Type
REMARK                         _______ _______ _______ _____ _____    ______ ____
ROOT
ATOM      1  N   UNL     1       4.351   6.895  17.188  0.00  0.00    +0.000 N 
ATOM      2  C   UNL     1       3.333   6.513  18.048  0.00  0.00    +0.000 C 
ATOM      3  O   UNL     1       3.112   5.373  18.448  0.00  0.00    +0.000 OA
ATOM      4  H   UNL     1       4.548   7.880  17.045  0.00  0.00    +0.000 HD
ENDROOT
BRANCH   2   5
ATOM      5  C   UNL     1       2.472   7.590  18.603  0.00  0.00    +0.000 A 
ATOM      6  C   UNL     1       2.000   8.664  17.843  0.00  0.00    +0.000 A 
ATOM      7  C   UNL     1       1.164   9.620  18.437  0.00  0.00    +0.000 A 
ATOM      8  C   UNL     1       0.799   9.510  19.788  0.00  0.00    +0.000 A 
ATOM      9  C   UNL     1       1.250   8.420  20.538  0.00  0.00    +0.000 A 
ATOM     10  C   UNL     1       2.076   7.464  19.945  0.00  0.00    +0.000 A 
BRANCH   8  11
ATOM     11  C   UNL     1      -0.025  10.506  20.405  0.00  0.00    +0.000 C 
ATOM     12  N   UNL     1      -0.684  11.328  20.896  0.00  0.00    +0.000 NA
ENDBRANCH   8  11
ENDBRANCH   2   5
BRANCH   1  17
ATOM     13  C   UNL     1       6.413   5.531  17.301  0.00  0.00    +0.000 A 
ATOM     14  S   UNL     1       7.302   4.414  16.327  0.00  0.00    +0.000 S 
ATOM     15  C   UNL     1       6.204   4.535  15.041  0.00  0.00    +0.000 A 
ATOM     16  C   UNL     1       5.189   5.416  15.326  0.00  0.00    +0.000 A 
ATOM     17  C   UNL     1       5.279   5.993  16.637  0.00  0.00    +0.000 A 
BRANCH  13  18
ATOM     18  C   UNL     1       6.942   5.780  18.632  0.00  0.00    +0.000 C 
ATOM     19  O   UNL     1       6.466   5.372  19.687  0.00  0.00    +0.000 OA
BRANCH  18  21
ATOM     20  C   UNL     1       7.837   7.814  17.916  0.00  0.00    +0.000 C 
ATOM     21  O   UNL     1       8.066   6.561  18.572  0.00  0.00    +0.000 OA
ENDBRANCH  18  21
ENDBRANCH  13  18
ENDBRANCH   1  17
TORSDOF 5
ENDMDL
MODEL 6
REMARK VINA RESULT:      -6.3      0.833      1.229
REMARK  Name = 
REMARK  6 active torsions:
REMARK  status: ('A' for Active; 'I' for Inactive)
REMARK    1  A    between atoms: C_1  and  O_2
REMARK    2  A    between atoms: O_2  and  C_3
REMARK    3  A    between atoms: C_3  and  C_5
REMARK    4  A    between atoms: C_9  and  N_10
REMARK    5  A    between atoms: C_11  and  C_13
REMARK    6  A    between atoms: C_16  and  C_17
REMARK                            x       y       z     vdW  Elec       q    Type
REMARK                         _______ _______ _______ _____ _____    ______ ____
ROOT
ATOM      1  N   UNL     1       2.779   6.454  20.283  0.00  0.00    +0.000 N 
ATOM      2  C   UNL     1       2.201   7.440  19.497  0.00  0.00    +0.000 C 
ATOM      3  O   UNL     1       2.222   7.492  18.270  0.00  0.00    +0.000 OA
ATOM      4  H   UNL     1       2.570   6.415  21.275  0.00  0.00    +0.000 HD
ENDROOT
BRANCH   2   5
ATOM      5  C   UNL     1       1.417   8.494  20.192  0.00  0.00    +0.000 A 
ATOM      6  C   UNL     1       0.880   9.607  19.537  0.00  0.00    +0.000 A 
ATOM      7  C   UNL     1       0.124  10.539  20.263  0.00  0.00    +0.000 A 
ATOM      8  C   UNL     1      -0.096  10.366  21.638  0.00  0.00    +0.000 A 
ATOM      9  C   UNL     1       0.419   9.239  22.283  0.00  0.00    +0.000 A 
ATOM     10  C   UNL     1       1.165   8.307  21.561  0.00  0.00    +0.000 A 
BRANCH   8  11
ATOM     11  C   UNL     1      -0.838  11.338  22.386  0.00  0.00    +0.000 C 
ATOM     12  N   UNL     1      -1.424  12.136  22.994  0.00  0.00    +0.000 NA
ENDBRANCH   8  11
ENDBRANCH   2   5
BRANCH   1  17
ATOM     13  C   UNL     1       3.278   4.037  20.118  0.00  0.00    +0.000 A 
ATOM     14  S   UNL     1       4.321   2.969  19.248  0.00  0.00    +0.000 S 
ATOM     15  C   UNL     1       5.052   4.242  18.400  0.00  0.00    +0.000 A 
ATOM     16  C   UNL     1       4.537   5.459  18.776  0.00  0.00    +0.000 A 
ATOM     17  C   UNL     1       3.494   5.365  19.758  0.00  0.00    +0.000 A 
BRANCH  13  18
ATOM     18  C   UNL     1       2.339   3.407  21.033  0.00  0.00    +0.000 C 
ATOM     19  O   UNL     1       2.630   2.713  22.003  0.00  0.00    +0.000 OA
BRANCH  18  21
ATOM     20  C   UNL     1       0.638   2.953  19.500  0.00  0.00    +0.000 C 
ATOM     21  O   UNL     1       1.047   3.676  20.667  0.00  0.00    +0.000 OA
ENDBRANCH  18  21
ENDBRANCH  13  18
ENDBRANCH   1  17
TORSDOF 5
ENDMDL
MODEL 7
REMARK VINA RESULT:      -6.3      2.573      3.468
REMARK  Name = 
REMARK  6 active torsions:
REMARK  status: ('A' for Active; 'I' for Inactive)
REMARK    1  A    between atoms: C_1  and  O_2
REMARK    2  A    between atoms: O_2  and  C_3
REMARK    3  A    between atoms: C_3  and  C_5
REMARK    4  A    between atoms: C_9  and  N_10
REMARK    5  A    between atoms: C_11  and  C_13
REMARK    6  A    between atoms: C_16  and  C_17
REMARK                            x       y       z     vdW  Elec       q    Type
REMARK                         _______ _______ _______ _____ _____    ______ ____
ROOT
ATOM      1  N   UNL     1       4.236   7.091  17.530  0.00  0.00    +0.000 N 
ATOM      2  C   UNL     1       2.978   6.722  17.982  0.00  0.00    +0.000 C 
ATOM      3  O   UNL     1       2.460   5.614  17.861  0.00  0.00    +0.000 OA
ATOM      4  H   UNL     1       4.635   7.978  17.819  0.00  0.00    +0.000 HD
ENDROOT
BRANCH   2   5
ATOM      5  C   UNL     1       2.208   7.732  18.754  0.00  0.00    +0.000 A 
ATOM      6  C   UNL     1       1.925   7.603  20.117  0.00  0.00    +0.000 A 
ATOM      7  C   UNL     1       1.219   8.619  20.778  0.00  0.00    +0.000 A 
ATOM      8  C   UNL     1       0.793   9.762  20.083  0.00  0.00    +0.000 A 
ATOM      9  C   UNL     1       1.102   9.900  18.728  0.00  0.00    +0.000 A 
ATOM     10  C   UNL     1       1.810   8.893  18.071  0.00  0.00    +0.000 A 
BRANCH   8  11
ATOM     11  C   UNL     1       0.041  10.782  20.750  0.00  0.00    +0.000 C 
ATOM     12  N   UNL     1      -0.585  11.604  21.283  0.00  0.00    +0.000 NA
ENDBRANCH   8  11
ENDBRANCH   2   5
BRANCH   1  17
ATOM     13  C   UNL     1       5.928   5.287  17.460  0.00  0.00    +0.000 A 
ATOM     14  S   UNL     1       6.823   4.372  16.299  0.00  0.00    +0.000 S 
ATOM     15  C   UNL     1       6.123   5.193  14.991  0.00  0.00    +0.000 A 
ATOM     16  C   UNL     1       5.241   6.157  15.415  0.00  0.00    +0.000 A 
ATOM     17  C   UNL     1       5.098   6.219  16.842  0.00  0.00    +0.000 A 
BRANCH  13  18
ATOM     18  C   UNL     1       6.141   4.932  18.854  0.00  0.00    +0.000 C 
ATOM     19  O   UNL     1       6.541   5.683  19.738  0.00  0.00    +0.000 OA
BRANCH  18  21
ATOM     20  C   UNL     1       4.459   3.394  19.361  0.00  0.00    +0.000 C 
ATOM     21  O   UNL     1       5.845   3.613  19.072  0.00  0.00    +0.000 OA
ENDBRANCH  18  21
ENDBRANCH  13  18
ENDBRANCH   1  17
TORSDOF 5
ENDMDL
MODEL 8
REMARK VINA RESULT:      -6.2      1.217      1.220
REMARK  Name = 
REMARK  6 active torsions:
REMARK  status: ('A' for Active; 'I' for Inactive)
REMARK    1  A    between atoms: C_1  and  O_2
REMARK    2  A    between atoms: O_2  and  C_3
REMARK    3  A    between atoms: C_3  and  C_5
REMARK    4  A    between atoms: C_9  and  N_10
REMARK    5  A    between atoms: C_11  and  C_13
REMARK    6  A    between atoms: C_16  and  C_17
REMARK                            x       y       z     vdW  Elec       q    Type
REMARK                         _______ _______ _______ _____ _____    ______ ____
ROOT
ATOM      1  N   UNL     1       2.787   7.001  18.936  0.00  0.00    +0.000 N 
ATOM      2  C   UNL     1       2.224   8.196  18.516  0.00  0.00    +0.000 C 
ATOM      3  O   UNL     1       2.269   8.659  17.378  0.00  0.00    +0.000 OA
ATOM      4  H   UNL     1       2.558   6.631  19.852  0.00  0.00    +0.000 HD
ENDROOT
BRANCH   2   5
ATOM      5  C   UNL     1       1.422   8.958  19.509  0.00  0.00    +0.000 A 
ATOM      6  C   UNL     1       0.677  10.096  19.183  0.00  0.00    +0.000 A 
ATOM      7  C   UNL     1      -0.078  10.737  20.175  0.00  0.00    +0.000 A 
ATOM      8  C   UNL     1      -0.091  10.250  21.491  0.00  0.00    +0.000 A 
ATOM      9  C   UNL     1       0.634   9.098  21.807  0.00  0.00    +0.000 A 
ATOM     10  C   UNL     1       1.379   8.454  20.819  0.00  0.00    +0.000 A 
BRANCH   8  11
ATOM     11  C   UNL     1      -0.833  10.927  22.512  0.00  0.00    +0.000 C 
ATOM     12  N   UNL     1      -1.432  11.463  23.352  0.00  0.00    +0.000 NA
ENDBRANCH   8  11
ENDBRANCH   2   5
BRANCH   1  17
ATOM     13  C   UNL     1       3.159   4.832  17.804  0.00  0.00    +0.000 A 
ATOM     14  S   UNL     1       4.272   4.101  16.703  0.00  0.00    +0.000 S 
ATOM     15  C   UNL     1       5.217   5.505  16.598  0.00  0.00    +0.000 A 
ATOM     16  C   UNL     1       4.719   6.508  17.393  0.00  0.00    +0.000 A 
ATOM     17  C   UNL     1       3.516   6.148  18.089  0.00  0.00    +0.000 A 
BRANCH  13  18
ATOM     18  C   UNL     1       2.038   4.006  18.221  0.00  0.00    +0.000 C 
ATOM     19  O   UNL     1       1.538   3.088  17.578  0.00  0.00    +0.000 OA
BRANCH  18  21
ATOM     20  C   UNL     1       1.098   3.293  20.236  0.00  0.00    +0.000 C 
ATOM     21  O   UNL     1       1.578   4.392  19.452  0.00  0.00    +0.000 OA
ENDBRANCH  18  21
ENDBRANCH  13  18
ENDBRANCH   1  17
TORSDOF 5
ENDMDL
MODEL 9
REMARK VINA RESULT:      -6.2      1.665      2.106
REMARK  Name = 
REMARK  6 active torsions:
REMARK  status: ('A' for Active; 'I' for Inactive)
REMARK    1  A    between atoms: C_1  and  O_2
REMARK    2  A    between atoms: O_2  and  C_3
REMARK    3  A    between atoms: C_3  and  C_5
REMARK    4  A    between atoms: C_9  and  N_10
REMARK    5  A    between atoms: C_11  and  C_13
REMARK    6  A    between atoms: C_16  and  C_17
REMARK                            x       y       z     vdW  Elec       q    Type
REMARK                         _______ _______ _______ _____ _____    ______ ____
ROOT
ATOM      1  N   UNL     1       3.297   6.865  18.594  0.00  0.00    +0.000 N 
ATOM      2  C   UNL     1       2.500   7.960  18.299  0.00  0.00    +0.000 C 
ATOM      3  O   UNL     1       2.329   8.454  17.187  0.00  0.00    +0.000 OA
ATOM      4  H   UNL     1       3.246   6.437  19.512  0.00  0.00    +0.000 HD
ENDROOT
BRANCH   2   5
ATOM      5  C   UNL     1       1.714   8.551  19.414  0.00  0.00    +0.000 A 
ATOM      6  C   UNL     1       1.613   7.961  20.678  0.00  0.00    +0.000 A 
ATOM      7  C   UNL     1       0.876   8.602  21.685  0.00  0.00    +0.000 A 
ATOM      8  C   UNL     1       0.239   9.827  21.435  0.00  0.00    +0.000 A 
ATOM      9  C   UNL     1       0.365  10.426  20.179  0.00  0.00    +0.000 A 
ATOM     10  C   UNL     1       1.103   9.794  19.179  0.00  0.00    +0.000 A 
BRANCH   8  11
ATOM     11  C   UNL     1      -0.543  10.463  22.453  0.00  0.00    +0.000 C 
ATOM     12  N   UNL     1      -1.192  10.980  23.267  0.00  0.00    +0.000 NA
ENDBRANCH   8  11
ENDBRANCH   2   5
BRANCH   1  17
ATOM     13  C   UNL     1       3.846   4.831  17.296  0.00  0.00    +0.000 A 
ATOM     14  S   UNL     1       4.929   4.323  16.049  0.00  0.00    +0.000 S 
ATOM     15  C   UNL     1       5.654   5.852  15.944  0.00  0.00    +0.000 A 
ATOM     16  C   UNL     1       5.108   6.733  16.845  0.00  0.00    +0.000 A 
ATOM     17  C   UNL     1       4.045   6.169  17.629  0.00  0.00    +0.000 A 
BRANCH  13  18
ATOM     18  C   UNL     1       2.899   3.832  17.765  0.00  0.00    +0.000 C 
ATOM     19  O   UNL     1       2.152   3.158  17.063  0.00  0.00    +0.000 OA
BRANCH  18  21
ATOM     20  C   UNL     1       4.044   2.979  19.612  0.00  0.00    +0.000 C 
ATOM     21  O   UNL     1       2.928   3.737  19.132  0.00  0.00    +0.000 OA
ENDBRANCH  18  21
ENDBRANCH  13  18
ENDBRANCH   1  17
TORSDOF 5
ENDMDL
