MODEL 1
REMARK VINA RESULT:      -6.6      0.000      0.000
REMARK  Name = 
REMARK  4 active torsions:
REMARK  status: ('A' for Active; 'I' for Inactive)
REMARK    1  A    between atoms: C_1  and  C_2
REMARK    2  A    between atoms: C_2  and  C_3
REMARK    3  A    between atoms: C_3  and  N_4
REMARK    4  A    between atoms: C_5  and  C_6
REMARK                            x       y       z     vdW  Elec       q    Type
REMARK                         _______ _______ _______ _____ _____    ______ ____
ROOT
ATOM      1  N   UNL     1       3.745   5.048  18.253  0.00  0.00    +0.000 N 
ATOM      2  C   UNL     1       4.249   4.147  17.334  0.00  0.00    +0.000 A 
ATOM      3  N   UNL     1       3.669   2.968  17.484  0.00  0.00    +0.000 NA
ATOM      4  C   UNL     1       2.749   3.113  18.489  0.00  0.00    +0.000 A 
ATOM      5  C   UNL     1       1.846   2.182  19.023  0.00  0.00    +0.000 A 
ATOM      6  C   UNL     1       1.001   2.580  20.069  0.00  0.00    +0.000 A 
ATOM      7  C   UNL     1       1.060   3.876  20.579  0.00  0.00    +0.000 A 
ATOM      8  C   UNL     1       1.954   4.817  20.058  0.00  0.00    +0.000 A 
ATOM      9  C   UNL     1       2.780   4.403  19.004  0.00  0.00    +0.000 A 
ENDROOT
BRANCH   2  10
ATOM     10  C   UNL     1       5.292   4.357  16.355  0.00  0.00    +0.000 A 
ATOM     11  C   UNL     1       5.108   4.385  14.982  0.00  0.00    +0.000 A 
ATOM     12  C   UNL     1       6.322   4.580  14.260  0.00  0.00    +0.000 A 
ATOM     13  C   UNL     1       7.397   4.739  15.102  0.00  0.00    +0.000 A 
ATOM     14  S   UNL     1       6.927   4.700  16.739  0.00  0.00    +0.000 S 
ENDBRANCH   2  10
BRANCH   1  15
ATOM     15  C   UNL     1       4.143   6.426  18.476  0.00  0.00    +0.000 C 
BRANCH  15  17
ATOM     16  C   UNL     1       2.293   8.101  18.110  0.00  0.00    +0.000 C 
ATOM     17  C   UNL     1       3.473   7.378  17.485  0.00  0.00    +0.000 C 
ENDBRANCH  15  17
ENDBRANCH   1  15
TORSDOF 3
ENDMDL
MODEL 2
REMARK VINA RESULT:      -6.5      1.809      3.226
REMARK  Name = 
REMARK  4 active torsions:
REMARK  status: ('A' for Active; 'I' for Inactive)
REMARK    1  A    between atoms: C_1  and  C_2
REMARK    2  A    between atoms: C_2  and  C_3
REMARK    3  A    between atoms: C_3  and  N_4
REMARK    4  A    between atoms: C_5  and  C_6
REMARK                            x       y       z     vdW  Elec       q    Type
REMARK                         _______ _______ _______ _____ _____    ______ ____
ROOT
ATOM      1  N   UNL     1       4.378   4.030  17.761  0.00  0.00    +0.000 N 
ATOM      2  C   UNL     1       4.774   5.125  18.506  0.00  0.00    +0.000 A 
ATOM      3  N   UNL     1       3.863   5.406  19.424  0.00  0.00    +0.000 NA
ATOM      4  C   UNL     1       2.881   4.460  19.299  0.00  0.00    +0.000 A 
ATOM      5  C   UNL     1       1.705   4.279  20.044  0.00  0.00    +0.000 A 
ATOM      6  C   UNL     1       0.846   3.223  19.709  0.00  0.00    +0.000 A 
ATOM      7  C   UNL     1       1.145   2.370  18.648  0.00  0.00    +0.000 A 
ATOM      8  C   UNL     1       2.312   2.535  17.895  0.00  0.00    +0.000 A 
ATOM      9  C   UNL     1       3.165   3.588  18.254  0.00  0.00    +0.000 A 
ENDROOT
BRANCH   2  10
ATOM     10  C   UNL     1       5.959   5.936  18.344  0.00  0.00    +0.000 A 
ATOM     11  C   UNL     1       6.081   7.013  17.481  0.00  0.00    +0.000 A 
ATOM     12  C   UNL     1       7.377   7.608  17.509  0.00  0.00    +0.000 A 
ATOM     13  C   UNL     1       8.199   6.995  18.426  0.00  0.00    +0.000 A 
ATOM     14  S   UNL     1       7.392   5.754  19.268  0.00  0.00    +0.000 S 
ENDBRANCH   2  10
BRANCH   1  15
ATOM     15  C   UNL     1       5.045   3.427  16.621  0.00  0.00    +0.000 C 
BRANCH  15  17
ATOM     16  C   UNL     1       6.371   4.445  14.733  0.00  0.00    +0.000 C 
ATOM     17  C   UNL     1       5.008   4.336  15.393  0.00  0.00    +0.000 C 
ENDBRANCH  15  17
ENDBRANCH   1  15
TORSDOF 3
ENDMDL
MODEL 3
REMARK VINA RESULT:      -6.5      2.012      2.310
REMARK  Name = 
REMARK  4 active torsions:
REMARK  status: ('A' for Active; 'I' for Inactive)
REMARK    1  A    between atoms: C_1  and  C_2
REMARK    2  A    between atoms: C_2  and  C_3
REMARK    3  A    between atoms: C_3  and  N_4
REMARK    4  A    between atoms: C_5  and  C_6
REMARK                            x       y       z     vdW  Elec       q    Type
REMARK                         _______ _______ _______ _____ _____    ______ ____
ROOT
ATOM      1  N   UNL     1       3.427   5.369  18.969  0.00  0.00    +0.000 N 
ATOM      2  C   UNL     1       4.679   4.943  18.568  0.00  0.00    +0.000 A 
ATOM      3  N   UNL     1       4.693   3.626  18.440  0.00  0.00    +0.000 NA
ATOM      4  C   UNL     1       3.424   3.195  18.723  0.00  0.00    +0.000 A 
ATOM      5  C   UNL     1       2.889   1.897  18.705  0.00  0.00    +0.000 A 
ATOM      6  C   UNL     1       1.543   1.714  19.048  0.00  0.00    +0.000 A 
ATOM      7  C   UNL     1       0.745   2.798  19.409  0.00  0.00    +0.000 A 
ATOM      8  C   UNL     1       1.261   4.099  19.432  0.00  0.00    +0.000 A 
ATOM      9  C   UNL     1       2.606   4.262  19.074  0.00  0.00    +0.000 A 
ENDROOT
BRANCH   2  10
ATOM     10  C   UNL     1       5.867   5.736  18.352  0.00  0.00    +0.000 A 
ATOM     11  C   UNL     1       7.023   5.673  19.115  0.00  0.00    +0.000 A 
ATOM     12  C   UNL     1       8.024   6.594  18.689  0.00  0.00    +0.000 A 
ATOM     13  C   UNL     1       7.623   7.309  17.584  0.00  0.00    +0.000 A 
ATOM     14  S   UNL     1       6.078   6.831  17.049  0.00  0.00    +0.000 S 
ENDBRANCH   2  10
BRANCH   1  15
ATOM     15  C   UNL     1       2.992   6.719  19.285  0.00  0.00    +0.000 C 
BRANCH  15  17
ATOM     16  C   UNL     1       1.842   8.778  18.392  0.00  0.00    +0.000 C 
ATOM     17  C   UNL     1       2.537   7.476  18.037  0.00  0.00    +0.000 C 
ENDBRANCH  15  17
ENDBRANCH   1  15
TORSDOF 3
ENDMDL
MODEL 4
REMARK VINA RESULT:      -6.5      1.901      3.332
REMARK  Name = 
REMARK  4 active torsions:
REMARK  status: ('A' for Active; 'I' for Inactive)
REMARK    1  A    between atoms: C_1  and  C_2
REMARK    2  A    between atoms: C_2  and  C_3
REMARK    3  A    between atoms: C_3  and  N_4
REMARK    4  A    between atoms: C_5  and  C_6
REMARK                            x       y       z     vdW  Elec       q    Type
REMARK                         _______ _______ _______ _____ _____    ______ ____
ROOT
ATOM      1  N   UNL     1       4.264   3.991  17.946  0.00  0.00    +0.000 N 
ATOM      2  C   UNL     1       4.705   5.094  18.654  0.00  0.00    +0.000 A 
ATOM      3  N   UNL     1       3.811   5.439  19.566  0.00  0.00    +0.000 NA
ATOM      4  C   UNL     1       2.794   4.526  19.476  0.00  0.00    +0.000 A 
ATOM      5  C   UNL     1       1.616   4.414  20.231  0.00  0.00    +0.000 A 
ATOM      6  C   UNL     1       0.716   3.381  19.935  0.00  0.00    +0.000 A 
ATOM      7  C   UNL     1       0.977   2.483  18.901  0.00  0.00    +0.000 A 
ATOM      8  C   UNL     1       2.145   2.579  18.138  0.00  0.00    +0.000 A 
ATOM      9  C   UNL     1       3.039   3.611  18.459  0.00  0.00    +0.000 A 
ENDROOT
BRANCH   2  10
ATOM     10  C   UNL     1       5.919   5.854  18.460  0.00  0.00    +0.000 A 
ATOM     11  C   UNL     1       7.115   5.638  19.125  0.00  0.00    +0.000 A 
ATOM     12  C   UNL     1       8.136   6.562  18.754  0.00  0.00    +0.000 A 
ATOM     13  C   UNL     1       7.706   7.434  17.782  0.00  0.00    +0.000 A 
ATOM     14  S   UNL     1       6.106   7.102  17.299  0.00  0.00    +0.000 S 
ENDBRANCH   2  10
BRANCH   1  15
ATOM     15  C   UNL     1       4.902   3.326  16.824  0.00  0.00    +0.000 C 
BRANCH  15  17
ATOM     16  C   UNL     1       6.275   4.146  14.874  0.00  0.00    +0.000 C 
ATOM     17  C   UNL     1       4.932   4.212  15.579  0.00  0.00    +0.000 C 
ENDBRANCH  15  17
ENDBRANCH   1  15
TORSDOF 3
ENDMDL
MODEL 5
REMARK VINA RESULT:      -6.5      2.486      5.339
REMARK  Name = 
REMARK  4 active torsions:
REMARK  status: ('A' for Active; 'I' for Inactive)
REMARK    1  A    between atoms: C_1  and  C_2
REMARK    2  A    between atoms: C_2  and  C_3
REMARK    3  A    between atoms: C_3  and  N_4
REMARK    4  A    between atoms: C_5  and  C_6
REMARK                            x       y       z     vdW  Elec       q    Type
REMARK                         _______ _______ _______ _____ _____    ______ ____
ROOT
ATOM      1  N   UNL     1       4.144   5.749  18.387  0.00  0.00    +0.000 N 
ATOM      2  C   UNL     1       4.185   4.679  19.261  0.00  0.00    +0.000 A 
ATOM      3  N   UNL     1       5.435   4.427  19.616  0.00  0.00    +0.000 NA
ATOM      4  C   UNL     1       6.212   5.369  18.996  0.00  0.00    +0.000 A 
ATOM      5  C   UNL     1       7.599   5.573  19.058  0.00  0.00    +0.000 A 
ATOM      6  C   UNL     1       8.164   6.618  18.314  0.00  0.00    +0.000 A 
ATOM      7  C   UNL     1       7.367   7.437  17.516  0.00  0.00    +0.000 A 
ATOM      8  C   UNL     1       5.983   7.249  17.442  0.00  0.00    +0.000 A 
ATOM      9  C   UNL     1       5.436   6.207  18.205  0.00  0.00    +0.000 A 
ENDROOT
BRANCH   2  10
ATOM     10  C   UNL     1       3.088   3.863  19.727  0.00  0.00    +0.000 A 
ATOM     11  C   UNL     1       2.380   4.067  20.901  0.00  0.00    +0.000 A 
ATOM     12  C   UNL     1       1.368   3.086  21.121  0.00  0.00    +0.000 A 
ATOM     13  C   UNL     1       1.301   2.181  20.087  0.00  0.00    +0.000 A 
ATOM     14  S   UNL     1       2.415   2.550  18.852  0.00  0.00    +0.000 S 
ENDBRANCH   2  10
BRANCH   1  15
ATOM     15  C   UNL     1       2.992   6.317  17.710  0.00  0.00    +0.000 C 
BRANCH  15  17
ATOM     16  C   UNL     1       2.186   8.706  17.729  0.00  0.00    +0.000 C 
ATOM     17  C   UNL     1       2.340   7.428  18.533  0.00  0.00    +0.000 C 
ENDBRANCH  15  17
ENDBRANCH   1  15
TORSDOF 3
ENDMDL
MODEL 6
REMARK VINA RESULT:      -6.4      1.966      2.180
REMARK  Name = 
REMARK  4 active torsions:
REMARK  status: ('A' for Active; 'I' for Inactive)
REMARK    1  A    between atoms: C_1  and  C_2
REMARK    2  A    between atoms: C_2  and  C_3
REMARK    3  A    between atoms: C_3  and  N_4
REMARK    4  A    between atoms: C_5  and  C_6
REMARK                            x       y       z     vdW  Elec       q    Type
REMARK                         _______ _______ _______ _____ _____    ______ ____
ROOT
ATOM      1  N   UNL     1       3.429   5.356  18.796  0.00  0.00    +0.000 N 
ATOM      2  C   UNL     1       4.708   4.974  18.437  0.00  0.00    +0.000 A 
ATOM      3  N   UNL     1       4.771   3.659  18.298  0.00  0.00    +0.000 NA
ATOM      4  C   UNL     1       3.508   3.184  18.532  0.00  0.00    +0.000 A 
ATOM      5  C   UNL     1       3.017   1.870  18.485  0.00  0.00    +0.000 A 
ATOM      6  C   UNL     1       1.666   1.639  18.778  0.00  0.00    +0.000 A 
ATOM      7  C   UNL     1       0.821   2.694  19.120  0.00  0.00    +0.000 A 
ATOM      8  C   UNL     1       1.292   4.010  19.171  0.00  0.00    +0.000 A 
ATOM      9  C   UNL     1       2.643   4.221  18.862  0.00  0.00    +0.000 A 
ENDROOT
BRANCH   2  10
ATOM     10  C   UNL     1       5.876   5.808  18.269  0.00  0.00    +0.000 A 
ATOM     11  C   UNL     1       6.008   6.826  17.339  0.00  0.00    +0.000 A 
ATOM     12  C   UNL     1       7.285   7.460  17.381  0.00  0.00    +0.000 A 
ATOM     13  C   UNL     1       8.081   6.938  18.373  0.00  0.00    +0.000 A 
ATOM     14  S   UNL     1       7.271   5.733  19.264  0.00  0.00    +0.000 S 
ENDBRANCH   2  10
BRANCH   1  15
ATOM     15  C   UNL     1       2.939   6.687  19.106  0.00  0.00    +0.000 C 
BRANCH  15  17
ATOM     16  C   UNL     1       2.282   8.874  18.037  0.00  0.00    +0.000 C 
ATOM     17  C   UNL     1       2.320   7.364  17.884  0.00  0.00    +0.000 C 
ENDBRANCH  15  17
ENDBRANCH   1  15
TORSDOF 3
ENDMDL
MODEL 7
REMARK VINA RESULT:      -6.4      1.744      5.064
REMARK  Name = 
REMARK  4 active torsions:
REMARK  status: ('A' for Active; 'I' for Inactive)
REMARK    1  A    between atoms: C_1  and  C_2
REMARK    2  A    between atoms: C_2  and  C_3
REMARK    3  A    between atoms: C_3  and  N_4
REMARK    4  A    between atoms: C_5  and  C_6
REMARK                            x       y       z     vdW  Elec       q    Type
REMARK                         _______ _______ _______ _____ _____    ______ ____
ROOT
ATOM      1  N   UNL     1       3.948   5.283  18.000  0.00  0.00    +0.000 N 
ATOM      2  C   UNL     1       3.593   3.988  18.327  0.00  0.00    +0.000 A 
ATOM      3  N   UNL     1       4.114   3.138  17.456  0.00  0.00    +0.000 NA
ATOM      4  C   UNL     1       4.848   3.886  16.575  0.00  0.00    +0.000 A 
ATOM      5  C   UNL     1       5.627   3.480  15.480  0.00  0.00    +0.000 A 
ATOM      6  C   UNL     1       6.285   4.455  14.718  0.00  0.00    +0.000 A 
ATOM      7  C   UNL     1       6.165   5.807  15.033  0.00  0.00    +0.000 A 
ATOM      8  C   UNL     1       5.395   6.231  16.121  0.00  0.00    +0.000 A 
ATOM      9  C   UNL     1       4.755   5.240  16.878  0.00  0.00    +0.000 A 
ENDROOT
BRANCH   2  10
ATOM     10  C   UNL     1       2.741   3.539  19.404  0.00  0.00    +0.000 A 
ATOM     11  C   UNL     1       1.359   3.648  19.431  0.00  0.00    +0.000 A 
ATOM     12  C   UNL     1       0.783   3.147  20.636  0.00  0.00    +0.000 A 
ATOM     13  C   UNL     1       1.737   2.629  21.481  0.00  0.00    +0.000 A 
ATOM     14  S   UNL     1       3.296   2.709  20.798  0.00  0.00    +0.000 S 
ENDBRANCH   2  10
BRANCH   1  15
ATOM     15  C   UNL     1       3.546   6.519  18.648  0.00  0.00    +0.000 C 
BRANCH  15  17
ATOM     16  C   UNL     1       2.335   8.544  17.758  0.00  0.00    +0.000 C 
ATOM     17  C   UNL     1       2.238   7.062  18.074  0.00  0.00    +0.000 C 
ENDBRANCH  15  17
ENDBRANCH   1  15
TORSDOF 3
ENDMDL
MODEL 8
REMARK VINA RESULT:      -6.4      1.493      1.962
REMARK  Name = 
REMARK  4 active torsions:
REMARK  status: ('A' for Active; 'I' for Inactive)
REMARK    1  A    between atoms: C_1  and  C_2
REMARK    2  A    between atoms: C_2  and  C_3
REMARK    3  A    between atoms: C_3  and  N_4
REMARK    4  A    between atoms: C_5  and  C_6
REMARK                            x       y       z     vdW  Elec       q    Type
REMARK                         _______ _______ _______ _____ _____    ______ ____
ROOT
ATOM      1  N   UNL     1       4.085   4.782  18.581  0.00  0.00    +0.000 N 
ATOM      2  C   UNL     1       4.073   4.272  17.296  0.00  0.00    +0.000 A 
ATOM      3  N   UNL     1       3.045   3.454  17.139  0.00  0.00    +0.000 NA
ATOM      4  C   UNL     1       2.358   3.463  18.324  0.00  0.00    +0.000 A 
ATOM      5  C   UNL     1       1.177   2.795  18.684  0.00  0.00    +0.000 A 
ATOM      6  C   UNL     1       0.672   2.964  19.981  0.00  0.00    +0.000 A 
ATOM      7  C   UNL     1       1.332   3.773  20.904  0.00  0.00    +0.000 A 
ATOM      8  C   UNL     1       2.510   4.446  20.562  0.00  0.00    +0.000 A 
ATOM      9  C   UNL     1       2.992   4.275  19.257  0.00  0.00    +0.000 A 
ENDROOT
BRANCH   2  10
ATOM     10  C   UNL     1       5.028   4.498  16.235  0.00  0.00    +0.000 A 
ATOM     11  C   UNL     1       5.752   3.511  15.585  0.00  0.00    +0.000 A 
ATOM     12  C   UNL     1       6.643   4.029  14.600  0.00  0.00    +0.000 A 
ATOM     13  C   UNL     1       6.546   5.397  14.493  0.00  0.00    +0.000 A 
ATOM     14  S   UNL     1       5.358   6.029  15.538  0.00  0.00    +0.000 S 
ENDBRANCH   2  10
BRANCH   1  15
ATOM     15  C   UNL     1       5.065   5.662  19.192  0.00  0.00    +0.000 C 
BRANCH  15  17
ATOM     16  C   UNL     1       7.527   5.859  18.683  0.00  0.00    +0.000 C 
ATOM     17  C   UNL     1       6.438   4.999  19.298  0.00  0.00    +0.000 C 
ENDBRANCH  15  17
ENDBRANCH   1  15
TORSDOF 3
ENDMDL
MODEL 9
REMARK VINA RESULT:      -6.4      1.196      1.200
REMARK  Name = 
REMARK  4 active torsions:
REMARK  status: ('A' for Active; 'I' for Inactive)
REMARK    1  A    between atoms: C_1  and  C_2
REMARK    2  A    between atoms: C_2  and  C_3
REMARK    3  A    between atoms: C_3  and  N_4
REMARK    4  A    between atoms: C_5  and  C_6
REMARK                            x       y       z     vdW  Elec       q    Type
REMARK                         _______ _______ _______ _____ _____    ______ ____
ROOT
ATOM      1  N   UNL     1       3.228   4.730  18.382  0.00  0.00    +0.000 N 
ATOM      2  C   UNL     1       4.417   4.092  18.083  0.00  0.00    +0.000 A 
ATOM      3  N   UNL     1       4.664   3.144  18.972  0.00  0.00    +0.000 NA
ATOM      4  C   UNL     1       3.603   3.140  19.838  0.00  0.00    +0.000 A 
ATOM      5  C   UNL     1       3.346   2.314  20.944  0.00  0.00    +0.000 A 
ATOM      6  C   UNL     1       2.175   2.518  21.686  0.00  0.00    +0.000 A 
ATOM      7  C   UNL     1       1.281   3.530  21.342  0.00  0.00    +0.000 A 
ATOM      8  C   UNL     1       1.519   4.363  20.243  0.00  0.00    +0.000 A 
ATOM      9  C   UNL     1       2.689   4.133  19.506  0.00  0.00    +0.000 A 
ENDROOT
BRANCH   2  10
ATOM     10  C   UNL     1       5.345   4.384  17.014  0.00  0.00    +0.000 A 
ATOM     11  C   UNL     1       5.069   4.273  15.660  0.00  0.00    +0.000 A 
ATOM     12  C   UNL     1       6.185   4.598  14.834  0.00  0.00    +0.000 A 
ATOM     13  C   UNL     1       7.273   4.991  15.577  0.00  0.00    +0.000 A 
ATOM     14  S   UNL     1       6.925   5.010  17.245  0.00  0.00    +0.000 S 
ENDBRANCH   2  10
BRANCH   1  15
ATOM     15  C   UNL     1       2.617   5.861  17.706  0.00  0.00    +0.000 C 
BRANCH  15  17
ATOM     16  C   UNL     1       2.165   8.338  17.846  0.00  0.00    +0.000 C 
ATOM     17  C   UNL     1       3.031   7.191  18.335  0.00  0.00    +0.000 C 
ENDBRANCH  15  17
ENDBRANCH   1  15
TORSDOF 3
ENDMDL
