MODEL 1
REMARK VINA RESULT:      -7.1      0.000      0.000
REMARK  Name = 
REMARK  7 active torsions:
REMARK  status: ('A' for Active; 'I' for Inactive)
REMARK    1  A    between atoms: C_1  and  N_2
REMARK    2  A    between atoms: N_7  and  C_8
REMARK    3  A    between atoms: C_8  and  C_9
REMARK    4  A    between atoms: C_14  and  C_15
REMARK    5  A    between atoms: C_15  and  C_16
REMARK    6  A    between atoms: C_15  and  C_17
REMARK    7  A    between atoms: C_15  and  C_18
REMARK                            x       y       z     vdW  Elec       q    Type
REMARK                         _______ _______ _______ _____ _____    ______ ____
ROOT
ATOM      1  C   UNL     1       4.265   2.164  19.582  0.00  0.00    +0.000 C 
ATOM      2  N   UNL     1       3.184   3.071  19.888  0.00  0.00    +0.000 N 
ATOM      3  C   UNL     1       2.871   4.187  19.056  0.00  0.00    +0.000 C 
ATOM      4  N   UNL     1       2.171   5.100  19.913  0.00  0.00    +0.000 N 
ATOM      5  C   UNL     1       2.223   6.437  19.631  0.00  0.00    +0.000 C 
ATOM      6  O   UNL     1       2.737   6.867  18.602  0.00  0.00    +0.000 OA
ATOM      7  N   UNL     1       1.710   7.267  20.593  0.00  0.00    +0.000 N 
ATOM      8  C   UNL     1       1.785   4.462  21.168  0.00  0.00    +0.000 C 
ATOM      9  C   UNL     1       2.611   3.187  21.138  0.00  0.00    +0.000 C 
ATOM     10  O   UNL     1       2.729   2.394  22.062  0.00  0.00    +0.000 OA
ATOM     11  H   UNL     1       0.907   6.917  21.094  0.00  0.00    +0.000 HD
ENDROOT
BRANCH   7  12
ATOM     12  C   UNL     1       1.790   8.709  20.402  0.00  0.00    +0.000 C 
BRANCH  12  13
ATOM     13  C   UNL     1       0.776   9.499  21.200  0.00  0.00    +0.000 A 
ATOM     14  C   UNL     1       0.729   9.243  22.583  0.00  0.00    +0.000 A 
ATOM     15  N   UNL     1      -0.054   9.875  23.481  0.00  0.00    +0.000 NA
ATOM     16  C   UNL     1      -0.830  10.849  22.994  0.00  0.00    +0.000 A 
ATOM     17  C   UNL     1      -0.849  11.217  21.656  0.00  0.00    +0.000 A 
ATOM     18  C   UNL     1      -0.029  10.565  20.703  0.00  0.00    +0.000 A 
BRANCH  18  19
ATOM     19  C   UNL     1      -0.017  11.103  19.243  0.00  0.00    +0.000 C 
ATOM     20  C   UNL     1      -0.316  10.004  18.179  0.00  0.00    +0.000 C 
ATOM     21  C   UNL     1      -1.119  12.167  19.049  0.00  0.00    +0.000 C 
ATOM     22  C   UNL     1       1.356  11.675  18.829  0.00  0.00    +0.000 C 
ENDBRANCH  18  19
ENDBRANCH  12  13
ENDBRANCH   7  12
TORSDOF 3
ENDMDL
MODEL 2
REMARK VINA RESULT:      -6.8      2.751      7.959
REMARK  Name = 
REMARK  7 active torsions:
REMARK  status: ('A' for Active; 'I' for Inactive)
REMARK    1  A    between atoms: C_1  and  N_2
REMARK    2  A    between atoms: N_7  and  C_8
REMARK    3  A    between atoms: C_8  and  C_9
REMARK    4  A    between atoms: C_14  and  C_15
REMARK    5  A    between atoms: C_15  and  C_16
REMARK    6  A    between atoms: C_15  and  C_17
REMARK    7  A    between atoms: C_15  and  C_18
REMARK                            x       y       z     vdW  Elec       q    Type
REMARK                         _______ _______ _______ _____ _____    ______ ____
ROOT
ATOM      1  C   UNL     1       0.938  12.970  21.051  0.00  0.00    +0.000 C 
ATOM      2  N   UNL     1       0.875  11.865  20.124  0.00  0.00    +0.000 N 
ATOM      3  C   UNL     1       0.609  10.529  20.551  0.00  0.00    +0.000 C 
ATOM      4  N   UNL     1       1.148   9.698  19.514  0.00  0.00    +0.000 N 
ATOM      5  C   UNL     1       1.566   8.436  19.835  0.00  0.00    +0.000 C 
ATOM      6  O   UNL     1       1.376   7.949  20.946  0.00  0.00    +0.000 OA
ATOM      7  N   UNL     1       2.253   7.770  18.854  0.00  0.00    +0.000 N 
ATOM      8  C   UNL     1       1.477  10.476  18.325  0.00  0.00    +0.000 C 
ATOM      9  C   UNL     1       1.411  11.898  18.853  0.00  0.00    +0.000 C 
ATOM     10  O   UNL     1       1.759  12.900  18.244  0.00  0.00    +0.000 OA
ATOM     11  H   UNL     1       1.949   7.944  17.908  0.00  0.00    +0.000 HD
ENDROOT
BRANCH   7  12
ATOM     12  C   UNL     1       2.793   6.448  19.138  0.00  0.00    +0.000 C 
BRANCH  12  13
ATOM     13  C   UNL     1       3.578   5.837  17.998  0.00  0.00    +0.000 A 
ATOM     14  C   UNL     1       4.410   6.710  17.272  0.00  0.00    +0.000 A 
ATOM     15  N   UNL     1       5.235   6.364  16.262  0.00  0.00    +0.000 NA
ATOM     16  C   UNL     1       5.268   5.062  15.957  0.00  0.00    +0.000 A 
ATOM     17  C   UNL     1       4.520   4.101  16.622  0.00  0.00    +0.000 A 
ATOM     18  C   UNL     1       3.654   4.449  17.686  0.00  0.00    +0.000 A 
BRANCH  18  19
ATOM     19  C   UNL     1       2.931   3.308  18.459  0.00  0.00    +0.000 C 
ATOM     20  C   UNL     1       3.281   3.272  19.977  0.00  0.00    +0.000 C 
ATOM     21  C   UNL     1       1.400   3.500  18.398  0.00  0.00    +0.000 C 
ATOM     22  C   UNL     1       3.313   1.904  17.943  0.00  0.00    +0.000 C 
ENDBRANCH  18  19
ENDBRANCH  12  13
ENDBRANCH   7  12
TORSDOF 3
ENDMDL
MODEL 3
REMARK VINA RESULT:      -6.7      2.772      7.946
REMARK  Name = 
REMARK  7 active torsions:
REMARK  status: ('A' for Active; 'I' for Inactive)
REMARK    1  A    between atoms: C_1  and  N_2
REMARK    2  A    between atoms: N_7  and  C_8
REMARK    3  A    between atoms: C_8  and  C_9
REMARK    4  A    between atoms: C_14  and  C_15
REMARK    5  A    between atoms: C_15  and  C_16
REMARK    6  A    between atoms: C_15  and  C_17
REMARK    7  A    between atoms: C_15  and  C_18
REMARK                            x       y       z     vdW  Elec       q    Type
REMARK                         _______ _______ _______ _____ _____    ______ ____
ROOT
ATOM      1  C   UNL     1      -0.121  12.177  21.222  0.00  0.00    +0.000 C 
ATOM      2  N   UNL     1       0.176  11.181  20.219  0.00  0.00    +0.000 N 
ATOM      3  C   UNL     1       0.185   9.785  20.516  0.00  0.00    +0.000 C 
ATOM      4  N   UNL     1       1.011   9.200  19.499  0.00  0.00    +0.000 N 
ATOM      5  C   UNL     1       1.676   8.039  19.782  0.00  0.00    +0.000 C 
ATOM      6  O   UNL     1       1.489   7.416  20.823  0.00  0.00    +0.000 OA
ATOM      7  N   UNL     1       2.601   7.642  18.851  0.00  0.00    +0.000 N 
ATOM      8  C   UNL     1       1.274  10.143  18.418  0.00  0.00    +0.000 C 
ATOM      9  C   UNL     1       0.821  11.457  19.031  0.00  0.00    +0.000 C 
ATOM     10  O   UNL     1       0.987  12.566  18.542  0.00  0.00    +0.000 OA
ATOM     11  H   UNL     1       2.367   7.835  17.888  0.00  0.00    +0.000 HD
ENDROOT
BRANCH   7  12
ATOM     12  C   UNL     1       3.401   6.453  19.108  0.00  0.00    +0.000 C 
BRANCH  12  13
ATOM     13  C   UNL     1       4.023   5.841  17.871  0.00  0.00    +0.000 A 
ATOM     14  C   UNL     1       4.828   6.691  17.089  0.00  0.00    +0.000 A 
ATOM     15  N   UNL     1       5.519   6.335  15.986  0.00  0.00    +0.000 NA
ATOM     16  C   UNL     1       5.437   5.046  15.638  0.00  0.00    +0.000 A 
ATOM     17  C   UNL     1       4.702   4.106  16.348  0.00  0.00    +0.000 A 
ATOM     18  C   UNL     1       3.977   4.464  17.509  0.00  0.00    +0.000 A 
BRANCH  18  19
ATOM     19  C   UNL     1       3.268   3.339  18.318  0.00  0.00    +0.000 C 
ATOM     20  C   UNL     1       3.426   1.926  17.679  0.00  0.00    +0.000 C 
ATOM     21  C   UNL     1       3.881   3.220  19.730  0.00  0.00    +0.000 C 
ATOM     22  C   UNL     1       1.741   3.549  18.415  0.00  0.00    +0.000 C 
ENDBRANCH  18  19
ENDBRANCH  12  13
ENDBRANCH   7  12
TORSDOF 3
ENDMDL
MODEL 4
REMARK VINA RESULT:      -6.7      0.493      1.056
REMARK  Name = 
REMARK  7 active torsions:
REMARK  status: ('A' for Active; 'I' for Inactive)
REMARK    1  A    between atoms: C_1  and  N_2
REMARK    2  A    between atoms: N_7  and  C_8
REMARK    3  A    between atoms: C_8  and  C_9
REMARK    4  A    between atoms: C_14  and  C_15
REMARK    5  A    between atoms: C_15  and  C_16
REMARK    6  A    between atoms: C_15  and  C_17
REMARK    7  A    between atoms: C_15  and  C_18
REMARK                            x       y       z     vdW  Elec       q    Type
REMARK                         _______ _______ _______ _____ _____    ______ ____
ROOT
ATOM      1  C   UNL     1       4.686   2.760  19.817  0.00  0.00    +0.000 C 
ATOM      2  N   UNL     1       3.485   3.558  19.905  0.00  0.00    +0.000 N 
ATOM      3  C   UNL     1       3.257   4.683  19.056  0.00  0.00    +0.000 C 
ATOM      4  N   UNL     1       2.307   5.490  19.765  0.00  0.00    +0.000 N 
ATOM      5  C   UNL     1       2.294   6.839  19.540  0.00  0.00    +0.000 C 
ATOM      6  O   UNL     1       2.976   7.360  18.661  0.00  0.00    +0.000 OA
ATOM      7  N   UNL     1       1.511   7.576  20.389  0.00  0.00    +0.000 N 
ATOM      8  C   UNL     1       1.720   4.763  20.886  0.00  0.00    +0.000 C 
ATOM      9  C   UNL     1       2.647   3.565  21.001  0.00  0.00    +0.000 C 
ATOM     10  O   UNL     1       2.636   2.741  21.905  0.00  0.00    +0.000 OA
ATOM     11  H   UNL     1       0.655   7.136  20.692  0.00  0.00    +0.000 HD
ENDROOT
BRANCH   7  12
ATOM     12  C   UNL     1       1.496   9.026  20.261  0.00  0.00    +0.000 C 
BRANCH  12  13
ATOM     13  C   UNL     1       0.507   9.721  21.172  0.00  0.00    +0.000 A 
ATOM     14  C   UNL     1       0.608   9.429  22.545  0.00  0.00    +0.000 A 
ATOM     15  N   UNL     1      -0.131   9.980  23.530  0.00  0.00    +0.000 NA
ATOM     16  C   UNL     1      -1.016  10.906  23.146  0.00  0.00    +0.000 A 
ATOM     17  C   UNL     1      -1.185  11.304  21.827  0.00  0.00    +0.000 A 
ATOM     18  C   UNL     1      -0.413  10.737  20.784  0.00  0.00    +0.000 A 
BRANCH  18  19
ATOM     19  C   UNL     1      -0.576  11.309  19.346  0.00  0.00    +0.000 C 
ATOM     20  C   UNL     1       0.721  11.978  18.797  0.00  0.00    +0.000 C 
ATOM     21  C   UNL     1      -0.904  10.177  18.348  0.00  0.00    +0.000 C 
ATOM     22  C   UNL     1      -1.645  12.420  19.264  0.00  0.00    +0.000 C 
ENDBRANCH  18  19
ENDBRANCH  12  13
ENDBRANCH   7  12
TORSDOF 3
ENDMDL
MODEL 5
REMARK VINA RESULT:      -6.6      2.554      7.265
REMARK  Name = 
REMARK  7 active torsions:
REMARK  status: ('A' for Active; 'I' for Inactive)
REMARK    1  A    between atoms: C_1  and  N_2
REMARK    2  A    between atoms: N_7  and  C_8
REMARK    3  A    between atoms: C_8  and  C_9
REMARK    4  A    between atoms: C_14  and  C_15
REMARK    5  A    between atoms: C_15  and  C_16
REMARK    6  A    between atoms: C_15  and  C_17
REMARK    7  A    between atoms: C_15  and  C_18
REMARK                            x       y       z     vdW  Elec       q    Type
REMARK                         _______ _______ _______ _____ _____    ______ ____
ROOT
ATOM      1  C   UNL     1      -1.210  11.626  22.041  0.00  0.00    +0.000 C 
ATOM      2  N   UNL     1      -0.022  10.855  21.761  0.00  0.00    +0.000 N 
ATOM      3  C   UNL     1       0.542  10.778  20.452  0.00  0.00    +0.000 C 
ATOM      4  N   UNL     1       1.310   9.567  20.454  0.00  0.00    +0.000 N 
ATOM      5  C   UNL     1       1.506   8.912  19.269  0.00  0.00    +0.000 C 
ATOM      6  O   UNL     1       1.160   9.392  18.194  0.00  0.00    +0.000 OA
ATOM      7  N   UNL     1       2.069   7.666  19.365  0.00  0.00    +0.000 N 
ATOM      8  C   UNL     1       1.478   9.044  21.806  0.00  0.00    +0.000 C 
ATOM      9  C   UNL     1       0.456   9.855  22.584  0.00  0.00    +0.000 C 
ATOM     10  O   UNL     1       0.130   9.662  23.747  0.00  0.00    +0.000 OA
ATOM     11  H   UNL     1       2.757   7.549  20.094  0.00  0.00    +0.000 HD
ENDROOT
BRANCH   7  12
ATOM     12  C   UNL     1       2.248   6.873  18.157  0.00  0.00    +0.000 C 
BRANCH  12  13
ATOM     13  C   UNL     1       3.536   6.080  18.118  0.00  0.00    +0.000 A 
ATOM     14  C   UNL     1       4.676   6.760  17.648  0.00  0.00    +0.000 A 
ATOM     15  N   UNL     1       5.928   6.262  17.587  0.00  0.00    +0.000 NA
ATOM     16  C   UNL     1       6.082   5.014  18.045  0.00  0.00    +0.000 A 
ATOM     17  C   UNL     1       5.042   4.255  18.563  0.00  0.00    +0.000 A 
ATOM     18  C   UNL     1       3.724   4.767  18.637  0.00  0.00    +0.000 A 
BRANCH  18  19
ATOM     19  C   UNL     1       2.630   3.904  19.331  0.00  0.00    +0.000 C 
ATOM     20  C   UNL     1       3.081   2.437  19.602  0.00  0.00    +0.000 C 
ATOM     21  C   UNL     1       2.282   4.486  20.718  0.00  0.00    +0.000 C 
ATOM     22  C   UNL     1       1.353   3.762  18.476  0.00  0.00    +0.000 C 
ENDBRANCH  18  19
ENDBRANCH  12  13
ENDBRANCH   7  12
TORSDOF 3
ENDMDL
MODEL 6
REMARK VINA RESULT:      -6.6      3.017      8.098
REMARK  Name = 
REMARK  7 active torsions:
REMARK  status: ('A' for Active; 'I' for Inactive)
REMARK    1  A    between atoms: C_1  and  N_2
REMARK    2  A    between atoms: N_7  and  C_8
REMARK    3  A    between atoms: C_8  and  C_9
REMARK    4  A    between atoms: C_14  and  C_15
REMARK    5  A    between atoms: C_15  and  C_16
REMARK    6  A    between atoms: C_15  and  C_17
REMARK    7  A    between atoms: C_15  and  C_18
REMARK                            x       y       z     vdW  Elec       q    Type
REMARK                         _______ _______ _______ _____ _____    ______ ____
ROOT
ATOM      1  C   UNL     1       1.123  13.445  20.568  0.00  0.00    +0.000 C 
ATOM      2  N   UNL     1       1.200  12.392  19.582  0.00  0.00    +0.000 N 
ATOM      3  C   UNL     1       0.711  11.076  19.838  0.00  0.00    +0.000 C 
ATOM      4  N   UNL     1       1.420  10.236  18.917  0.00  0.00    +0.000 N 
ATOM      5  C   UNL     1       1.624   8.925  19.247  0.00  0.00    +0.000 C 
ATOM      6  O   UNL     1       1.111   8.415  20.239  0.00  0.00    +0.000 OA
ATOM      7  N   UNL     1       2.476   8.231  18.428  0.00  0.00    +0.000 N 
ATOM      8  C   UNL     1       2.114  11.024  17.903  0.00  0.00    +0.000 C 
ATOM      9  C   UNL     1       2.046  12.422  18.492  0.00  0.00    +0.000 C 
ATOM     10  O   UNL     1       2.628  13.406  18.058  0.00  0.00    +0.000 OA
ATOM     11  H   UNL     1       2.443   8.476  17.449  0.00  0.00    +0.000 HD
ENDROOT
BRANCH   7  12
ATOM     12  C   UNL     1       2.801   6.849  18.749  0.00  0.00    +0.000 C 
BRANCH  12  13
ATOM     13  C   UNL     1       3.651   6.151  17.709  0.00  0.00    +0.000 A 
ATOM     14  C   UNL     1       4.553   6.959  16.992  0.00  0.00    +0.000 A 
ATOM     15  N   UNL     1       5.439   6.532  16.069  0.00  0.00    +0.000 NA
ATOM     16  C   UNL     1       5.462   5.213  15.850  0.00  0.00    +0.000 A 
ATOM     17  C   UNL     1       4.646   4.311  16.518  0.00  0.00    +0.000 A 
ATOM     18  C   UNL     1       3.715   4.744  17.492  0.00  0.00    +0.000 A 
BRANCH  18  19
ATOM     19  C   UNL     1       2.912   3.669  18.281  0.00  0.00    +0.000 C 
ATOM     20  C   UNL     1       3.174   2.215  17.785  0.00  0.00    +0.000 C 
ATOM     21  C   UNL     1       3.322   3.672  19.770  0.00  0.00    +0.000 C 
ATOM     22  C   UNL     1       1.385   3.851  18.148  0.00  0.00    +0.000 C 
ENDBRANCH  18  19
ENDBRANCH  12  13
ENDBRANCH   7  12
TORSDOF 3
ENDMDL
MODEL 7
REMARK VINA RESULT:      -6.6      2.814      7.478
REMARK  Name = 
REMARK  7 active torsions:
REMARK  status: ('A' for Active; 'I' for Inactive)
REMARK    1  A    between atoms: C_1  and  N_2
REMARK    2  A    between atoms: N_7  and  C_8
REMARK    3  A    between atoms: C_8  and  C_9
REMARK    4  A    between atoms: C_14  and  C_15
REMARK    5  A    between atoms: C_15  and  C_16
REMARK    6  A    between atoms: C_15  and  C_17
REMARK    7  A    between atoms: C_15  and  C_18
REMARK                            x       y       z     vdW  Elec       q    Type
REMARK                         _______ _______ _______ _____ _____    ______ ____
ROOT
ATOM      1  C   UNL     1      -1.478  11.176  20.430  0.00  0.00    +0.000 C 
ATOM      2  N   UNL     1      -0.243  10.431  20.505  0.00  0.00    +0.000 N 
ATOM      3  C   UNL     1       0.722  10.454  19.454  0.00  0.00    +0.000 C 
ATOM      4  N   UNL     1       1.480   9.248  19.626  0.00  0.00    +0.000 N 
ATOM      5  C   UNL     1       2.074   8.684  18.531  0.00  0.00    +0.000 C 
ATOM      6  O   UNL     1       2.087   9.241  17.437  0.00  0.00    +0.000 OA
ATOM      7  N   UNL     1       2.607   7.436  18.721  0.00  0.00    +0.000 N 
ATOM      8  C   UNL     1       1.208   8.627  20.918  0.00  0.00    +0.000 C 
ATOM      9  C   UNL     1      -0.035   9.375  21.369  0.00  0.00    +0.000 C 
ATOM     10  O   UNL     1      -0.720   9.095  22.343  0.00  0.00    +0.000 OA
ATOM     11  H   UNL     1       3.020   7.267  19.626  0.00  0.00    +0.000 HD
ENDROOT
BRANCH   7  12
ATOM     12  C   UNL     1       3.196   6.735  17.588  0.00  0.00    +0.000 C 
BRANCH  12  13
ATOM     13  C   UNL     1       3.114   5.227  17.678  0.00  0.00    +0.000 A 
ATOM     14  C   UNL     1       1.904   4.693  18.160  0.00  0.00    +0.000 A 
ATOM     15  N   UNL     1       1.600   3.382  18.262  0.00  0.00    +0.000 NA
ATOM     16  C   UNL     1       2.541   2.531  17.837  0.00  0.00    +0.000 A 
ATOM     17  C   UNL     1       3.760   2.937  17.312  0.00  0.00    +0.000 A 
ATOM     18  C   UNL     1       4.089   4.308  17.193  0.00  0.00    +0.000 A 
BRANCH  18  19
ATOM     19  C   UNL     1       5.425   4.693  16.493  0.00  0.00    +0.000 C 
ATOM     20  C   UNL     1       6.599   4.932  17.490  0.00  0.00    +0.000 C 
ATOM     21  C   UNL     1       5.901   3.550  15.570  0.00  0.00    +0.000 C 
ATOM     22  C   UNL     1       5.322   6.013  15.698  0.00  0.00    +0.000 C 
ENDBRANCH  18  19
ENDBRANCH  12  13
ENDBRANCH   7  12
TORSDOF 3
ENDMDL
MODEL 8
REMARK VINA RESULT:      -6.6      2.447      7.801
REMARK  Name = 
REMARK  7 active torsions:
REMARK  status: ('A' for Active; 'I' for Inactive)
REMARK    1  A    between atoms: C_1  and  N_2
REMARK    2  A    between atoms: N_7  and  C_8
REMARK    3  A    between atoms: C_8  and  C_9
REMARK    4  A    between atoms: C_14  and  C_15
REMARK    5  A    between atoms: C_15  and  C_16
REMARK    6  A    between atoms: C_15  and  C_17
REMARK    7  A    between atoms: C_15  and  C_18
REMARK                            x       y       z     vdW  Elec       q    Type
REMARK                         _______ _______ _______ _____ _____    ______ ____
ROOT
ATOM      1  C   UNL     1       0.093  12.881  20.958  0.00  0.00    +0.000 C 
ATOM      2  N   UNL     1       0.296  11.738  20.098  0.00  0.00    +0.000 N 
ATOM      3  C   UNL     1       0.046  10.404  20.538  0.00  0.00    +0.000 C 
ATOM      4  N   UNL     1       0.840   9.578  19.673  0.00  0.00    +0.000 N 
ATOM      5  C   UNL     1       1.274   8.368  20.139  0.00  0.00    +0.000 C 
ATOM      6  O   UNL     1       0.902   7.912  21.216  0.00  0.00    +0.000 OA
ATOM      7  N   UNL     1       2.189   7.722  19.349  0.00  0.00    +0.000 N 
ATOM      8  C   UNL     1       1.343  10.333  18.530  0.00  0.00    +0.000 C 
ATOM      9  C   UNL     1       1.071  11.765  18.957  0.00  0.00    +0.000 C 
ATOM     10  O   UNL     1       1.461  12.767  18.373  0.00  0.00    +0.000 OA
ATOM     11  H   UNL     1       2.069   7.834  18.353  0.00  0.00    +0.000 HD
ENDROOT
BRANCH   7  12
ATOM     12  C   UNL     1       2.755   6.460  19.806  0.00  0.00    +0.000 C 
BRANCH  12  13
ATOM     13  C   UNL     1       3.190   5.533  18.691  0.00  0.00    +0.000 A 
ATOM     14  C   UNL     1       4.076   6.070  17.739  0.00  0.00    +0.000 A 
ATOM     15  N   UNL     1       4.630   5.403  16.706  0.00  0.00    +0.000 NA
ATOM     16  C   UNL     1       4.314   4.107  16.612  0.00  0.00    +0.000 A 
ATOM     17  C   UNL     1       3.477   3.456  17.508  0.00  0.00    +0.000 A 
ATOM     18  C   UNL     1       2.893   4.142  18.600  0.00  0.00    +0.000 A 
BRANCH  18  19
ATOM     19  C   UNL     1       2.056   3.327  19.628  0.00  0.00    +0.000 C 
ATOM     20  C   UNL     1       0.896   4.146  20.268  0.00  0.00    +0.000 C 
ATOM     21  C   UNL     1       1.374   2.125  18.938  0.00  0.00    +0.000 C 
ATOM     22  C   UNL     1       2.896   2.845  20.830  0.00  0.00    +0.000 C 
ENDBRANCH  18  19
ENDBRANCH  12  13
ENDBRANCH   7  12
TORSDOF 3
ENDMDL
MODEL 9
REMARK VINA RESULT:      -6.5      2.647      7.337
REMARK  Name = 
REMARK  7 active torsions:
REMARK  status: ('A' for Active; 'I' for Inactive)
REMARK    1  A    between atoms: C_1  and  N_2
REMARK    2  A    between atoms: N_7  and  C_8
REMARK    3  A    between atoms: C_8  and  C_9
REMARK    4  A    between atoms: C_14  and  C_15
REMARK    5  A    between atoms: C_15  and  C_16
REMARK    6  A    between atoms: C_15  and  C_17
REMARK    7  A    between atoms: C_15  and  C_18
REMARK                            x       y       z     vdW  Elec       q    Type
REMARK                         _______ _______ _______ _____ _____    ______ ____
ROOT
ATOM      1  C   UNL     1      -1.377  12.000  20.514  0.00  0.00    +0.000 C 
ATOM      2  N   UNL     1      -0.239  11.113  20.586  0.00  0.00    +0.000 N 
ATOM      3  C   UNL     1       0.645  10.921  19.482  0.00  0.00    +0.000 C 
ATOM      4  N   UNL     1       1.261   9.648  19.722  0.00  0.00    +0.000 N 
ATOM      5  C   UNL     1       1.703   8.920  18.652  0.00  0.00    +0.000 C 
ATOM      6  O   UNL     1       1.707   9.374  17.512  0.00  0.00    +0.000 OA
ATOM      7  N   UNL     1       2.093   7.636  18.928  0.00  0.00    +0.000 N 
ATOM      8  C   UNL     1       1.007   9.182  21.081  0.00  0.00    +0.000 C 
ATOM      9  C   UNL     1      -0.101  10.118  21.532  0.00  0.00    +0.000 C 
ATOM     10  O   UNL     1      -0.744  10.013  22.567  0.00  0.00    +0.000 OA
ATOM     11  H   UNL     1       2.545   7.495  19.819  0.00  0.00    +0.000 HD
ENDROOT
BRANCH   7  12
ATOM     12  C   UNL     1       2.511   6.771  17.834  0.00  0.00    +0.000 C 
BRANCH  12  13
ATOM     13  C   UNL     1       3.783   5.996  18.103  0.00  0.00    +0.000 A 
ATOM     14  C   UNL     1       4.984   6.601  17.687  0.00  0.00    +0.000 A 
ATOM     15  N   UNL     1       6.227   6.113  17.882  0.00  0.00    +0.000 NA
ATOM     16  C   UNL     1       6.301   4.961  18.557  0.00  0.00    +0.000 A 
ATOM     17  C   UNL     1       5.191   4.287  19.047  0.00  0.00    +0.000 A 
ATOM     18  C   UNL     1       3.882   4.790  18.854  0.00  0.00    +0.000 A 
BRANCH  18  19
ATOM     19  C   UNL     1       2.693   4.042  19.526  0.00  0.00    +0.000 C 
ATOM     20  C   UNL     1       1.460   3.875  18.587  0.00  0.00    +0.000 C 
ATOM     21  C   UNL     1       3.107   2.606  19.914  0.00  0.00    +0.000 C 
ATOM     22  C   UNL     1       2.140   4.790  20.758  0.00  0.00    +0.000 C 
ENDBRANCH  18  19
ENDBRANCH  12  13
ENDBRANCH   7  12
TORSDOF 3
ENDMDL
