MODEL 1
REMARK VINA RESULT:      -7.9      0.000      0.000
REMARK  Name = 
REMARK  7 active torsions:
REMARK  status: ('A' for Active; 'I' for Inactive)
REMARK    1  A    between atoms: C_1  and  C_2
REMARK    2  A    between atoms: C_2  and  O_3
REMARK    3  A    between atoms: O_3  and  C_4
REMARK    4  A    between atoms: C_4  and  C_6
REMARK    5  A    between atoms: C_6  and  N_7
REMARK    6  A    between atoms: N_12  and  C_13
REMARK    7  A    between atoms: C_13  and  C_14
REMARK                            x       y       z     vdW  Elec       q    Type
REMARK                         _______ _______ _______ _____ _____    ______ ____
ROOT
ATOM      1  N   UNL     1       5.687   5.401  16.521  0.00  0.00    +0.000 N 
ATOM      2  C   UNL     1       6.588   5.939  17.377  0.00  0.00    +0.000 C 
ATOM      3  O   UNL     1       7.406   6.815  17.190  0.00  0.00    +0.000 OA
ATOM      4  C   UNL     1       6.365   5.189  18.706  0.00  0.00    +0.000 C 
ATOM      5  O   UNL     1       6.934   5.425  19.749  0.00  0.00    +0.000 OA
ATOM      6  N   UNL     1       5.399   4.277  18.434  0.00  0.00    +0.000 N 
ATOM      7  C   UNL     1       4.991   4.398  17.134  0.00  0.00    +0.000 C 
ATOM      8  O   UNL     1       4.118   3.729  16.599  0.00  0.00    +0.000 OA
ENDROOT
BRANCH   1   9
ATOM      9  C   UNL     1       5.609   5.716  15.114  0.00  0.00    +0.000 C 
BRANCH   9  10
ATOM     10  C   UNL     1       6.670   4.912  14.383  0.00  0.00    +0.000 C 
ATOM     11  O   UNL     1       7.838   5.254  14.240  0.00  0.00    +0.000 OA
BRANCH  10  12
ATOM     12  O   UNL     1       6.098   3.805  13.831  0.00  0.00    +0.000 OA
BRANCH  12  14
ATOM     13  C   UNL     1       5.154   3.008  11.790  0.00  0.00    +0.000 C 
ATOM     14  C   UNL     1       6.393   3.596  12.443  0.00  0.00    +0.000 C 
ENDBRANCH  12  14
ENDBRANCH  10  12
ENDBRANCH   9  10
ENDBRANCH   1   9
BRANCH   6  15
ATOM     15  C   UNL     1       4.866   3.333  19.385  0.00  0.00    +0.000 C 
BRANCH  15  16
ATOM     16  C   UNL     1       3.451   3.672  19.792  0.00  0.00    +0.000 A 
ATOM     17  C   UNL     1       2.461   2.677  19.818  0.00  0.00    +0.000 A 
ATOM     18  C   UNL     1       1.149   2.988  20.184  0.00  0.00    +0.000 A 
ATOM     19  C   UNL     1       0.811   4.298  20.523  0.00  0.00    +0.000 A 
ATOM     20  C   UNL     1       1.787   5.292  20.492  0.00  0.00    +0.000 A 
ATOM     21 CL   UNL     1       1.369   6.907  20.917  0.00  0.00    +0.000 Cl
ATOM     22  C   UNL     1       3.099   4.989  20.125  0.00  0.00    +0.000 A 
ENDBRANCH  15  16
ENDBRANCH   6  15
TORSDOF 6
ENDMDL
MODEL 2
REMARK VINA RESULT:      -7.5      1.760      2.040
REMARK  Name = 
REMARK  7 active torsions:
REMARK  status: ('A' for Active; 'I' for Inactive)
REMARK    1  A    between atoms: C_1  and  C_2
REMARK    2  A    between atoms: C_2  and  O_3
REMARK    3  A    between atoms: O_3  and  C_4
REMARK    4  A    between atoms: C_4  and  C_6
REMARK    5  A    between atoms: C_6  and  N_7
REMARK    6  A    between atoms: N_12  and  C_13
REMARK    7  A    between atoms: C_13  and  C_14
REMARK                            x       y       z     vdW  Elec       q    Type
REMARK                         _______ _______ _______ _____ _____    ______ ____
ROOT
ATOM      1  N   UNL     1       6.664   5.385  16.370  0.00  0.00    +0.000 N 
ATOM      2  C   UNL     1       7.251   4.795  17.438  0.00  0.00    +0.000 C 
ATOM      3  O   UNL     1       8.288   4.168  17.502  0.00  0.00    +0.000 OA
ATOM      4  C   UNL     1       6.304   5.086  18.619  0.00  0.00    +0.000 C 
ATOM      5  O   UNL     1       6.507   4.781  19.774  0.00  0.00    +0.000 OA
ATOM      6  N   UNL     1       5.263   5.763  18.072  0.00  0.00    +0.000 N 
ATOM      7  C   UNL     1       5.472   5.945  16.733  0.00  0.00    +0.000 C 
ATOM      8  O   UNL     1       4.721   6.538  15.972  0.00  0.00    +0.000 OA
ENDROOT
BRANCH   1   9
ATOM      9  C   UNL     1       7.140   5.273  15.011  0.00  0.00    +0.000 C 
BRANCH   9  10
ATOM     10  C   UNL     1       6.468   4.074  14.364  0.00  0.00    +0.000 C 
ATOM     11  O   UNL     1       5.855   3.201  14.966  0.00  0.00    +0.000 OA
BRANCH  10  12
ATOM     12  O   UNL     1       6.737   4.072  13.028  0.00  0.00    +0.000 OA
BRANCH  12  14
ATOM     13  C   UNL     1       6.698   2.288  11.445  0.00  0.00    +0.000 C 
ATOM     14  C   UNL     1       5.851   3.274  12.231  0.00  0.00    +0.000 C 
ENDBRANCH  12  14
ENDBRANCH  10  12
ENDBRANCH   9  10
ENDBRANCH   1   9
BRANCH   6  15
ATOM     15  C   UNL     1       4.116   6.241  18.804  0.00  0.00    +0.000 C 
BRANCH  15  16
ATOM     16  C   UNL     1       3.060   5.173  18.966  0.00  0.00    +0.000 A 
ATOM     17  C   UNL     1       2.251   4.803  17.881  0.00  0.00    +0.000 A 
ATOM     18  C   UNL     1       1.266   3.823  18.029  0.00  0.00    +0.000 A 
ATOM     19  C   UNL     1       1.075   3.207  19.265  0.00  0.00    +0.000 A 
ATOM     20  C   UNL     1       1.869   3.574  20.349  0.00  0.00    +0.000 A 
ATOM     21 CL   UNL     1       1.636   2.808  21.872  0.00  0.00    +0.000 Cl
ATOM     22  C   UNL     1       2.853   4.554  20.209  0.00  0.00    +0.000 A 
ENDBRANCH  15  16
ENDBRANCH   6  15
TORSDOF 6
ENDMDL
MODEL 3
REMARK VINA RESULT:      -7.4      1.594      1.817
REMARK  Name = 
REMARK  7 active torsions:
REMARK  status: ('A' for Active; 'I' for Inactive)
REMARK    1  A    between atoms: C_1  and  C_2
REMARK    2  A    between atoms: C_2  and  O_3
REMARK    3  A    between atoms: O_3  and  C_4
REMARK    4  A    between atoms: C_4  and  C_6
REMARK    5  A    between atoms: C_6  and  N_7
REMARK    6  A    between atoms: N_12  and  C_13
REMARK    7  A    between atoms: C_13  and  C_14
REMARK                            x       y       z     vdW  Elec       q    Type
REMARK                         _______ _______ _______ _____ _____    ______ ____
ROOT
ATOM      1  N   UNL     1       6.435   4.353  16.593  0.00  0.00    +0.000 N 
ATOM      2  C   UNL     1       7.233   4.466  17.681  0.00  0.00    +0.000 C 
ATOM      3  O   UNL     1       8.390   4.131  17.830  0.00  0.00    +0.000 OA
ATOM      4  C   UNL     1       6.348   5.138  18.750  0.00  0.00    +0.000 C 
ATOM      5  O   UNL     1       6.715   5.475  19.854  0.00  0.00    +0.000 OA
ATOM      6  N   UNL     1       5.135   5.280  18.159  0.00  0.00    +0.000 N 
ATOM      7  C   UNL     1       5.181   4.815  16.874  0.00  0.00    +0.000 C 
ATOM      8  O   UNL     1       4.250   4.827  16.081  0.00  0.00    +0.000 OA
ENDROOT
BRANCH   1   9
ATOM      9  C   UNL     1       6.807   3.670  15.375  0.00  0.00    +0.000 C 
BRANCH   9  10
ATOM     10  C   UNL     1       6.971   4.705  14.276  0.00  0.00    +0.000 C 
ATOM     11  O   UNL     1       7.814   5.595  14.266  0.00  0.00    +0.000 OA
BRANCH  10  12
ATOM     12  O   UNL     1       5.978   4.549  13.356  0.00  0.00    +0.000 OA
BRANCH  12  14
ATOM     13  C   UNL     1       4.822   3.215  11.751  0.00  0.00    +0.000 C 
ATOM     14  C   UNL     1       6.143   3.434  12.467  0.00  0.00    +0.000 C 
ENDBRANCH  12  14
ENDBRANCH  10  12
ENDBRANCH   9  10
ENDBRANCH   1   9
BRANCH   6  15
ATOM     15  C   UNL     1       3.975   5.859  18.790  0.00  0.00    +0.000 C 
BRANCH  15  16
ATOM     16  C   UNL     1       2.902   4.831  19.061  0.00  0.00    +0.000 A 
ATOM     17  C   UNL     1       1.935   4.538  18.088  0.00  0.00    +0.000 A 
ATOM     18  C   UNL     1       0.934   3.595  18.338  0.00  0.00    +0.000 A 
ATOM     19  C   UNL     1       0.888   2.938  19.567  0.00  0.00    +0.000 A 
ATOM     20  C   UNL     1       1.840   3.228  20.541  0.00  0.00    +0.000 A 
ATOM     21 CL   UNL     1       1.784   2.411  22.055  0.00  0.00    +0.000 Cl
ATOM     22  C   UNL     1       2.840   4.170  20.299  0.00  0.00    +0.000 A 
ENDBRANCH  15  16
ENDBRANCH   6  15
TORSDOF 6
ENDMDL
MODEL 4
REMARK VINA RESULT:      -7.2      1.727      1.963
REMARK  Name = 
REMARK  7 active torsions:
REMARK  status: ('A' for Active; 'I' for Inactive)
REMARK    1  A    between atoms: C_1  and  C_2
REMARK    2  A    between atoms: C_2  and  O_3
REMARK    3  A    between atoms: O_3  and  C_4
REMARK    4  A    between atoms: C_4  and  C_6
REMARK    5  A    between atoms: C_6  and  N_7
REMARK    6  A    between atoms: N_12  and  C_13
REMARK    7  A    between atoms: C_13  and  C_14
REMARK                            x       y       z     vdW  Elec       q    Type
REMARK                         _______ _______ _______ _____ _____    ______ ____
ROOT
ATOM      1  N   UNL     1       6.193   4.372  16.698  0.00  0.00    +0.000 N 
ATOM      2  C   UNL     1       7.067   4.469  17.727  0.00  0.00    +0.000 C 
ATOM      3  O   UNL     1       8.231   4.131  17.788  0.00  0.00    +0.000 OA
ATOM      4  C   UNL     1       6.262   5.124  18.868  0.00  0.00    +0.000 C 
ATOM      5  O   UNL     1       6.708   5.444  19.948  0.00  0.00    +0.000 OA
ATOM      6  N   UNL     1       5.010   5.275  18.369  0.00  0.00    +0.000 N 
ATOM      7  C   UNL     1       4.962   4.829  17.077  0.00  0.00    +0.000 C 
ATOM      8  O   UNL     1       3.976   4.853  16.354  0.00  0.00    +0.000 OA
ENDROOT
BRANCH   1   9
ATOM      9  C   UNL     1       6.474   3.709  15.446  0.00  0.00    +0.000 C 
BRANCH   9  10
ATOM     10  C   UNL     1       7.101   4.717  14.499  0.00  0.00    +0.000 C 
ATOM     11  O   UNL     1       7.755   5.694  14.843  0.00  0.00    +0.000 OA
BRANCH  10  12
ATOM     12  O   UNL     1       6.740   4.419  13.219  0.00  0.00    +0.000 OA
BRANCH  12  14
ATOM     13  C   UNL     1       5.691   2.786  11.833  0.00  0.00    +0.000 C 
ATOM     14  C   UNL     1       5.553   3.624  13.092  0.00  0.00    +0.000 C 
ENDBRANCH  12  14
ENDBRANCH  10  12
ENDBRANCH   9  10
ENDBRANCH   1   9
BRANCH   6  15
ATOM     15  C   UNL     1       3.899   5.843  19.091  0.00  0.00    +0.000 C 
BRANCH  15  16
ATOM     16  C   UNL     1       3.018   4.782  19.707  0.00  0.00    +0.000 A 
ATOM     17  C   UNL     1       3.012   4.581  21.096  0.00  0.00    +0.000 A 
ATOM     18  C   UNL     1       2.206   3.594  21.670  0.00  0.00    +0.000 A 
ATOM     19  C   UNL     1       1.401   2.794  20.860  0.00  0.00    +0.000 A 
ATOM     20  C   UNL     1       1.407   2.981  19.480  0.00  0.00    +0.000 A 
ATOM     21 CL   UNL     1       0.409   1.996  18.483  0.00  0.00    +0.000 Cl
ATOM     22  C   UNL     1       2.212   3.964  18.900  0.00  0.00    +0.000 A 
ENDBRANCH  15  16
ENDBRANCH   6  15
TORSDOF 6
ENDMDL
MODEL 5
REMARK VINA RESULT:      -7.0      3.100      6.841
REMARK  Name = 
REMARK  7 active torsions:
REMARK  status: ('A' for Active; 'I' for Inactive)
REMARK    1  A    between atoms: C_1  and  C_2
REMARK    2  A    between atoms: C_2  and  O_3
REMARK    3  A    between atoms: O_3  and  C_4
REMARK    4  A    between atoms: C_4  and  C_6
REMARK    5  A    between atoms: C_6  and  N_7
REMARK    6  A    between atoms: N_12  and  C_13
REMARK    7  A    between atoms: C_13  and  C_14
REMARK                            x       y       z     vdW  Elec       q    Type
REMARK                         _______ _______ _______ _____ _____    ______ ____
ROOT
ATOM      1  N   UNL     1       3.590   5.422  17.549  0.00  0.00    +0.000 N 
ATOM      2  C   UNL     1       4.100   6.669  17.420  0.00  0.00    +0.000 C 
ATOM      3  O   UNL     1       3.585   7.744  17.651  0.00  0.00    +0.000 OA
ATOM      4  C   UNL     1       5.535   6.456  16.898  0.00  0.00    +0.000 C 
ATOM      5  O   UNL     1       6.353   7.331  16.714  0.00  0.00    +0.000 OA
ATOM      6  N   UNL     1       5.654   5.114  16.743  0.00  0.00    +0.000 N 
ATOM      7  C   UNL     1       4.499   4.492  17.129  0.00  0.00    +0.000 C 
ATOM      8  O   UNL     1       4.307   3.284  17.123  0.00  0.00    +0.000 OA
ENDROOT
BRANCH   1   9
ATOM      9  C   UNL     1       2.219   5.132  17.901  0.00  0.00    +0.000 C 
BRANCH   9  10
ATOM     10  C   UNL     1       2.130   4.996  19.411  0.00  0.00    +0.000 C 
ATOM     11  O   UNL     1       2.257   5.917  20.209  0.00  0.00    +0.000 OA
BRANCH  10  12
ATOM     12  O   UNL     1       1.983   3.681  19.738  0.00  0.00    +0.000 OA
BRANCH  12  14
ATOM     13  C   UNL     1       1.455   2.521  21.754  0.00  0.00    +0.000 C 
ATOM     14  C   UNL     1       2.522   3.309  21.015  0.00  0.00    +0.000 C 
ENDBRANCH  12  14
ENDBRANCH  10  12
ENDBRANCH   9  10
ENDBRANCH   1   9
BRANCH   6  15
ATOM     15  C   UNL     1       6.835   4.442  16.261  0.00  0.00    +0.000 C 
BRANCH  15  16
ATOM     16  C   UNL     1       6.915   4.441  14.753  0.00  0.00    +0.000 A 
ATOM     17  C   UNL     1       7.784   5.318  14.086  0.00  0.00    +0.000 A 
ATOM     18  C   UNL     1       7.853   5.329  12.691  0.00  0.00    +0.000 A 
ATOM     19  C   UNL     1       7.050   4.465  11.946  0.00  0.00    +0.000 A 
ATOM     20  C   UNL     1       6.179   3.597  12.600  0.00  0.00    +0.000 A 
ATOM     21 CL   UNL     1       5.194   2.528  11.680  0.00  0.00    +0.000 Cl
ATOM     22  C   UNL     1       6.103   3.583  13.994  0.00  0.00    +0.000 A 
ENDBRANCH  15  16
ENDBRANCH   6  15
TORSDOF 6
ENDMDL
MODEL 6
REMARK VINA RESULT:      -7.0      2.000      2.333
REMARK  Name = 
REMARK  7 active torsions:
REMARK  status: ('A' for Active; 'I' for Inactive)
REMARK    1  A    between atoms: C_1  and  C_2
REMARK    2  A    between atoms: C_2  and  O_3
REMARK    3  A    between atoms: O_3  and  C_4
REMARK    4  A    between atoms: C_4  and  C_6
REMARK    5  A    between atoms: C_6  and  N_7
REMARK    6  A    between atoms: N_12  and  C_13
REMARK    7  A    between atoms: C_13  and  C_14
REMARK                            x       y       z     vdW  Elec       q    Type
REMARK                         _______ _______ _______ _____ _____    ______ ____
ROOT
ATOM      1  N   UNL     1       5.776   5.088  16.477  0.00  0.00    +0.000 N 
ATOM      2  C   UNL     1       5.619   6.381  16.847  0.00  0.00    +0.000 C 
ATOM      3  O   UNL     1       6.401   7.306  16.774  0.00  0.00    +0.000 OA
ATOM      4  C   UNL     1       4.184   6.459  17.405  0.00  0.00    +0.000 C 
ATOM      5  O   UNL     1       3.632   7.470  17.783  0.00  0.00    +0.000 OA
ATOM      6  N   UNL     1       3.712   5.189  17.334  0.00  0.00    +0.000 N 
ATOM      7  C   UNL     1       4.656   4.368  16.782  0.00  0.00    +0.000 C 
ATOM      8  O   UNL     1       4.518   3.171  16.569  0.00  0.00    +0.000 OA
ENDROOT
BRANCH   1   9
ATOM      9  C   UNL     1       7.016   4.518  16.003  0.00  0.00    +0.000 C 
BRANCH   9  10
ATOM     10  C   UNL     1       7.141   4.810  14.518  0.00  0.00    +0.000 C 
ATOM     11  O   UNL     1       7.915   5.621  14.023  0.00  0.00    +0.000 OA
BRANCH  10  12
ATOM     12  O   UNL     1       6.197   4.102  13.837  0.00  0.00    +0.000 OA
BRANCH  12  14
ATOM     13  C   UNL     1       5.412   2.934  11.911  0.00  0.00    +0.000 C 
ATOM     14  C   UNL     1       6.595   3.654  12.533  0.00  0.00    +0.000 C 
ENDBRANCH  12  14
ENDBRANCH  10  12
ENDBRANCH   9  10
ENDBRANCH   1   9
BRANCH   6  15
ATOM     15  C   UNL     1       2.398   4.774  17.760  0.00  0.00    +0.000 C 
BRANCH  15  16
ATOM     16  C   UNL     1       2.433   4.040  19.080  0.00  0.00    +0.000 A 
ATOM     17  C   UNL     1       1.383   4.182  20.000  0.00  0.00    +0.000 A 
ATOM     18  C   UNL     1       1.416   3.514  21.227  0.00  0.00    +0.000 A 
ATOM     19  C   UNL     1       2.501   2.699  21.548  0.00  0.00    +0.000 A 
ATOM     20  C   UNL     1       3.551   2.559  20.643  0.00  0.00    +0.000 A 
ATOM     21 CL   UNL     1       4.886   1.548  21.039  0.00  0.00    +0.000 Cl
ATOM     22  C   UNL     1       3.526   3.226  19.417  0.00  0.00    +0.000 A 
ENDBRANCH  15  16
ENDBRANCH   6  15
TORSDOF 6
ENDMDL
MODEL 7
REMARK VINA RESULT:      -6.9      1.261      1.602
REMARK  Name = 
REMARK  7 active torsions:
REMARK  status: ('A' for Active; 'I' for Inactive)
REMARK    1  A    between atoms: C_1  and  C_2
REMARK    2  A    between atoms: C_2  and  O_3
REMARK    3  A    between atoms: O_3  and  C_4
REMARK    4  A    between atoms: C_4  and  C_6
REMARK    5  A    between atoms: C_6  and  N_7
REMARK    6  A    between atoms: N_12  and  C_13
REMARK    7  A    between atoms: C_13  and  C_14
REMARK                            x       y       z     vdW  Elec       q    Type
REMARK                         _______ _______ _______ _____ _____    ______ ____
ROOT
ATOM      1  N   UNL     1       5.878   5.457  16.310  0.00  0.00    +0.000 N 
ATOM      2  C   UNL     1       6.778   6.070  17.114  0.00  0.00    +0.000 C 
ATOM      3  O   UNL     1       7.574   6.950  16.855  0.00  0.00    +0.000 OA
ATOM      4  C   UNL     1       6.591   5.406  18.493  0.00  0.00    +0.000 C 
ATOM      5  O   UNL     1       7.171   5.723  19.509  0.00  0.00    +0.000 OA
ATOM      6  N   UNL     1       5.642   4.457  18.297  0.00  0.00    +0.000 N 
ATOM      7  C   UNL     1       5.213   4.483  16.999  0.00  0.00    +0.000 C 
ATOM      8  O   UNL     1       4.348   3.760  16.523  0.00  0.00    +0.000 OA
ENDROOT
BRANCH   1   9
ATOM      9  C   UNL     1       5.772   5.675  14.886  0.00  0.00    +0.000 C 
BRANCH   9  10
ATOM     10  C   UNL     1       6.933   4.971  14.205  0.00  0.00    +0.000 C 
ATOM     11  O   UNL     1       8.036   5.465  14.005  0.00  0.00    +0.000 OA
BRANCH  10  12
ATOM     12  O   UNL     1       6.525   3.746  13.769  0.00  0.00    +0.000 OA
BRANCH  12  14
ATOM     13  C   UNL     1       5.443   2.857  11.838  0.00  0.00    +0.000 C 
ATOM     14  C   UNL     1       5.275   3.737  13.064  0.00  0.00    +0.000 C 
ENDBRANCH  12  14
ENDBRANCH  10  12
ENDBRANCH   9  10
ENDBRANCH   1   9
BRANCH   6  15
ATOM     15  C   UNL     1       5.145   3.568  19.317  0.00  0.00    +0.000 C 
BRANCH  15  16
ATOM     16  C   UNL     1       3.678   3.791  19.601  0.00  0.00    +0.000 A 
ATOM     17  C   UNL     1       3.261   4.901  20.352  0.00  0.00    +0.000 A 
ATOM     18  C   UNL     1       1.906   5.106  20.626  0.00  0.00    +0.000 A 
ATOM     19  C   UNL     1       0.954   4.202  20.156  0.00  0.00    +0.000 A 
ATOM     20  C   UNL     1       1.362   3.094  19.417  0.00  0.00    +0.000 A 
ATOM     21 CL   UNL     1       0.185   1.982  18.833  0.00  0.00    +0.000 Cl
ATOM     22  C   UNL     1       2.713   2.881  19.142  0.00  0.00    +0.000 A 
ENDBRANCH  15  16
ENDBRANCH   6  15
TORSDOF 6
ENDMDL
MODEL 8
REMARK VINA RESULT:      -6.9      3.075      6.754
REMARK  Name = 
REMARK  7 active torsions:
REMARK  status: ('A' for Active; 'I' for Inactive)
REMARK    1  A    between atoms: C_1  and  C_2
REMARK    2  A    between atoms: C_2  and  O_3
REMARK    3  A    between atoms: O_3  and  C_4
REMARK    4  A    between atoms: C_4  and  C_6
REMARK    5  A    between atoms: C_6  and  N_7
REMARK    6  A    between atoms: N_12  and  C_13
REMARK    7  A    between atoms: C_13  and  C_14
REMARK                            x       y       z     vdW  Elec       q    Type
REMARK                         _______ _______ _______ _____ _____    ______ ____
ROOT
ATOM      1  N   UNL     1       3.219   2.935  18.775  0.00  0.00    +0.000 N 
ATOM      2  C   UNL     1       4.438   2.958  19.364  0.00  0.00    +0.000 C 
ATOM      3  O   UNL     1       4.862   2.297  20.290  0.00  0.00    +0.000 OA
ATOM      4  C   UNL     1       5.226   4.037  18.595  0.00  0.00    +0.000 C 
ATOM      5  O   UNL     1       6.391   4.317  18.776  0.00  0.00    +0.000 OA
ATOM      6  N   UNL     1       4.345   4.537  17.693  0.00  0.00    +0.000 N 
ATOM      7  C   UNL     1       3.148   3.884  17.795  0.00  0.00    +0.000 C 
ATOM      8  O   UNL     1       2.162   4.096  17.102  0.00  0.00    +0.000 OA
ENDROOT
BRANCH   1   9
ATOM      9  C   UNL     1       2.100   2.150  19.243  0.00  0.00    +0.000 C 
BRANCH   9  10
ATOM     10  C   UNL     1       1.578   2.776  20.525  0.00  0.00    +0.000 C 
ATOM     11  O   UNL     1       1.525   2.213  21.612  0.00  0.00    +0.000 OA
BRANCH  10  12
ATOM     12  O   UNL     1       1.091   4.020  20.255  0.00  0.00    +0.000 OA
BRANCH  12  14
ATOM     13  C   UNL     1       2.053   6.195  20.068  0.00  0.00    +0.000 C 
ATOM     14  C   UNL     1       1.672   5.081  21.027  0.00  0.00    +0.000 C 
ENDBRANCH  12  14
ENDBRANCH  10  12
ENDBRANCH   9  10
ENDBRANCH   1   9
BRANCH   6  15
ATOM     15  C   UNL     1       4.638   5.588  16.750  0.00  0.00    +0.000 C 
BRANCH  15  16
ATOM     16  C   UNL     1       5.443   5.088  15.574  0.00  0.00    +0.000 A 
ATOM     17  C   UNL     1       6.834   5.271  15.535  0.00  0.00    +0.000 A 
ATOM     18  C   UNL     1       7.581   4.820  14.444  0.00  0.00    +0.000 A 
ATOM     19  C   UNL     1       6.945   4.186  13.377  0.00  0.00    +0.000 A 
ATOM     20  C   UNL     1       5.564   4.008  13.405  0.00  0.00    +0.000 A 
ATOM     21 CL   UNL     1       4.781   3.221  12.090  0.00  0.00    +0.000 Cl
ATOM     22  C   UNL     1       4.811   4.458  14.490  0.00  0.00    +0.000 A 
ENDBRANCH  15  16
ENDBRANCH   6  15
TORSDOF 6
ENDMDL
MODEL 9
REMARK VINA RESULT:      -6.8      2.332      4.245
REMARK  Name = 
REMARK  7 active torsions:
REMARK  status: ('A' for Active; 'I' for Inactive)
REMARK    1  A    between atoms: C_1  and  C_2
REMARK    2  A    between atoms: C_2  and  O_3
REMARK    3  A    between atoms: O_3  and  C_4
REMARK    4  A    between atoms: C_4  and  C_6
REMARK    5  A    between atoms: C_6  and  N_7
REMARK    6  A    between atoms: N_12  and  C_13
REMARK    7  A    between atoms: C_13  and  C_14
REMARK                            x       y       z     vdW  Elec       q    Type
REMARK                         _______ _______ _______ _____ _____    ______ ____
ROOT
ATOM      1  N   UNL     1       5.940   4.394  17.889  0.00  0.00    +0.000 N 
ATOM      2  C   UNL     1       5.224   3.893  16.855  0.00  0.00    +0.000 C 
ATOM      3  O   UNL     1       5.592   3.561  15.747  0.00  0.00    +0.000 OA
ATOM      4  C   UNL     1       3.776   3.818  17.380  0.00  0.00    +0.000 C 
ATOM      5  O   UNL     1       2.832   3.358  16.774  0.00  0.00    +0.000 OA
ATOM      6  N   UNL     1       3.831   4.335  18.633  0.00  0.00    +0.000 N 
ATOM      7  C   UNL     1       5.118   4.679  18.942  0.00  0.00    +0.000 C 
ATOM      8  O   UNL     1       5.489   5.152  20.007  0.00  0.00    +0.000 OA
ENDROOT
BRANCH   1   9
ATOM      9  C   UNL     1       7.338   4.749  17.818  0.00  0.00    +0.000 C 
BRANCH   9  10
ATOM     10  C   UNL     1       7.454   6.109  17.150  0.00  0.00    +0.000 C 
ATOM     11  O   UNL     1       7.434   6.303  15.941  0.00  0.00    +0.000 OA
BRANCH  10  12
ATOM     12  O   UNL     1       7.681   7.060  18.100  0.00  0.00    +0.000 OA
BRANCH  12  14
ATOM     13  C   UNL     1       8.650   9.191  18.559  0.00  0.00    +0.000 C 
ATOM     14  C   UNL     1       7.769   8.404  17.605  0.00  0.00    +0.000 C 
ENDBRANCH  12  14
ENDBRANCH  10  12
ENDBRANCH   9  10
ENDBRANCH   1   9
BRANCH   6  15
ATOM     15  C   UNL     1       2.700   4.478  19.515  0.00  0.00    +0.000 C 
BRANCH  15  16
ATOM     16  C   UNL     1       2.283   5.920  19.678  0.00  0.00    +0.000 A 
ATOM     17  C   UNL     1       1.681   6.356  20.868  0.00  0.00    +0.000 A 
ATOM     18  C   UNL     1       1.284   7.688  21.019  0.00  0.00    +0.000 A 
ATOM     19  C   UNL     1       1.482   8.596  19.980  0.00  0.00    +0.000 A 
ATOM     20  C   UNL     1       2.072   8.169  18.793  0.00  0.00    +0.000 A 
ATOM     21 CL   UNL     1       2.320   9.294  17.514  0.00  0.00    +0.000 Cl
ATOM     22  C   UNL     1       2.468   6.840  18.634  0.00  0.00    +0.000 A 
ENDBRANCH  15  16
ENDBRANCH   6  15
TORSDOF 6
ENDMDL
