MODEL 1
REMARK VINA RESULT:      -8.3      0.000      0.000
REMARK  Name = 
REMARK  7 active torsions:
REMARK  status: ('A' for Active; 'I' for Inactive)
REMARK    1  A    between atoms: C_2  and  C_3
REMARK    2  A    between atoms: C_3  and  C_4
REMARK    3  A    between atoms: N_6  and  C_7
REMARK    4  A    between atoms: C_7  and  C_8
REMARK    5  A    between atoms: C_8  and  C_9
REMARK    6  A    between atoms: C_9  and  C_10
REMARK    7  A    between atoms: C_10  and  N_11
REMARK                            x       y       z     vdW  Elec       q    Type
REMARK                         _______ _______ _______ _____ _____    ______ ____
ROOT
ATOM      1  C   UNL     1       7.867   8.830  17.551  0.00  0.00    +0.000 C 
ENDROOT
BRANCH   1   2
ATOM      2  C   UNL     1       8.229  10.220  18.207  0.00  0.00    +0.000 C 
BRANCH   2   3
ATOM      3  C   UNL     1       9.724  10.525  18.453  0.00  0.00    +0.000 C 
BRANCH   3   6
ATOM      4  C   UNL     1      11.149  13.880  17.970  0.00  0.00    +0.000 A 
ATOM      5  C   UNL     1      10.750  12.637  17.512  0.00  0.00    +0.000 A 
ATOM      6  N   UNL     1      10.103  11.952  18.527  0.00  0.00    +0.000 N 
ATOM      7  C   UNL     1      10.062  12.766  19.654  0.00  0.00    +0.000 A 
ATOM      8  C   UNL     1       9.540  12.544  20.932  0.00  0.00    +0.000 A 
ATOM      9  C   UNL     1       9.658  13.566  21.890  0.00  0.00    +0.000 A 
ATOM     10  C   UNL     1      10.288  14.767  21.581  0.00  0.00    +0.000 A 
ATOM     11  C   UNL     1      10.816  14.982  20.307  0.00  0.00    +0.000 A 
ATOM     12  C   UNL     1      10.708  13.969  19.324  0.00  0.00    +0.000 A 
BRANCH   4  13
ATOM     13  C   UNL     1      11.902  14.942  17.220  0.00  0.00    +0.000 C 
BRANCH  13  15
ATOM     14  F   UNL     1      11.617  17.266  17.047  0.00  0.00    +0.000 F 
ATOM     15  C   UNL     1      11.020  16.081  16.730  0.00  0.00    +0.000 C 
ENDBRANCH  13  15
ENDBRANCH   4  13
ENDBRANCH   3   6
ENDBRANCH   2   3
ENDBRANCH   1   2
BRANCH   1  16
ATOM     16  C   UNL     1       8.227   7.525  18.335  0.00  0.00    +0.000 C 
BRANCH  16  17
ATOM     17  N   UNL     1       7.441   6.281  18.041  0.00  0.00    +0.000 NA
ATOM     18  C   UNL     1       6.324   6.522  17.105  0.00  0.00    +0.000 C 
ATOM     19  C   UNL     1       5.404   5.282  16.921  0.00  0.00    +0.000 C 
ATOM     20  C   UNL     1       4.571   5.089  18.192  0.00  0.00    +0.000 C 
ATOM     21  C   UNL     1       5.491   5.265  19.439  0.00  0.00    +0.000 C 
ATOM     22  C   UNL     1       7.019   5.436  19.167  0.00  0.00    +0.000 C 
ATOM     23  O   UNL     1       3.654   6.254  18.239  0.00  0.00    +0.000 OA
ATOM     24  C   UNL     1       2.525   5.930  19.072  0.00  0.00    +0.000 C 
ATOM     25  C   UNL     1       2.345   4.490  18.792  0.00  0.00    +0.000 A 
ATOM     26  C   UNL     1       1.179   3.754  18.989  0.00  0.00    +0.000 A 
ATOM     27  C   UNL     1       1.151   2.439  18.550  0.00  0.00    +0.000 A 
ATOM     28  C   UNL     1       2.295   1.897  17.935  0.00  0.00    +0.000 A 
ATOM     29  C   UNL     1       3.485   2.657  17.781  0.00  0.00    +0.000 A 
ATOM     30  C   UNL     1       3.519   3.973  18.238  0.00  0.00    +0.000 A 
ENDBRANCH  16  17
ENDBRANCH   1  16
TORSDOF 7
ENDMDL
MODEL 2
REMARK VINA RESULT:      -8.3      1.631      2.636
REMARK  Name = 
REMARK  7 active torsions:
REMARK  status: ('A' for Active; 'I' for Inactive)
REMARK    1  A    between atoms: C_2  and  C_3
REMARK    2  A    between atoms: C_3  and  C_4
REMARK    3  A    between atoms: N_6  and  C_7
REMARK    4  A    between atoms: C_7  and  C_8
REMARK    5  A    between atoms: C_8  and  C_9
REMARK    6  A    between atoms: C_9  and  C_10
REMARK    7  A    between atoms: C_10  and  N_11
REMARK                            x       y       z     vdW  Elec       q    Type
REMARK                         _______ _______ _______ _____ _____    ______ ____
ROOT
ATOM      1  C   UNL     1       7.728   8.345  18.254  0.00  0.00    +0.000 C 
ENDROOT
BRANCH   1   2
ATOM      2  C   UNL     1       8.569   9.677  18.147  0.00  0.00    +0.000 C 
BRANCH   2   3
ATOM      3  C   UNL     1       9.440  10.070  19.362  0.00  0.00    +0.000 C 
BRANCH   3   6
ATOM      4  C   UNL     1       9.360  13.592  20.417  0.00  0.00    +0.000 A 
ATOM      5  C   UNL     1       9.142  12.241  20.626  0.00  0.00    +0.000 A 
ATOM      6  N   UNL     1       9.669  11.516  19.569  0.00  0.00    +0.000 N 
ATOM      7  C   UNL     1      10.253  12.402  18.672  0.00  0.00    +0.000 A 
ATOM      8  C   UNL     1      10.900  12.184  17.452  0.00  0.00    +0.000 A 
ATOM      9  C   UNL     1      11.388  13.297  16.745  0.00  0.00    +0.000 A 
ATOM     10  C   UNL     1      11.223  14.587  17.239  0.00  0.00    +0.000 A 
ATOM     11  C   UNL     1      10.569  14.802  18.453  0.00  0.00    +0.000 A 
ATOM     12  C   UNL     1      10.070  13.697  19.185  0.00  0.00    +0.000 A 
BRANCH   4  13
ATOM     13  C   UNL     1       8.940  14.740  21.290  0.00  0.00    +0.000 C 
BRANCH  13  15
ATOM     14  F   UNL     1       6.667  14.541  20.743  0.00  0.00    +0.000 F 
ATOM     15  C   UNL     1       7.684  15.447  20.804  0.00  0.00    +0.000 C 
ENDBRANCH  13  15
ENDBRANCH   4  13
ENDBRANCH   3   6
ENDBRANCH   2   3
ENDBRANCH   1   2
BRANCH   1  16
ATOM     16  C   UNL     1       7.746   7.358  17.040  0.00  0.00    +0.000 C 
BRANCH  16  17
ATOM     17  N   UNL     1       6.789   6.203  17.051  0.00  0.00    +0.000 NA
ATOM     18  C   UNL     1       5.435   6.582  16.597  0.00  0.00    +0.000 C 
ATOM     19  C   UNL     1       4.395   5.437  16.759  0.00  0.00    +0.000 C 
ATOM     20  C   UNL     1       4.075   5.264  18.247  0.00  0.00    +0.000 C 
ATOM     21  C   UNL     1       5.403   5.305  19.065  0.00  0.00    +0.000 C 
ATOM     22  C   UNL     1       6.732   5.351  18.247  0.00  0.00    +0.000 C 
ATOM     23  O   UNL     1       3.359   6.502  18.639  0.00  0.00    +0.000 OA
ATOM     24  C   UNL     1       2.591   6.244  19.829  0.00  0.00    +0.000 C 
ATOM     25  C   UNL     1       2.179   4.839  19.625  0.00  0.00    +0.000 A 
ATOM     26  C   UNL     1       1.102   4.201  20.236  0.00  0.00    +0.000 A 
ATOM     27  C   UNL     1       0.786   2.914  19.830  0.00  0.00    +0.000 A 
ATOM     28  C   UNL     1       1.563   2.300  18.831  0.00  0.00    +0.000 A 
ATOM     29  C   UNL     1       2.681   2.958  18.251  0.00  0.00    +0.000 A 
ATOM     30  C   UNL     1       3.010   4.244  18.672  0.00  0.00    +0.000 A 
ENDBRANCH  16  17
ENDBRANCH   1  16
TORSDOF 7
ENDMDL
MODEL 3
REMARK VINA RESULT:      -8.0      6.184      9.307
REMARK  Name = 
REMARK  7 active torsions:
REMARK  status: ('A' for Active; 'I' for Inactive)
REMARK    1  A    between atoms: C_2  and  C_3
REMARK    2  A    between atoms: C_3  and  C_4
REMARK    3  A    between atoms: N_6  and  C_7
REMARK    4  A    between atoms: C_7  and  C_8
REMARK    5  A    between atoms: C_8  and  C_9
REMARK    6  A    between atoms: C_9  and  C_10
REMARK    7  A    between atoms: C_10  and  N_11
REMARK                            x       y       z     vdW  Elec       q    Type
REMARK                         _______ _______ _______ _____ _____    ______ ____
ROOT
ATOM      1  C   UNL     1       2.257   4.869  19.246  0.00  0.00    +0.000 C 
ENDROOT
BRANCH   1   2
ATOM      2  C   UNL     1       2.896   3.480  19.637  0.00  0.00    +0.000 C 
BRANCH   2   3
ATOM      3  C   UNL     1       3.967   2.894  18.689  0.00  0.00    +0.000 C 
BRANCH   3   6
ATOM      4  C   UNL     1       5.490   4.767  15.915  0.00  0.00    +0.000 A 
ATOM      5  C   UNL     1       4.540   3.912  16.445  0.00  0.00    +0.000 A 
ATOM      6  N   UNL     1       4.678   3.858  17.822  0.00  0.00    +0.000 N 
ATOM      7  C   UNL     1       5.718   4.702  18.196  0.00  0.00    +0.000 A 
ATOM      8  C   UNL     1       6.264   4.991  19.450  0.00  0.00    +0.000 A 
ATOM      9  C   UNL     1       7.340   5.893  19.520  0.00  0.00    +0.000 A 
ATOM     10  C   UNL     1       7.860   6.477  18.370  0.00  0.00    +0.000 A 
ATOM     11  C   UNL     1       7.319   6.179  17.118  0.00  0.00    +0.000 A 
ATOM     12  C   UNL     1       6.233   5.275  17.021  0.00  0.00    +0.000 A 
BRANCH   4  13
ATOM     13  C   UNL     1       5.721   5.108  14.470  0.00  0.00    +0.000 C 
BRANCH  13  15
ATOM     14  F   UNL     1       5.131   3.590  12.780  0.00  0.00    +0.000 F 
ATOM     15  C   UNL     1       6.150   3.918  13.625  0.00  0.00    +0.000 C 
ENDBRANCH  13  15
ENDBRANCH   4  13
ENDBRANCH   3   6
ENDBRANCH   2   3
ENDBRANCH   1   2
BRANCH   1  16
ATOM     16  C   UNL     1       1.658   5.757  20.386  0.00  0.00    +0.000 C 
BRANCH  16  17
ATOM     17  N   UNL     1       1.973   7.223  20.385  0.00  0.00    +0.000 NA
ATOM     18  C   UNL     1       1.038   8.006  21.219  0.00  0.00    +0.000 C 
ATOM     19  C   UNL     1       1.251   9.541  21.097  0.00  0.00    +0.000 C 
ATOM     20  C   UNL     1       0.745  10.006  19.726  0.00  0.00    +0.000 C 
ATOM     21  C   UNL     1       1.237   9.006  18.634  0.00  0.00    +0.000 C 
ATOM     22  C   UNL     1       2.221   7.886  19.097  0.00  0.00    +0.000 C 
ATOM     23  O   UNL     1      -0.726   9.816  19.769  0.00  0.00    +0.000 OA
ATOM     24  C   UNL     1      -1.337  10.659  18.775  0.00  0.00    +0.000 C 
ATOM     25  C   UNL     1      -0.451  11.843  18.796  0.00  0.00    +0.000 A 
ATOM     26  C   UNL     1      -0.780  13.122  18.354  0.00  0.00    +0.000 A 
ATOM     27  C   UNL     1       0.133  14.144  18.567  0.00  0.00    +0.000 A 
ATOM     28  C   UNL     1       1.351  13.852  19.208  0.00  0.00    +0.000 A 
ATOM     29  C   UNL     1       1.678  12.531  19.615  0.00  0.00    +0.000 A 
ATOM     30  C   UNL     1       0.769  11.501  19.384  0.00  0.00    +0.000 A 
ENDBRANCH  16  17
ENDBRANCH   1  16
TORSDOF 7
ENDMDL
MODEL 4
REMARK VINA RESULT:      -7.9      4.003     11.613
REMARK  Name = 
REMARK  7 active torsions:
REMARK  status: ('A' for Active; 'I' for Inactive)
REMARK    1  A    between atoms: C_2  and  C_3
REMARK    2  A    between atoms: C_3  and  C_4
REMARK    3  A    between atoms: N_6  and  C_7
REMARK    4  A    between atoms: C_7  and  C_8
REMARK    5  A    between atoms: C_8  and  C_9
REMARK    6  A    between atoms: C_9  and  C_10
REMARK    7  A    between atoms: C_10  and  N_11
REMARK                            x       y       z     vdW  Elec       q    Type
REMARK                         _______ _______ _______ _____ _____    ______ ____
ROOT
ATOM      1  C   UNL     1       7.986   8.816  17.797  0.00  0.00    +0.000 C 
ENDROOT
BRANCH   1   2
ATOM      2  C   UNL     1       7.922   7.274  18.130  0.00  0.00    +0.000 C 
BRANCH   2   3
ATOM      3  C   UNL     1       7.057   6.380  17.213  0.00  0.00    +0.000 C 
BRANCH   3   6
ATOM      4  C   UNL     1       4.550   4.073  18.595  0.00  0.00    +0.000 A 
ATOM      5  C   UNL     1       5.846   4.421  18.259  0.00  0.00    +0.000 A 
ATOM      6  N   UNL     1       5.879   5.740  17.837  0.00  0.00    +0.000 N 
ATOM      7  C   UNL     1       4.594   6.263  17.917  0.00  0.00    +0.000 A 
ATOM      8  C   UNL     1       4.093   7.528  17.597  0.00  0.00    +0.000 A 
ATOM      9  C   UNL     1       2.719   7.769  17.773  0.00  0.00    +0.000 A 
ATOM     10  C   UNL     1       1.873   6.770  18.245  0.00  0.00    +0.000 A 
ATOM     11  C   UNL     1       2.374   5.505  18.555  0.00  0.00    +0.000 A 
ATOM     12  C   UNL     1       3.755   5.239  18.388  0.00  0.00    +0.000 A 
BRANCH   4  13
ATOM     13  C   UNL     1       4.047   2.742  19.079  0.00  0.00    +0.000 C 
BRANCH  13  15
ATOM     14  F   UNL     1       2.315   2.303  17.558  0.00  0.00    +0.000 F 
ATOM     15  C   UNL     1       3.533   1.844  17.965  0.00  0.00    +0.000 C 
ENDBRANCH  13  15
ENDBRANCH   4  13
ENDBRANCH   3   6
ENDBRANCH   2   3
ENDBRANCH   1   2
BRANCH   1  16
ATOM     16  C   UNL     1       8.933   9.721  18.652  0.00  0.00    +0.000 C 
BRANCH  16  17
ATOM     17  N   UNL     1       9.524  10.939  18.008  0.00  0.00    +0.000 NA
ATOM     18  C   UNL     1      10.823  11.321  18.599  0.00  0.00    +0.000 C 
ATOM     19  C   UNL     1      11.367  12.672  18.055  0.00  0.00    +0.000 C 
ATOM     20  C   UNL     1      10.530  13.815  18.638  0.00  0.00    +0.000 C 
ATOM     21  C   UNL     1       9.020  13.434  18.561  0.00  0.00    +0.000 C 
ATOM     22  C   UNL     1       8.664  12.114  17.807  0.00  0.00    +0.000 C 
ATOM     23  O   UNL     1      10.838  13.824  20.089  0.00  0.00    +0.000 OA
ATOM     24  C   UNL     1      10.522  15.121  20.628  0.00  0.00    +0.000 C 
ATOM     25  C   UNL     1      10.864  16.011  19.498  0.00  0.00    +0.000 A 
ATOM     26  C   UNL     1      11.150  17.371  19.581  0.00  0.00    +0.000 A 
ATOM     27  C   UNL     1      11.577  18.023  18.435  0.00  0.00    +0.000 A 
ATOM     28  C   UNL     1      11.696  17.295  17.236  0.00  0.00    +0.000 A 
ATOM     29  C   UNL     1      11.361  15.916  17.169  0.00  0.00    +0.000 A 
ATOM     30  C   UNL     1      10.914  15.266  18.317  0.00  0.00    +0.000 A 
ENDBRANCH  16  17
ENDBRANCH   1  16
TORSDOF 7
ENDMDL
MODEL 5
REMARK VINA RESULT:      -7.9      7.314     11.406
REMARK  Name = 
REMARK  7 active torsions:
REMARK  status: ('A' for Active; 'I' for Inactive)
REMARK    1  A    between atoms: C_2  and  C_3
REMARK    2  A    between atoms: C_3  and  C_4
REMARK    3  A    between atoms: N_6  and  C_7
REMARK    4  A    between atoms: C_7  and  C_8
REMARK    5  A    between atoms: C_8  and  C_9
REMARK    6  A    between atoms: C_9  and  C_10
REMARK    7  A    between atoms: C_10  and  N_11
REMARK                            x       y       z     vdW  Elec       q    Type
REMARK                         _______ _______ _______ _____ _____    ______ ____
ROOT
ATOM      1  C   UNL     1       1.401   9.938  18.348  0.00  0.00    +0.000 C 
ENDROOT
BRANCH   1   2
ATOM      2  C   UNL     1       2.210   8.716  17.760  0.00  0.00    +0.000 C 
BRANCH   2   3
ATOM      3  C   UNL     1       2.486   7.523  18.703  0.00  0.00    +0.000 C 
BRANCH   3   6
ATOM      4  C   UNL     1       2.848   4.026  17.623  0.00  0.00    +0.000 A 
ATOM      5  C   UNL     1       2.122   5.082  18.147  0.00  0.00    +0.000 A 
ATOM      6  N   UNL     1       2.866   6.247  18.060  0.00  0.00    +0.000 N 
ATOM      7  C   UNL     1       4.082   5.951  17.454  0.00  0.00    +0.000 A 
ATOM      8  C   UNL     1       5.181   6.761  17.151  0.00  0.00    +0.000 A 
ATOM      9  C   UNL     1       6.299   6.170  16.538  0.00  0.00    +0.000 A 
ATOM     10  C   UNL     1       6.320   4.810  16.247  0.00  0.00    +0.000 A 
ATOM     11  C   UNL     1       5.226   4.002  16.560  0.00  0.00    +0.000 A 
ATOM     12  C   UNL     1       4.086   4.574  17.176  0.00  0.00    +0.000 A 
BRANCH   4  13
ATOM     13  C   UNL     1       2.443   2.583  17.534  0.00  0.00    +0.000 C 
BRANCH  13  15
ATOM     14  F   UNL     1       3.858   0.886  18.325  0.00  0.00    +0.000 F 
ATOM     15  C   UNL     1       2.885   1.751  18.729  0.00  0.00    +0.000 C 
ENDBRANCH  13  15
ENDBRANCH   4  13
ENDBRANCH   3   6
ENDBRANCH   2   3
ENDBRANCH   1   2
BRANCH   1  16
ATOM     16  C   UNL     1      -0.123  10.048  18.011  0.00  0.00    +0.000 C 
BRANCH  16  17
ATOM     17  N   UNL     1      -1.063  10.468  19.102  0.00  0.00    +0.000 NA
ATOM     18  C   UNL     1      -1.530  11.861  18.944  0.00  0.00    +0.000 C 
ATOM     19  C   UNL     1      -2.371  12.362  20.152  0.00  0.00    +0.000 C 
ATOM     20  C   UNL     1      -1.438  12.590  21.347  0.00  0.00    +0.000 C 
ATOM     21  C   UNL     1      -0.450  11.388  21.461  0.00  0.00    +0.000 C 
ATOM     22  C   UNL     1      -0.691  10.185  20.495  0.00  0.00    +0.000 C 
ATOM     23  O   UNL     1      -0.583  13.739  20.961  0.00  0.00    +0.000 OA
ATOM     24  C   UNL     1      -0.044  14.344  22.151  0.00  0.00    +0.000 C 
ATOM     25  C   UNL     1      -1.153  14.163  23.112  0.00  0.00    +0.000 A 
ATOM     26  C   UNL     1      -1.360  14.900  24.275  0.00  0.00    +0.000 A 
ATOM     27  C   UNL     1      -2.525  14.680  24.993  0.00  0.00    +0.000 A 
ATOM     28  C   UNL     1      -3.445  13.722  24.529  0.00  0.00    +0.000 A 
ATOM     29  C   UNL     1      -3.192  12.955  23.359  0.00  0.00    +0.000 A 
ATOM     30  C   UNL     1      -2.013  13.164  22.649  0.00  0.00    +0.000 A 
ENDBRANCH  16  17
ENDBRANCH   1  16
TORSDOF 7
ENDMDL
MODEL 6
REMARK VINA RESULT:      -7.9      4.940      8.994
REMARK  Name = 
REMARK  7 active torsions:
REMARK  status: ('A' for Active; 'I' for Inactive)
REMARK    1  A    between atoms: C_2  and  C_3
REMARK    2  A    between atoms: C_3  and  C_4
REMARK    3  A    between atoms: N_6  and  C_7
REMARK    4  A    between atoms: C_7  and  C_8
REMARK    5  A    between atoms: C_8  and  C_9
REMARK    6  A    between atoms: C_9  and  C_10
REMARK    7  A    between atoms: C_10  and  N_11
REMARK                            x       y       z     vdW  Elec       q    Type
REMARK                         _______ _______ _______ _____ _____    ______ ____
ROOT
ATOM      1  C   UNL     1       2.361   4.680  21.091  0.00  0.00    +0.000 C 
ENDROOT
BRANCH   1   2
ATOM      2  C   UNL     1       3.428   3.960  20.177  0.00  0.00    +0.000 C 
BRANCH   2   3
ATOM      3  C   UNL     1       3.535   4.421  18.706  0.00  0.00    +0.000 C 
BRANCH   3   6
ATOM      4  C   UNL     1       6.837   5.944  18.158  0.00  0.00    +0.000 A 
ATOM      5  C   UNL     1       5.765   5.588  18.958  0.00  0.00    +0.000 A 
ATOM      6  N   UNL     1       4.881   4.807  18.232  0.00  0.00    +0.000 N 
ATOM      7  C   UNL     1       5.393   4.635  16.950  0.00  0.00    +0.000 A 
ATOM      8  C   UNL     1       4.886   3.951  15.841  0.00  0.00    +0.000 A 
ATOM      9  C   UNL     1       5.633   3.961  14.650  0.00  0.00    +0.000 A 
ATOM     10  C   UNL     1       6.843   4.642  14.570  0.00  0.00    +0.000 A 
ATOM     11  C   UNL     1       7.342   5.332  15.677  0.00  0.00    +0.000 A 
ATOM     12  C   UNL     1       6.609   5.335  16.888  0.00  0.00    +0.000 A 
BRANCH   4  13
ATOM     13  C   UNL     1       8.016   6.800  18.522  0.00  0.00    +0.000 C 
BRANCH  13  15
ATOM     14  F   UNL     1       8.623   9.062  18.682  0.00  0.00    +0.000 F 
ATOM     15  C   UNL     1       8.002   8.169  17.858  0.00  0.00    +0.000 C 
ENDBRANCH  13  15
ENDBRANCH   4  13
ENDBRANCH   3   6
ENDBRANCH   2   3
ENDBRANCH   1   2
BRANCH   1  16
ATOM     16  C   UNL     1       1.407   5.729  20.431  0.00  0.00    +0.000 C 
BRANCH  16  17
ATOM     17  N   UNL     1       1.771   7.181  20.529  0.00  0.00    +0.000 NA
ATOM     18  C   UNL     1       0.770   7.969  21.277  0.00  0.00    +0.000 C 
ATOM     19  C   UNL     1       1.049   9.498  21.245  0.00  0.00    +0.000 C 
ATOM     20  C   UNL     1       0.730  10.032  19.845  0.00  0.00    +0.000 C 
ATOM     21  C   UNL     1       1.316   9.056  18.779  0.00  0.00    +0.000 C 
ATOM     22  C   UNL     1       2.197   7.881  19.309  0.00  0.00    +0.000 C 
ATOM     23  O   UNL     1      -0.741   9.900  19.703  0.00  0.00    +0.000 OA
ATOM     24  C   UNL     1      -1.197  10.803  18.679  0.00  0.00    +0.000 C 
ATOM     25  C   UNL     1      -0.280  11.949  18.856  0.00  0.00    +0.000 A 
ATOM     26  C   UNL     1      -0.507  13.256  18.431  0.00  0.00    +0.000 A 
ATOM     27  C   UNL     1       0.407  14.232  18.795  0.00  0.00    +0.000 A 
ATOM     28  C   UNL     1       1.527  13.869  19.565  0.00  0.00    +0.000 A 
ATOM     29  C   UNL     1       1.757  12.521  19.952  0.00  0.00    +0.000 A 
ATOM     30  C   UNL     1       0.847  11.537  19.571  0.00  0.00    +0.000 A 
ENDBRANCH  16  17
ENDBRANCH   1  16
TORSDOF 7
ENDMDL
MODEL 7
REMARK VINA RESULT:      -7.9      6.932     11.161
REMARK  Name = 
REMARK  7 active torsions:
REMARK  status: ('A' for Active; 'I' for Inactive)
REMARK    1  A    between atoms: C_2  and  C_3
REMARK    2  A    between atoms: C_3  and  C_4
REMARK    3  A    between atoms: N_6  and  C_7
REMARK    4  A    between atoms: C_7  and  C_8
REMARK    5  A    between atoms: C_8  and  C_9
REMARK    6  A    between atoms: C_9  and  C_10
REMARK    7  A    between atoms: C_10  and  N_11
REMARK                            x       y       z     vdW  Elec       q    Type
REMARK                         _______ _______ _______ _____ _____    ______ ____
ROOT
ATOM      1  C   UNL     1       1.393   9.291  18.291  0.00  0.00    +0.000 C 
ENDROOT
BRANCH   1   2
ATOM      2  C   UNL     1       2.388   8.168  17.800  0.00  0.00    +0.000 C 
BRANCH   2   3
ATOM      3  C   UNL     1       2.952   7.199  18.864  0.00  0.00    +0.000 C 
BRANCH   3   6
ATOM      4  C   UNL     1       4.377   4.313  17.087  0.00  0.00    +0.000 A 
ATOM      5  C   UNL     1       4.390   5.637  17.490  0.00  0.00    +0.000 A 
ATOM      6  N   UNL     1       3.359   5.860  18.388  0.00  0.00    +0.000 N 
ATOM      7  C   UNL     1       2.679   4.664  18.587  0.00  0.00    +0.000 A 
ATOM      8  C   UNL     1       1.565   4.359  19.376  0.00  0.00    +0.000 A 
ATOM      9  C   UNL     1       1.081   3.039  19.368  0.00  0.00    +0.000 A 
ATOM     10  C   UNL     1       1.686   2.060  18.587  0.00  0.00    +0.000 A 
ATOM     11  C   UNL     1       2.792   2.370  17.794  0.00  0.00    +0.000 A 
ATOM     12  C   UNL     1       3.300   3.692  17.786  0.00  0.00    +0.000 A 
BRANCH   4  13
ATOM     13  C   UNL     1       5.295   3.636  16.109  0.00  0.00    +0.000 C 
BRANCH  13  15
ATOM     14  F   UNL     1       5.798   3.832  13.825  0.00  0.00    +0.000 F 
ATOM     15  C   UNL     1       5.766   4.548  14.986  0.00  0.00    +0.000 C 
ENDBRANCH  13  15
ENDBRANCH   4  13
ENDBRANCH   3   6
ENDBRANCH   2   3
ENDBRANCH   1   2
BRANCH   1  16
ATOM     16  C   UNL     1       1.854  10.783  18.194  0.00  0.00    +0.000 C 
BRANCH  16  17
ATOM     17  N   UNL     1       0.969  11.840  18.786  0.00  0.00    +0.000 NA
ATOM     18  C   UNL     1       1.400  12.249  20.138  0.00  0.00    +0.000 C 
ATOM     19  C   UNL     1       0.401  13.220  20.829  0.00  0.00    +0.000 C 
ATOM     20  C   UNL     1      -0.851  12.437  21.239  0.00  0.00    +0.000 C 
ATOM     21  C   UNL     1      -1.275  11.500  20.066  0.00  0.00    +0.000 C 
ATOM     22  C   UNL     1      -0.487  11.649  18.726  0.00  0.00    +0.000 C 
ATOM     23  O   UNL     1      -0.400  11.513  22.308  0.00  0.00    +0.000 OA
ATOM     24  C   UNL     1      -1.538  11.109  23.091  0.00  0.00    +0.000 C 
ATOM     25  C   UNL     1      -2.368  12.333  23.071  0.00  0.00    +0.000 A 
ATOM     26  C   UNL     1      -3.367  12.663  23.984  0.00  0.00    +0.000 A 
ATOM     27  C   UNL     1      -3.958  13.913  23.887  0.00  0.00    +0.000 A 
ATOM     28  C   UNL     1      -3.538  14.792  22.871  0.00  0.00    +0.000 A 
ATOM     29  C   UNL     1      -2.545  14.416  21.928  0.00  0.00    +0.000 A 
ATOM     30  C   UNL     1      -1.964  13.153  22.015  0.00  0.00    +0.000 A 
ENDBRANCH  16  17
ENDBRANCH   1  16
TORSDOF 7
ENDMDL
MODEL 8
REMARK VINA RESULT:      -7.8      1.747      2.230
REMARK  Name = 
REMARK  7 active torsions:
REMARK  status: ('A' for Active; 'I' for Inactive)
REMARK    1  A    between atoms: C_2  and  C_3
REMARK    2  A    between atoms: C_3  and  C_4
REMARK    3  A    between atoms: N_6  and  C_7
REMARK    4  A    between atoms: C_7  and  C_8
REMARK    5  A    between atoms: C_8  and  C_9
REMARK    6  A    between atoms: C_9  and  C_10
REMARK    7  A    between atoms: C_10  and  N_11
REMARK                            x       y       z     vdW  Elec       q    Type
REMARK                         _______ _______ _______ _____ _____    ______ ____
ROOT
ATOM      1  C   UNL     1       8.564   8.409  18.704  0.00  0.00    +0.000 C 
ENDROOT
BRANCH   1   2
ATOM      2  C   UNL     1       9.033   9.865  19.092  0.00  0.00    +0.000 C 
BRANCH   2   3
ATOM      3  C   UNL     1       9.537  10.780  17.953  0.00  0.00    +0.000 C 
BRANCH   3   6
ATOM      4  C   UNL     1      10.544  14.045  19.313  0.00  0.00    +0.000 A 
ATOM      5  C   UNL     1      10.786  12.722  18.987  0.00  0.00    +0.000 A 
ATOM      6  N   UNL     1       9.708  12.211  18.282  0.00  0.00    +0.000 N 
ATOM      7  C   UNL     1       8.762  13.218  18.130  0.00  0.00    +0.000 A 
ATOM      8  C   UNL     1       7.505  13.216  17.517  0.00  0.00    +0.000 A 
ATOM      9  C   UNL     1       6.751  14.402  17.530  0.00  0.00    +0.000 A 
ATOM     10  C   UNL     1       7.236  15.551  18.147  0.00  0.00    +0.000 A 
ATOM     11  C   UNL     1       8.487  15.548  18.767  0.00  0.00    +0.000 A 
ATOM     12  C   UNL     1       9.266  14.365  18.765  0.00  0.00    +0.000 A 
BRANCH   4  13
ATOM     13  C   UNL     1      11.426  14.980  20.090  0.00  0.00    +0.000 C 
BRANCH  13  15
ATOM     14  F   UNL     1      10.569  16.807  21.289  0.00  0.00    +0.000 F 
ATOM     15  C   UNL     1      10.802  15.467  21.389  0.00  0.00    +0.000 C 
ENDBRANCH  13  15
ENDBRANCH   4  13
ENDBRANCH   3   6
ENDBRANCH   2   3
ENDBRANCH   1   2
BRANCH   1  16
ATOM     16  C   UNL     1       7.708   8.227  17.408  0.00  0.00    +0.000 C 
BRANCH  16  17
ATOM     17  N   UNL     1       7.004   6.919  17.199  0.00  0.00    +0.000 NA
ATOM     18  C   UNL     1       5.605   7.091  16.756  0.00  0.00    +0.000 C 
ATOM     19  C   UNL     1       4.816   5.753  16.696  0.00  0.00    +0.000 C 
ATOM     20  C   UNL     1       4.525   5.282  18.125  0.00  0.00    +0.000 C 
ATOM     21  C   UNL     1       5.810   5.453  18.992  0.00  0.00    +0.000 C 
ATOM     22  C   UNL     1       7.109   5.892  18.245  0.00  0.00    +0.000 C 
ATOM     23  O   UNL     1       3.571   6.275  18.676  0.00  0.00    +0.000 OA
ATOM     24  C   UNL     1       2.861   5.683  19.779  0.00  0.00    +0.000 C 
ATOM     25  C   UNL     1       2.743   4.275  19.343  0.00  0.00    +0.000 A 
ATOM     26  C   UNL     1       1.811   3.348  19.803  0.00  0.00    +0.000 A 
ATOM     27  C   UNL     1       1.763   2.106  19.189  0.00  0.00    +0.000 A 
ATOM     28  C   UNL     1       2.656   1.827  18.138  0.00  0.00    +0.000 A 
ATOM     29  C   UNL     1       3.623   2.777  17.713  0.00  0.00    +0.000 A 
ATOM     30  C   UNL     1       3.683   4.018  18.343  0.00  0.00    +0.000 A 
ENDBRANCH  16  17
ENDBRANCH   1  16
TORSDOF 7
ENDMDL
MODEL 9
REMARK VINA RESULT:      -7.8      6.074     10.773
REMARK  Name = 
REMARK  7 active torsions:
REMARK  status: ('A' for Active; 'I' for Inactive)
REMARK    1  A    between atoms: C_2  and  C_3
REMARK    2  A    between atoms: C_3  and  C_4
REMARK    3  A    between atoms: N_6  and  C_7
REMARK    4  A    between atoms: C_7  and  C_8
REMARK    5  A    between atoms: C_8  and  C_9
REMARK    6  A    between atoms: C_9  and  C_10
REMARK    7  A    between atoms: C_10  and  N_11
REMARK                            x       y       z     vdW  Elec       q    Type
REMARK                         _______ _______ _______ _____ _____    ______ ____
ROOT
ATOM      1  C   UNL     1       1.240   8.905  21.298  0.00  0.00    +0.000 C 
ENDROOT
BRANCH   1   2
ATOM      2  C   UNL     1       1.839   7.662  20.532  0.00  0.00    +0.000 C 
BRANCH   2   3
ATOM      3  C   UNL     1       2.023   7.786  19.002  0.00  0.00    +0.000 C 
BRANCH   3   6
ATOM      4  C   UNL     1       4.520   5.980  16.996  0.00  0.00    +0.000 A 
ATOM      5  C   UNL     1       4.044   7.108  17.641  0.00  0.00    +0.000 A 
ATOM      6  N   UNL     1       2.905   6.788  18.360  0.00  0.00    +0.000 N 
ATOM      7  C   UNL     1       2.646   5.432  18.198  0.00  0.00    +0.000 A 
ATOM      8  C   UNL     1       1.618   4.625  18.696  0.00  0.00    +0.000 A 
ATOM      9  C   UNL     1       1.607   3.263  18.346  0.00  0.00    +0.000 A 
ATOM     10  C   UNL     1       2.588   2.730  17.516  0.00  0.00    +0.000 A 
ATOM     11  C   UNL     1       3.608   3.540  17.013  0.00  0.00    +0.000 A 
ATOM     12  C   UNL     1       3.641   4.914  17.352  0.00  0.00    +0.000 A 
BRANCH   4  13
ATOM     13  C   UNL     1       5.714   5.868  16.092  0.00  0.00    +0.000 C 
BRANCH  13  15
ATOM     14  F   UNL     1       7.315   7.261  17.095  0.00  0.00    +0.000 F 
ATOM     15  C   UNL     1       7.044   5.952  16.826  0.00  0.00    +0.000 C 
ENDBRANCH  13  15
ENDBRANCH   4  13
ENDBRANCH   3   6
ENDBRANCH   2   3
ENDBRANCH   1   2
BRANCH   1  16
ATOM     16  C   UNL     1      -0.252   9.291  21.031  0.00  0.00    +0.000 C 
BRANCH  16  17
ATOM     17  N   UNL     1      -0.555  10.693  20.592  0.00  0.00    +0.000 NA
ATOM     18  C   UNL     1      -0.321  10.900  19.148  0.00  0.00    +0.000 C 
ATOM     19  C   UNL     1      -0.472  12.384  18.712  0.00  0.00    +0.000 C 
ATOM     20  C   UNL     1       0.730  13.180  19.233  0.00  0.00    +0.000 C 
ATOM     21  C   UNL     1       1.012  12.771  20.712  0.00  0.00    +0.000 C 
ATOM     22  C   UNL     1      -0.016  11.808  21.384  0.00  0.00    +0.000 C 
ATOM     23  O   UNL     1       1.897  12.666  18.476  0.00  0.00    +0.000 OA
ATOM     24  C   UNL     1       2.948  13.649  18.508  0.00  0.00    +0.000 C 
ATOM     25  C   UNL     1       2.182  14.913  18.484  0.00  0.00    +0.000 A 
ATOM     26  C   UNL     1       2.664  16.158  18.089  0.00  0.00    +0.000 A 
ATOM     27  C   UNL     1       1.768  17.213  18.007  0.00  0.00    +0.000 A 
ATOM     28  C   UNL     1       0.417  16.991  18.333  0.00  0.00    +0.000 A 
ATOM     29  C   UNL     1      -0.042  15.720  18.770  0.00  0.00    +0.000 A 
ATOM     30  C   UNL     1       0.862  14.665  18.869  0.00  0.00    +0.000 A 
ENDBRANCH  16  17
ENDBRANCH   1  16
TORSDOF 7
ENDMDL
