MODEL 1
REMARK VINA RESULT:      -8.7      0.000      0.000
REMARK  Name = 
REMARK  10 active torsions:
REMARK  status: ('A' for Active; 'I' for Inactive)
REMARK    1  A    between atoms: C_2  and  C_3
REMARK    2  A    between atoms: C_2  and  C_15
REMARK    3  A    between atoms: C_3  and  C_4
REMARK    4  A    between atoms: C_4  and  C_5
REMARK    5  A    between atoms: C_20  and  O_21
REMARK    6  A    between atoms: O_21  and  C_22
REMARK    7  A    between atoms: C_22  and  C_23
REMARK    8  A    between atoms: C_23  and  O_24
REMARK    9  A    between atoms: C_23  and  C_25
REMARK   10  A    between atoms: C_25  and  N_26
REMARK                            x       y       z     vdW  Elec       q    Type
REMARK                         _______ _______ _______ _____ _____    ______ ____
ROOT
ATOM      1  C   UNL     1       2.295   4.010  19.165  0.00  0.00    +0.000 A 
ATOM      2  C   UNL     1       1.424   3.938  20.275  0.00  0.00    +0.000 A 
ATOM      3  C   UNL     1       1.746   3.177  21.397  0.00  0.00    +0.000 A 
ATOM      4  C   UNL     1       2.958   2.508  21.442  0.00  0.00    +0.000 A 
ATOM      5  C   UNL     1       3.837   2.582  20.361  0.00  0.00    +0.000 A 
ATOM      6  C   UNL     1       3.507   3.297  19.192  0.00  0.00    +0.000 A 
ENDROOT
BRANCH   1   8
ATOM      7  O   UNL     1       1.032   4.397  17.231  0.00  0.00    +0.000 OA
ATOM      8  C   UNL     1       1.825   4.875  18.046  0.00  0.00    +0.000 C 
BRANCH   8   9
ATOM      9  C   UNL     1       2.309   6.300  17.875  0.00  0.00    +0.000 C 
BRANCH   9  10
ATOM     10  C   UNL     1       2.300   7.082  19.194  0.00  0.00    +0.000 C 
BRANCH  10  11
ATOM     11  C   UNL     1       1.776   8.511  19.135  0.00  0.00    +0.000 A 
ATOM     12  C   UNL     1       2.130   9.340  18.053  0.00  0.00    +0.000 A 
ATOM     13  C   UNL     1       1.792  10.688  18.035  0.00  0.00    +0.000 A 
ATOM     14  C   UNL     1       1.123  11.250  19.115  0.00  0.00    +0.000 A 
ATOM     15  C   UNL     1       0.753  10.463  20.212  0.00  0.00    +0.000 A 
ATOM     16  C   UNL     1       0.106  11.070  21.301  0.00  0.00    +0.000 A 
ATOM     17  C   UNL     1      -0.308  10.321  22.398  0.00  0.00    +0.000 A 
ATOM     18  C   UNL     1      -0.096   8.951  22.410  0.00  0.00    +0.000 A 
ATOM     19  C   UNL     1       0.574   8.338  21.346  0.00  0.00    +0.000 A 
ATOM     20  C   UNL     1       1.039   9.073  20.226  0.00  0.00    +0.000 A 
ENDBRANCH  10  11
ENDBRANCH   9  10
ENDBRANCH   8   9
ENDBRANCH   1   8
BRANCH   6  21
ATOM     21  O   UNL     1       4.340   3.327  18.093  0.00  0.00    +0.000 OA
BRANCH  21  22
ATOM     22  C   UNL     1       5.217   4.457  18.043  0.00  0.00    +0.000 C 
BRANCH  22  23
ATOM     23  C   UNL     1       6.407   4.287  17.086  0.00  0.00    +0.000 C 
BRANCH  23  24
ATOM     24  O   UNL     1       7.574   4.183  17.921  0.00  0.00    +0.000 OA
ATOM     25  H   UNL     1       8.318   3.903  17.361  0.00  0.00    +0.000 HD
ENDBRANCH  23  24
BRANCH  23  26
ATOM     26  C   UNL     1       6.545   5.463  16.085  0.00  0.00    +0.000 C 
BRANCH  26  27
ATOM     27  N   UNL     1       6.476   5.167  14.633  0.00  0.00    +0.000 NA
ATOM     28  C   UNL     1       7.745   5.389  13.926  0.00  0.00    +0.000 C 
ATOM     29  C   UNL     1       7.604   5.182  12.415  0.00  0.00    +0.000 C 
ATOM     30  C   UNL     1       7.031   3.805  12.101  0.00  0.00    +0.000 C 
ATOM     31  C   UNL     1       5.735   3.593  12.872  0.00  0.00    +0.000 C 
ATOM     32  C   UNL     1       5.946   3.821  14.372  0.00  0.00    +0.000 C 
ENDBRANCH  26  27
ENDBRANCH  23  26
ENDBRANCH  22  23
ENDBRANCH  21  22
ENDBRANCH   6  21
TORSDOF 10
ENDMDL
MODEL 2
REMARK VINA RESULT:      -8.4      1.370      1.688
REMARK  Name = 
REMARK  10 active torsions:
REMARK  status: ('A' for Active; 'I' for Inactive)
REMARK    1  A    between atoms: C_2  and  C_3
REMARK    2  A    between atoms: C_2  and  C_15
REMARK    3  A    between atoms: C_3  and  C_4
REMARK    4  A    between atoms: C_4  and  C_5
REMARK    5  A    between atoms: C_20  and  O_21
REMARK    6  A    between atoms: O_21  and  C_22
REMARK    7  A    between atoms: C_22  and  C_23
REMARK    8  A    between atoms: C_23  and  O_24
REMARK    9  A    between atoms: C_23  and  C_25
REMARK   10  A    between atoms: C_25  and  N_26
REMARK                            x       y       z     vdW  Elec       q    Type
REMARK                         _______ _______ _______ _____ _____    ______ ____
ROOT
ATOM      1  C   UNL     1       2.558   4.173  19.357  0.00  0.00    +0.000 A 
ATOM      2  C   UNL     1       1.379   3.446  19.080  0.00  0.00    +0.000 A 
ATOM      3  C   UNL     1       1.404   2.307  18.279  0.00  0.00    +0.000 A 
ATOM      4  C   UNL     1       2.612   1.854  17.775  0.00  0.00    +0.000 A 
ATOM      5  C   UNL     1       3.788   2.552  18.052  0.00  0.00    +0.000 A 
ATOM      6  C   UNL     1       3.779   3.740  18.810  0.00  0.00    +0.000 A 
ENDROOT
BRANCH   1   8
ATOM      7  O   UNL     1       2.301   5.177  21.458  0.00  0.00    +0.000 OA
ATOM      8  C   UNL     1       2.378   5.360  20.240  0.00  0.00    +0.000 C 
BRANCH   8   9
ATOM      9  C   UNL     1       2.264   6.764  19.684  0.00  0.00    +0.000 C 
BRANCH   9  10
ATOM     10  C   UNL     1       1.800   7.775  20.739  0.00  0.00    +0.000 C 
BRANCH  10  11
ATOM     11  C   UNL     1       1.037   8.991  20.229  0.00  0.00    +0.000 A 
ATOM     12  C   UNL     1       1.245   9.442  18.911  0.00  0.00    +0.000 A 
ATOM     13  C   UNL     1       0.681  10.627  18.455  0.00  0.00    +0.000 A 
ATOM     14  C   UNL     1      -0.077  11.411  19.317  0.00  0.00    +0.000 A 
ATOM     15  C   UNL     1      -0.308  11.001  20.636  0.00  0.00    +0.000 A 
ATOM     16  C   UNL     1      -1.051  11.833  21.489  0.00  0.00    +0.000 A 
ATOM     17  C   UNL     1      -1.332  11.451  22.798  0.00  0.00    +0.000 A 
ATOM     18  C   UNL     1      -0.887  10.223  23.262  0.00  0.00    +0.000 A 
ATOM     19  C   UNL     1      -0.120   9.398  22.432  0.00  0.00    +0.000 A 
ATOM     20  C   UNL     1       0.214   9.767  21.105  0.00  0.00    +0.000 A 
ENDBRANCH  10  11
ENDBRANCH   9  10
ENDBRANCH   8   9
ENDBRANCH   1   8
BRANCH   6  21
ATOM     21  O   UNL     1       4.926   4.472  19.038  0.00  0.00    +0.000 OA
BRANCH  21  22
ATOM     22  C   UNL     1       5.352   5.269  17.929  0.00  0.00    +0.000 C 
BRANCH  22  23
ATOM     23  C   UNL     1       6.454   4.622  17.077  0.00  0.00    +0.000 C 
BRANCH  23  24
ATOM     24  O   UNL     1       7.521   4.301  17.988  0.00  0.00    +0.000 OA
ATOM     25  H   UNL     1       7.121   3.956  18.805  0.00  0.00    +0.000 HD
ENDBRANCH  23  24
BRANCH  23  26
ATOM     26  C   UNL     1       6.958   5.549  15.940  0.00  0.00    +0.000 C 
BRANCH  26  27
ATOM     27  N   UNL     1       6.667   5.167  14.537  0.00  0.00    +0.000 NA
ATOM     28  C   UNL     1       7.827   5.289  13.642  0.00  0.00    +0.000 C 
ATOM     29  C   UNL     1       7.460   4.996  12.184  0.00  0.00    +0.000 C 
ATOM     30  C   UNL     1       6.799   3.629  12.049  0.00  0.00    +0.000 C 
ATOM     31  C   UNL     1       5.623   3.524  13.010  0.00  0.00    +0.000 C 
ATOM     32  C   UNL     1       6.058   3.833  14.445  0.00  0.00    +0.000 C 
ENDBRANCH  26  27
ENDBRANCH  23  26
ENDBRANCH  22  23
ENDBRANCH  21  22
ENDBRANCH   6  21
TORSDOF 10
ENDMDL
MODEL 3
REMARK VINA RESULT:      -8.2      4.663     10.275
REMARK  Name = 
REMARK  10 active torsions:
REMARK  status: ('A' for Active; 'I' for Inactive)
REMARK    1  A    between atoms: C_2  and  C_3
REMARK    2  A    between atoms: C_2  and  C_15
REMARK    3  A    between atoms: C_3  and  C_4
REMARK    4  A    between atoms: C_4  and  C_5
REMARK    5  A    between atoms: C_20  and  O_21
REMARK    6  A    between atoms: O_21  and  C_22
REMARK    7  A    between atoms: C_22  and  C_23
REMARK    8  A    between atoms: C_23  and  O_24
REMARK    9  A    between atoms: C_23  and  C_25
REMARK   10  A    between atoms: C_25  and  N_26
REMARK                            x       y       z     vdW  Elec       q    Type
REMARK                         _______ _______ _______ _____ _____    ______ ____
ROOT
ATOM      1  C   UNL     1       0.538  10.564  19.052  0.00  0.00    +0.000 A 
ATOM      2  C   UNL     1       1.044  11.024  20.288  0.00  0.00    +0.000 A 
ATOM      3  C   UNL     1       0.222  11.673  21.207  0.00  0.00    +0.000 A 
ATOM      4  C   UNL     1      -1.123  11.838  20.922  0.00  0.00    +0.000 A 
ATOM      5  C   UNL     1      -1.641  11.375  19.712  0.00  0.00    +0.000 A 
ATOM      6  C   UNL     1      -0.818  10.769  18.742  0.00  0.00    +0.000 A 
ENDROOT
BRANCH   1   8
ATOM      7  O   UNL     1       2.425  10.551  17.663  0.00  0.00    +0.000 OA
ATOM      8  C   UNL     1       1.531   9.875  18.179  0.00  0.00    +0.000 C 
BRANCH   8   9
ATOM      9  C   UNL     1       1.455   8.389  17.895  0.00  0.00    +0.000 C 
BRANCH   9  10
ATOM     10  C   UNL     1       2.695   7.635  18.391  0.00  0.00    +0.000 C 
BRANCH  10  11
ATOM     11  C   UNL     1       2.892   6.222  17.855  0.00  0.00    +0.000 A 
ATOM     12  C   UNL     1       1.888   5.255  18.052  0.00  0.00    +0.000 A 
ATOM     13  C   UNL     1       2.089   3.924  17.707  0.00  0.00    +0.000 A 
ATOM     14  C   UNL     1       3.314   3.519  17.192  0.00  0.00    +0.000 A 
ATOM     15  C   UNL     1       4.341   4.446  16.980  0.00  0.00    +0.000 A 
ATOM     16  C   UNL     1       5.577   3.998  16.488  0.00  0.00    +0.000 A 
ATOM     17  C   UNL     1       6.615   4.889  16.233  0.00  0.00    +0.000 A 
ATOM     18  C   UNL     1       6.421   6.244  16.453  0.00  0.00    +0.000 A 
ATOM     19  C   UNL     1       5.206   6.701  16.972  0.00  0.00    +0.000 A 
ATOM     20  C   UNL     1       4.137   5.820  17.274  0.00  0.00    +0.000 A 
ENDBRANCH  10  11
ENDBRANCH   9  10
ENDBRANCH   8   9
ENDBRANCH   1   8
BRANCH   6  21
ATOM     21  O   UNL     1      -1.306  10.363  17.517  0.00  0.00    +0.000 OA
BRANCH  21  22
ATOM     22  C   UNL     1      -2.679   9.959  17.530  0.00  0.00    +0.000 C 
BRANCH  22  23
ATOM     23  C   UNL     1      -3.553  10.673  16.486  0.00  0.00    +0.000 C 
BRANCH  23  24
ATOM     24  O   UNL     1      -2.640  11.293  15.564  0.00  0.00    +0.000 OA
ATOM     25  H   UNL     1      -2.704  12.256  15.681  0.00  0.00    +0.000 HD
ENDBRANCH  23  24
BRANCH  23  26
ATOM     26  C   UNL     1      -4.502  11.725  17.117  0.00  0.00    +0.000 C 
BRANCH  26  27
ATOM     27  N   UNL     1      -5.112  11.425  18.435  0.00  0.00    +0.000 NA
ATOM     28  C   UNL     1      -5.170  12.586  19.335  0.00  0.00    +0.000 C 
ATOM     29  C   UNL     1      -5.699  12.211  20.722  0.00  0.00    +0.000 C 
ATOM     30  C   UNL     1      -7.055  11.521  20.624  0.00  0.00    +0.000 C 
ATOM     31  C   UNL     1      -6.970  10.344  19.662  0.00  0.00    +0.000 C 
ATOM     32  C   UNL     1      -6.430  10.788  18.299  0.00  0.00    +0.000 C 
ENDBRANCH  26  27
ENDBRANCH  23  26
ENDBRANCH  22  23
ENDBRANCH  21  22
ENDBRANCH   6  21
TORSDOF 10
ENDMDL
MODEL 4
REMARK VINA RESULT:      -8.2      0.638      1.934
REMARK  Name = 
REMARK  10 active torsions:
REMARK  status: ('A' for Active; 'I' for Inactive)
REMARK    1  A    between atoms: C_2  and  C_3
REMARK    2  A    between atoms: C_2  and  C_15
REMARK    3  A    between atoms: C_3  and  C_4
REMARK    4  A    between atoms: C_4  and  C_5
REMARK    5  A    between atoms: C_20  and  O_21
REMARK    6  A    between atoms: O_21  and  C_22
REMARK    7  A    between atoms: C_22  and  C_23
REMARK    8  A    between atoms: C_23  and  O_24
REMARK    9  A    between atoms: C_23  and  C_25
REMARK   10  A    between atoms: C_25  and  N_26
REMARK                            x       y       z     vdW  Elec       q    Type
REMARK                         _______ _______ _______ _____ _____    ______ ____
ROOT
ATOM      1  C   UNL     1       2.111   3.914  19.192  0.00  0.00    +0.000 A 
ATOM      2  C   UNL     1       1.158   3.839  20.233  0.00  0.00    +0.000 A 
ATOM      3  C   UNL     1       1.425   3.137  21.406  0.00  0.00    +0.000 A 
ATOM      4  C   UNL     1       2.661   2.533  21.574  0.00  0.00    +0.000 A 
ATOM      5  C   UNL     1       3.618   2.612  20.562  0.00  0.00    +0.000 A 
ATOM      6  C   UNL     1       3.349   3.264  19.343  0.00  0.00    +0.000 A 
ENDROOT
BRANCH   1   8
ATOM      7  O   UNL     1       1.023   4.153  17.131  0.00  0.00    +0.000 OA
ATOM      8  C   UNL     1       1.690   4.712  18.005  0.00  0.00    +0.000 C 
BRANCH   8   9
ATOM      9  C   UNL     1       2.077   6.167  17.838  0.00  0.00    +0.000 C 
BRANCH   9  10
ATOM     10  C   UNL     1       2.707   6.752  19.107  0.00  0.00    +0.000 C 
BRANCH  10  11
ATOM     11  C   UNL     1       1.851   7.728  19.905  0.00  0.00    +0.000 A 
ATOM     12  C   UNL     1       1.179   7.283  21.061  0.00  0.00    +0.000 A 
ATOM     13  C   UNL     1       0.278   8.100  21.732  0.00  0.00    +0.000 A 
ATOM     14  C   UNL     1      -0.004   9.370  21.244  0.00  0.00    +0.000 A 
ATOM     15  C   UNL     1       0.639   9.852  20.098  0.00  0.00    +0.000 A 
ATOM     16  C   UNL     1       0.306  11.127  19.613  0.00  0.00    +0.000 A 
ATOM     17  C   UNL     1       0.943  11.659  18.496  0.00  0.00    +0.000 A 
ATOM     18  C   UNL     1       1.933  10.926  17.860  0.00  0.00    +0.000 A 
ATOM     19  C   UNL     1       2.253   9.643  18.314  0.00  0.00    +0.000 A 
ATOM     20  C   UNL     1       1.604   9.055  19.428  0.00  0.00    +0.000 A 
ENDBRANCH  10  11
ENDBRANCH   9  10
ENDBRANCH   8   9
ENDBRANCH   1   8
BRANCH   6  21
ATOM     21  O   UNL     1       4.264   3.296  18.311  0.00  0.00    +0.000 OA
BRANCH  21  22
ATOM     22  C   UNL     1       5.341   4.219  18.501  0.00  0.00    +0.000 C 
BRANCH  22  23
ATOM     23  C   UNL     1       6.352   4.252  17.343  0.00  0.00    +0.000 C 
BRANCH  23  24
ATOM     24  O   UNL     1       7.652   4.314  17.957  0.00  0.00    +0.000 OA
ATOM     25  H   UNL     1       7.969   3.403  18.079  0.00  0.00    +0.000 HD
ENDBRANCH  23  24
BRANCH  23  26
ATOM     26  C   UNL     1       6.132   5.453  16.388  0.00  0.00    +0.000 C 
BRANCH  26  27
ATOM     27  N   UNL     1       6.174   5.209  14.926  0.00  0.00    +0.000 NA
ATOM     28  C   UNL     1       7.538   5.113  14.384  0.00  0.00    +0.000 C 
ATOM     29  C   UNL     1       7.540   4.975  12.858  0.00  0.00    +0.000 C 
ATOM     30  C   UNL     1       6.686   3.794  12.413  0.00  0.00    +0.000 C 
ATOM     31  C   UNL     1       5.292   3.906  13.016  0.00  0.00    +0.000 C 
ATOM     32  C   UNL     1       5.362   4.046  14.539  0.00  0.00    +0.000 C 
ENDBRANCH  26  27
ENDBRANCH  23  26
ENDBRANCH  22  23
ENDBRANCH  21  22
ENDBRANCH   6  21
TORSDOF 10
ENDMDL
MODEL 5
REMARK VINA RESULT:      -8.1      5.149      7.685
REMARK  Name = 
REMARK  10 active torsions:
REMARK  status: ('A' for Active; 'I' for Inactive)
REMARK    1  A    between atoms: C_2  and  C_3
REMARK    2  A    between atoms: C_2  and  C_15
REMARK    3  A    between atoms: C_3  and  C_4
REMARK    4  A    between atoms: C_4  and  C_5
REMARK    5  A    between atoms: C_20  and  O_21
REMARK    6  A    between atoms: O_21  and  C_22
REMARK    7  A    between atoms: C_22  and  C_23
REMARK    8  A    between atoms: C_23  and  O_24
REMARK    9  A    between atoms: C_23  and  C_25
REMARK   10  A    between atoms: C_25  and  N_26
REMARK                            x       y       z     vdW  Elec       q    Type
REMARK                         _______ _______ _______ _____ _____    ______ ____
ROOT
ATOM      1  C   UNL     1       6.872   6.330  17.033  0.00  0.00    +0.000 A 
ATOM      2  C   UNL     1       7.607   5.654  16.035  0.00  0.00    +0.000 A 
ATOM      3  C   UNL     1       6.966   4.928  15.034  0.00  0.00    +0.000 A 
ATOM      4  C   UNL     1       5.582   4.896  14.994  0.00  0.00    +0.000 A 
ATOM      5  C   UNL     1       4.841   5.571  15.964  0.00  0.00    +0.000 A 
ATOM      6  C   UNL     1       5.467   6.262  17.020  0.00  0.00    +0.000 A 
ENDROOT
BRANCH   1   8
ATOM      7  O   UNL     1       8.082   6.480  19.034  0.00  0.00    +0.000 OA
ATOM      8  C   UNL     1       7.693   7.078  18.028  0.00  0.00    +0.000 C 
BRANCH   8   9
ATOM      9  C   UNL     1       8.036   8.542  17.846  0.00  0.00    +0.000 C 
BRANCH   9  10
ATOM     10  C   UNL     1       8.861   9.098  19.012  0.00  0.00    +0.000 C 
BRANCH  10  11
ATOM     11  C   UNL     1       9.371  10.526  18.865  0.00  0.00    +0.000 A 
ATOM     12  C   UNL     1       9.969  10.933  17.657  0.00  0.00    +0.000 A 
ATOM     13  C   UNL     1      10.575  12.177  17.532  0.00  0.00    +0.000 A 
ATOM     14  C   UNL     1      10.631  13.033  18.625  0.00  0.00    +0.000 A 
ATOM     15  C   UNL     1      10.050  12.670  19.846  0.00  0.00    +0.000 A 
ATOM     16  C   UNL     1      10.153  13.545  20.939  0.00  0.00    +0.000 A 
ATOM     17  C   UNL     1       9.564  13.239  22.162  0.00  0.00    +0.000 A 
ATOM     18  C   UNL     1       8.850  12.059  22.300  0.00  0.00    +0.000 A 
ATOM     19  C   UNL     1       8.765  11.163  21.229  0.00  0.00    +0.000 A 
ATOM     20  C   UNL     1       9.379  11.426  19.978  0.00  0.00    +0.000 A 
ENDBRANCH  10  11
ENDBRANCH   9  10
ENDBRANCH   8   9
ENDBRANCH   1   8
BRANCH   6  21
ATOM     21  O   UNL     1       4.746   6.881  18.020  0.00  0.00    +0.000 OA
BRANCH  21  22
ATOM     22  C   UNL     1       3.598   7.605  17.563  0.00  0.00    +0.000 C 
BRANCH  22  23
ATOM     23  C   UNL     1       2.331   7.366  18.399  0.00  0.00    +0.000 C 
BRANCH  23  24
ATOM     24  O   UNL     1       1.908   8.663  18.854  0.00  0.00    +0.000 OA
ATOM     25  H   UNL     1       0.969   8.601  19.103  0.00  0.00    +0.000 HD
ENDBRANCH  23  24
BRANCH  23  26
ATOM     26  C   UNL     1       2.573   6.410  19.596  0.00  0.00    +0.000 C 
BRANCH  26  27
ATOM     27  N   UNL     1       1.912   5.082  19.583  0.00  0.00    +0.000 NA
ATOM     28  C   UNL     1       2.358   4.213  18.484  0.00  0.00    +0.000 C 
ATOM     29  C   UNL     1       1.573   2.899  18.437  0.00  0.00    +0.000 C 
ATOM     30  C   UNL     1       1.639   2.173  19.776  0.00  0.00    +0.000 C 
ATOM     31  C   UNL     1       1.203   3.108  20.896  0.00  0.00    +0.000 C 
ATOM     32  C   UNL     1       2.022   4.401  20.881  0.00  0.00    +0.000 C 
ENDBRANCH  26  27
ENDBRANCH  23  26
ENDBRANCH  22  23
ENDBRANCH  21  22
ENDBRANCH   6  21
TORSDOF 10
ENDMDL
MODEL 6
REMARK VINA RESULT:      -8.0      1.869      3.016
REMARK  Name = 
REMARK  10 active torsions:
REMARK  status: ('A' for Active; 'I' for Inactive)
REMARK    1  A    between atoms: C_2  and  C_3
REMARK    2  A    between atoms: C_2  and  C_15
REMARK    3  A    between atoms: C_3  and  C_4
REMARK    4  A    between atoms: C_4  and  C_5
REMARK    5  A    between atoms: C_20  and  O_21
REMARK    6  A    between atoms: O_21  and  C_22
REMARK    7  A    between atoms: C_22  and  C_23
REMARK    8  A    between atoms: C_23  and  O_24
REMARK    9  A    between atoms: C_23  and  C_25
REMARK   10  A    between atoms: C_25  and  N_26
REMARK                            x       y       z     vdW  Elec       q    Type
REMARK                         _______ _______ _______ _____ _____    ______ ____
ROOT
ATOM      1  C   UNL     1       2.780   4.314  18.816  0.00  0.00    +0.000 A 
ATOM      2  C   UNL     1       1.556   4.071  19.478  0.00  0.00    +0.000 A 
ATOM      3  C   UNL     1       0.883   2.861  19.328  0.00  0.00    +0.000 A 
ATOM      4  C   UNL     1       1.440   1.863  18.546  0.00  0.00    +0.000 A 
ATOM      5  C   UNL     1       2.656   2.081  17.899  0.00  0.00    +0.000 A 
ATOM      6  C   UNL     1       3.326   3.318  17.987  0.00  0.00    +0.000 A 
ENDROOT
BRANCH   1   8
ATOM      7  O   UNL     1       4.514   5.684  19.596  0.00  0.00    +0.000 OA
ATOM      8  C   UNL     1       3.392   5.647  19.085  0.00  0.00    +0.000 C 
BRANCH   8   9
ATOM      9  C   UNL     1       2.668   6.940  18.770  0.00  0.00    +0.000 C 
BRANCH   9  10
ATOM     10  C   UNL     1       2.016   7.561  20.011  0.00  0.00    +0.000 C 
BRANCH  10  11
ATOM     11  C   UNL     1       1.278   8.878  19.806  0.00  0.00    +0.000 A 
ATOM     12  C   UNL     1       1.450   9.594  18.606  0.00  0.00    +0.000 A 
ATOM     13  C   UNL     1       0.911  10.864  18.438  0.00  0.00    +0.000 A 
ATOM     14  C   UNL     1       0.218  11.467  19.481  0.00  0.00    +0.000 A 
ATOM     15  C   UNL     1       0.025  10.792  20.692  0.00  0.00    +0.000 A 
ATOM     16  C   UNL     1      -0.652  11.442  21.736  0.00  0.00    +0.000 A 
ATOM     17  C   UNL     1      -0.895  10.799  22.946  0.00  0.00    +0.000 A 
ATOM     18  C   UNL     1      -0.476   9.488  23.118  0.00  0.00    +0.000 A 
ATOM     19  C   UNL     1       0.226   8.839  22.098  0.00  0.00    +0.000 A 
ATOM     20  C   UNL     1       0.520   9.472  20.864  0.00  0.00    +0.000 A 
ENDBRANCH  10  11
ENDBRANCH   9  10
ENDBRANCH   8   9
ENDBRANCH   1   8
BRANCH   6  21
ATOM     21  O   UNL     1       4.497   3.567  17.302  0.00  0.00    +0.000 OA
BRANCH  21  22
ATOM     22  C   UNL     1       4.315   3.962  15.939  0.00  0.00    +0.000 C 
BRANCH  22  23
ATOM     23  C   UNL     1       5.620   4.304  15.204  0.00  0.00    +0.000 C 
BRANCH  23  24
ATOM     24  O   UNL     1       5.742   3.338  14.145  0.00  0.00    +0.000 OA
ATOM     25  H   UNL     1       6.054   2.504  14.536  0.00  0.00    +0.000 HD
ENDBRANCH  23  24
BRANCH  23  26
ATOM     26  C   UNL     1       6.861   4.266  16.133  0.00  0.00    +0.000 C 
BRANCH  26  27
ATOM     27  N   UNL     1       7.008   5.330  17.157  0.00  0.00    +0.000 NA
ATOM     28  C   UNL     1       7.921   4.971  18.252  0.00  0.00    +0.000 C 
ATOM     29  C   UNL     1       7.959   6.044  19.343  0.00  0.00    +0.000 C 
ATOM     30  C   UNL     1       8.307   7.408  18.759  0.00  0.00    +0.000 C 
ATOM     31  C   UNL     1       7.365   7.737  17.608  0.00  0.00    +0.000 C 
ATOM     32  C   UNL     1       7.372   6.622  16.559  0.00  0.00    +0.000 C 
ENDBRANCH  26  27
ENDBRANCH  23  26
ENDBRANCH  22  23
ENDBRANCH  21  22
ENDBRANCH   6  21
TORSDOF 10
ENDMDL
MODEL 7
REMARK VINA RESULT:      -8.0      4.761      9.992
REMARK  Name = 
REMARK  10 active torsions:
REMARK  status: ('A' for Active; 'I' for Inactive)
REMARK    1  A    between atoms: C_2  and  C_3
REMARK    2  A    between atoms: C_2  and  C_15
REMARK    3  A    between atoms: C_3  and  C_4
REMARK    4  A    between atoms: C_4  and  C_5
REMARK    5  A    between atoms: C_20  and  O_21
REMARK    6  A    between atoms: O_21  and  C_22
REMARK    7  A    between atoms: C_22  and  C_23
REMARK    8  A    between atoms: C_23  and  O_24
REMARK    9  A    between atoms: C_23  and  C_25
REMARK   10  A    between atoms: C_25  and  N_26
REMARK                            x       y       z     vdW  Elec       q    Type
REMARK                         _______ _______ _______ _____ _____    ______ ____
ROOT
ATOM      1  C   UNL     1      -0.582  10.591  21.259  0.00  0.00    +0.000 A 
ATOM      2  C   UNL     1      -0.613  11.151  22.555  0.00  0.00    +0.000 A 
ATOM      3  C   UNL     1      -1.012  12.470  22.763  0.00  0.00    +0.000 A 
ATOM      4  C   UNL     1      -1.420  13.236  21.684  0.00  0.00    +0.000 A 
ATOM      5  C   UNL     1      -1.410  12.693  20.399  0.00  0.00    +0.000 A 
ATOM      6  C   UNL     1      -0.955  11.382  20.157  0.00  0.00    +0.000 A 
ENDROOT
BRANCH   1   8
ATOM      7  O   UNL     1      -0.810   8.326  21.812  0.00  0.00    +0.000 OA
ATOM      8  C   UNL     1      -0.150   9.166  21.195  0.00  0.00    +0.000 C 
BRANCH   8   9
ATOM      9  C   UNL     1       1.078   8.734  20.420  0.00  0.00    +0.000 C 
BRANCH   9  10
ATOM     10  C   UNL     1       1.581   7.350  20.847  0.00  0.00    +0.000 C 
BRANCH  10  11
ATOM     11  C   UNL     1       2.273   6.517  19.776  0.00  0.00    +0.000 A 
ATOM     12  C   UNL     1       3.091   7.150  18.820  0.00  0.00    +0.000 A 
ATOM     13  C   UNL     1       3.622   6.447  17.745  0.00  0.00    +0.000 A 
ATOM     14  C   UNL     1       3.319   5.102  17.577  0.00  0.00    +0.000 A 
ATOM     15  C   UNL     1       2.509   4.433  18.503  0.00  0.00    +0.000 A 
ATOM     16  C   UNL     1       2.196   3.081  18.286  0.00  0.00    +0.000 A 
ATOM     17  C   UNL     1       1.421   2.369  19.196  0.00  0.00    +0.000 A 
ATOM     18  C   UNL     1       0.964   2.998  20.344  0.00  0.00    +0.000 A 
ATOM     19  C   UNL     1       1.242   4.352  20.557  0.00  0.00    +0.000 A 
ATOM     20  C   UNL     1       2.001   5.118  19.638  0.00  0.00    +0.000 A 
ENDBRANCH  10  11
ENDBRANCH   9  10
ENDBRANCH   8   9
ENDBRANCH   1   8
BRANCH   6  21
ATOM     21  O   UNL     1      -0.881  10.855  18.884  0.00  0.00    +0.000 OA
BRANCH  21  22
ATOM     22  C   UNL     1      -2.128  10.381  18.365  0.00  0.00    +0.000 C 
BRANCH  22  23
ATOM     23  C   UNL     1      -2.461  10.901  16.958  0.00  0.00    +0.000 C 
BRANCH  23  24
ATOM     24  O   UNL     1      -1.904  12.226  16.885  0.00  0.00    +0.000 OA
ATOM     25  H   UNL     1      -1.536  12.347  15.993  0.00  0.00    +0.000 HD
ENDBRANCH  23  24
BRANCH  23  26
ATOM     26  C   UNL     1      -3.984  10.924  16.670  0.00  0.00    +0.000 C 
BRANCH  26  27
ATOM     27  N   UNL     1      -4.876  11.600  17.643  0.00  0.00    +0.000 NA
ATOM     28  C   UNL     1      -5.782  12.582  17.028  0.00  0.00    +0.000 C 
ATOM     29  C   UNL     1      -6.604  13.339  18.076  0.00  0.00    +0.000 C 
ATOM     30  C   UNL     1      -7.365  12.374  18.977  0.00  0.00    +0.000 C 
ATOM     31  C   UNL     1      -6.406  11.353  19.573  0.00  0.00    +0.000 C 
ATOM     32  C   UNL     1      -5.614  10.638  18.474  0.00  0.00    +0.000 C 
ENDBRANCH  26  27
ENDBRANCH  23  26
ENDBRANCH  22  23
ENDBRANCH  21  22
ENDBRANCH   6  21
TORSDOF 10
ENDMDL
MODEL 8
REMARK VINA RESULT:      -8.0      4.104      8.714
REMARK  Name = 
REMARK  10 active torsions:
REMARK  status: ('A' for Active; 'I' for Inactive)
REMARK    1  A    between atoms: C_2  and  C_3
REMARK    2  A    between atoms: C_2  and  C_15
REMARK    3  A    between atoms: C_3  and  C_4
REMARK    4  A    between atoms: C_4  and  C_5
REMARK    5  A    between atoms: C_20  and  O_21
REMARK    6  A    between atoms: O_21  and  C_22
REMARK    7  A    between atoms: C_22  and  C_23
REMARK    8  A    between atoms: C_23  and  O_24
REMARK    9  A    between atoms: C_23  and  C_25
REMARK   10  A    between atoms: C_25  and  N_26
REMARK                            x       y       z     vdW  Elec       q    Type
REMARK                         _______ _______ _______ _____ _____    ______ ____
ROOT
ATOM      1  C   UNL     1       1.006   9.502  20.007  0.00  0.00    +0.000 A 
ATOM      2  C   UNL     1       0.720   8.278  20.651  0.00  0.00    +0.000 A 
ATOM      3  C   UNL     1       0.121   8.247  21.909  0.00  0.00    +0.000 A 
ATOM      4  C   UNL     1      -0.234   9.436  22.524  0.00  0.00    +0.000 A 
ATOM      5  C   UNL     1       0.028  10.653  21.894  0.00  0.00    +0.000 A 
ATOM      6  C   UNL     1       0.686  10.711  20.650  0.00  0.00    +0.000 A 
ENDROOT
BRANCH   1   8
ATOM      7  O   UNL     1       1.928  10.411  18.054  0.00  0.00    +0.000 OA
ATOM      8  C   UNL     1       1.632   9.377  18.659  0.00  0.00    +0.000 C 
BRANCH   8   9
ATOM      9  C   UNL     1       1.887   8.031  18.015  0.00  0.00    +0.000 C 
BRANCH   9  10
ATOM     10  C   UNL     1       3.189   7.386  18.506  0.00  0.00    +0.000 C 
BRANCH  10  11
ATOM     11  C   UNL     1       3.393   5.916  18.161  0.00  0.00    +0.000 A 
ATOM     12  C   UNL     1       4.243   5.561  17.095  0.00  0.00    +0.000 A 
ATOM     13  C   UNL     1       4.343   4.246  16.658  0.00  0.00    +0.000 A 
ATOM     14  C   UNL     1       3.568   3.257  17.251  0.00  0.00    +0.000 A 
ATOM     15  C   UNL     1       2.709   3.565  18.312  0.00  0.00    +0.000 A 
ATOM     16  C   UNL     1       1.916   2.547  18.867  0.00  0.00    +0.000 A 
ATOM     17  C   UNL     1       1.071   2.802  19.944  0.00  0.00    +0.000 A 
ATOM     18  C   UNL     1       1.024   4.076  20.489  0.00  0.00    +0.000 A 
ATOM     19  C   UNL     1       1.785   5.105  19.927  0.00  0.00    +0.000 A 
ATOM     20  C   UNL     1       2.632   4.892  18.810  0.00  0.00    +0.000 A 
ENDBRANCH  10  11
ENDBRANCH   9  10
ENDBRANCH   8   9
ENDBRANCH   1   8
BRANCH   6  21
ATOM     21  O   UNL     1       1.006  11.910  20.045  0.00  0.00    +0.000 OA
BRANCH  21  22
ATOM     22  C   UNL     1       0.133  12.994  20.378  0.00  0.00    +0.000 C 
BRANCH  22  23
ATOM     23  C   UNL     1      -0.978  13.246  19.346  0.00  0.00    +0.000 C 
BRANCH  23  24
ATOM     24  O   UNL     1      -1.234  14.661  19.380  0.00  0.00    +0.000 OA
ATOM     25  H   UNL     1      -2.007  14.838  18.816  0.00  0.00    +0.000 HD
ENDBRANCH  23  24
BRANCH  23  26
ATOM     26  C   UNL     1      -2.269  12.441  19.645  0.00  0.00    +0.000 C 
BRANCH  26  27
ATOM     27  N   UNL     1      -2.710  11.423  18.660  0.00  0.00    +0.000 NA
ATOM     28  C   UNL     1      -3.870  11.841  17.860  0.00  0.00    +0.000 C 
ATOM     29  C   UNL     1      -4.364  10.722  16.938  0.00  0.00    +0.000 C 
ATOM     30  C   UNL     1      -3.238  10.206  16.049  0.00  0.00    +0.000 C 
ATOM     31  C   UNL     1      -2.041   9.812  16.904  0.00  0.00    +0.000 C 
ATOM     32  C   UNL     1      -1.604  10.972  17.803  0.00  0.00    +0.000 C 
ENDBRANCH  26  27
ENDBRANCH  23  26
ENDBRANCH  22  23
ENDBRANCH  21  22
ENDBRANCH   6  21
TORSDOF 10
ENDMDL
MODEL 9
REMARK VINA RESULT:      -7.9      4.178      9.205
REMARK  Name = 
REMARK  10 active torsions:
REMARK  status: ('A' for Active; 'I' for Inactive)
REMARK    1  A    between atoms: C_2  and  C_3
REMARK    2  A    between atoms: C_2  and  C_15
REMARK    3  A    between atoms: C_3  and  C_4
REMARK    4  A    between atoms: C_4  and  C_5
REMARK    5  A    between atoms: C_20  and  O_21
REMARK    6  A    between atoms: O_21  and  C_22
REMARK    7  A    between atoms: C_22  and  C_23
REMARK    8  A    between atoms: C_23  and  O_24
REMARK    9  A    between atoms: C_23  and  C_25
REMARK   10  A    between atoms: C_25  and  N_26
REMARK                            x       y       z     vdW  Elec       q    Type
REMARK                         _______ _______ _______ _____ _____    ______ ____
ROOT
ATOM      1  C   UNL     1       0.963   9.905  20.077  0.00  0.00    +0.000 A 
ATOM      2  C   UNL     1       0.657   8.655  20.658  0.00  0.00    +0.000 A 
ATOM      3  C   UNL     1       0.068   8.569  21.918  0.00  0.00    +0.000 A 
ATOM      4  C   UNL     1      -0.258   9.731  22.599  0.00  0.00    +0.000 A 
ATOM      5  C   UNL     1       0.024  10.974  22.032  0.00  0.00    +0.000 A 
ATOM      6  C   UNL     1       0.673  11.085  20.786  0.00  0.00    +0.000 A 
ENDROOT
BRANCH   1   8
ATOM      7  O   UNL     1       1.983  10.887  18.210  0.00  0.00    +0.000 OA
ATOM      8  C   UNL     1       1.576   9.840  18.720  0.00  0.00    +0.000 C 
BRANCH   8   9
ATOM      9  C   UNL     1       1.688   8.539  17.952  0.00  0.00    +0.000 C 
BRANCH   9  10
ATOM     10  C   UNL     1       2.915   7.719  18.368  0.00  0.00    +0.000 C 
BRANCH  10  11
ATOM     11  C   UNL     1       2.981   6.285  17.857  0.00  0.00    +0.000 A 
ATOM     12  C   UNL     1       1.912   5.404  18.111  0.00  0.00    +0.000 A 
ATOM     13  C   UNL     1       1.995   4.055  17.789  0.00  0.00    +0.000 A 
ATOM     14  C   UNL     1       3.164   3.544  17.239  0.00  0.00    +0.000 A 
ATOM     15  C   UNL     1       4.252   4.383  16.971  0.00  0.00    +0.000 A 
ATOM     16  C   UNL     1       5.430   3.828  16.445  0.00  0.00    +0.000 A 
ATOM     17  C   UNL     1       6.525   4.629  16.134  0.00  0.00    +0.000 A 
ATOM     18  C   UNL     1       6.446   6.000  16.330  0.00  0.00    +0.000 A 
ATOM     19  C   UNL     1       5.291   6.562  16.882  0.00  0.00    +0.000 A 
ATOM     20  C   UNL     1       4.168   5.774  17.241  0.00  0.00    +0.000 A 
ENDBRANCH  10  11
ENDBRANCH   9  10
ENDBRANCH   8   9
ENDBRANCH   1   8
BRANCH   6  21
ATOM     21  O   UNL     1       1.013  12.307  20.244  0.00  0.00    +0.000 OA
BRANCH  21  22
ATOM     22  C   UNL     1       0.122  13.375  20.582  0.00  0.00    +0.000 C 
BRANCH  22  23
ATOM     23  C   UNL     1      -0.957  13.651  19.523  0.00  0.00    +0.000 C 
BRANCH  23  24
ATOM     24  O   UNL     1      -1.163  15.075  19.532  0.00  0.00    +0.000 OA
ATOM     25  H   UNL     1      -1.753  15.297  18.791  0.00  0.00    +0.000 HD
ENDBRANCH  23  24
BRANCH  23  26
ATOM     26  C   UNL     1      -2.283  12.899  19.806  0.00  0.00    +0.000 C 
BRANCH  26  27
ATOM     27  N   UNL     1      -2.602  11.700  18.992  0.00  0.00    +0.000 NA
ATOM     28  C   UNL     1      -3.976  11.690  18.471  0.00  0.00    +0.000 C 
ATOM     29  C   UNL     1      -4.302  10.388  17.734  0.00  0.00    +0.000 C 
ATOM     30  C   UNL     1      -3.290  10.116  16.627  0.00  0.00    +0.000 C 
ATOM     31  C   UNL     1      -1.876  10.165  17.192  0.00  0.00    +0.000 C 
ATOM     32  C   UNL     1      -1.621  11.488  17.918  0.00  0.00    +0.000 C 
ENDBRANCH  26  27
ENDBRANCH  23  26
ENDBRANCH  22  23
ENDBRANCH  21  22
ENDBRANCH   6  21
TORSDOF 10
ENDMDL
