MODEL 1
REMARK VINA RESULT:      -8.6      0.000      0.000
REMARK  Name = 
REMARK  4 active torsions:
REMARK  status: ('A' for Active; 'I' for Inactive)
REMARK    1  A    between atoms: N_3  and  C_4
REMARK    2  A    between atoms: C_7  and  O_8
REMARK    3  A    between atoms: O_8  and  C_9
REMARK    4  A    between atoms: N_20  and  C_21
REMARK                            x       y       z     vdW  Elec       q    Type
REMARK                         _______ _______ _______ _____ _____    ______ ____
ROOT
ATOM      1  C   UNL     1       7.730   6.899  18.343  0.00  0.00    +0.000 A 
ATOM      2  C   UNL     1       6.950   6.863  17.192  0.00  0.00    +0.000 A 
ATOM      3  C   UNL     1       6.105   5.786  16.923  0.00  0.00    +0.000 A 
ATOM      4  C   UNL     1       6.040   4.709  17.805  0.00  0.00    +0.000 A 
ATOM      5  C   UNL     1       6.797   4.740  18.975  0.00  0.00    +0.000 A 
ATOM      6  C   UNL     1       7.661   5.815  19.234  0.00  0.00    +0.000 A 
ENDROOT
BRANCH   1   9
ATOM      7  O   UNL     1       7.447   9.760  17.659  0.00  0.00    +0.000 OA
ATOM      8  C   UNL     1       8.411   9.298  18.264  0.00  0.00    +0.000 C 
ATOM      9  N   UNL     1       8.593   7.976  18.648  0.00  0.00    +0.000 N 
ATOM     10  N   UNL     1       9.453  10.090  18.675  0.00  0.00    +0.000 N 
ATOM     11  H   UNL     1       9.331   7.794  19.308  0.00  0.00    +0.000 HD
ATOM     12  H   UNL     1      10.277   9.611  19.001  0.00  0.00    +0.000 HD
BRANCH  10  13
ATOM     13  C   UNL     1       9.581  11.524  18.387  0.00  0.00    +0.000 C 
ATOM     14  C   UNL     1       9.445  12.425  19.628  0.00  0.00    +0.000 C 
ATOM     15  C   UNL     1      10.494  12.066  20.675  0.00  0.00    +0.000 C 
ATOM     16  C   UNL     1      11.902  12.220  20.105  0.00  0.00    +0.000 C 
ATOM     17  C   UNL     1      12.088  11.488  18.774  0.00  0.00    +0.000 C 
ATOM     18  C   UNL     1      10.965  11.774  17.770  0.00  0.00    +0.000 C 
ENDBRANCH  10  13
ENDBRANCH   1   9
BRANCH   4  19
ATOM     19  O   UNL     1       5.166   3.703  17.465  0.00  0.00    +0.000 OA
BRANCH  19  20
ATOM     20  C   UNL     1       3.881   3.751  17.984  0.00  0.00    +0.000 A 
ATOM     21  N   UNL     1       2.878   4.353  17.295  0.00  0.00    +0.000 NA
ATOM     22  C   UNL     1       1.642   4.327  17.824  0.00  0.00    +0.000 A 
ATOM     23  N   UNL     1       1.256   3.791  18.996  0.00  0.00    +0.000 NA
ATOM     24  C   UNL     1       2.296   3.257  19.653  0.00  0.00    +0.000 A 
ATOM     25  N   UNL     1       2.270   2.648  20.874  0.00  0.00    +0.000 N 
ATOM     26  N   UNL     1       3.476   2.201  21.284  0.00  0.00    +0.000 NA
ATOM     27  C   UNL     1       4.289   2.542  20.275  0.00  0.00    +0.000 A 
ATOM     28  C   UNL     1       3.611   3.203  19.232  0.00  0.00    +0.000 A 
ATOM     29  H   UNL     1       1.461   2.509  21.468  0.00  0.00    +0.000 HD
ENDBRANCH  19  20
ENDBRANCH   4  19
TORSDOF 4
ENDMDL
MODEL 2
REMARK VINA RESULT:      -8.3      0.661      2.005
REMARK  Name = 
REMARK  4 active torsions:
REMARK  status: ('A' for Active; 'I' for Inactive)
REMARK    1  A    between atoms: N_3  and  C_4
REMARK    2  A    between atoms: C_7  and  O_8
REMARK    3  A    between atoms: O_8  and  C_9
REMARK    4  A    between atoms: N_20  and  C_21
REMARK                            x       y       z     vdW  Elec       q    Type
REMARK                         _______ _______ _______ _____ _____    ______ ____
ROOT
ATOM      1  C   UNL     1       7.858   7.006  18.431  0.00  0.00    +0.000 A 
ATOM      2  C   UNL     1       7.902   5.821  19.159  0.00  0.00    +0.000 A 
ATOM      3  C   UNL     1       7.080   4.741  18.833  0.00  0.00    +0.000 A 
ATOM      4  C   UNL     1       6.180   4.838  17.774  0.00  0.00    +0.000 A 
ATOM      5  C   UNL     1       6.141   6.010  17.020  0.00  0.00    +0.000 A 
ATOM      6  C   UNL     1       6.953   7.102  17.360  0.00  0.00    +0.000 A 
ENDROOT
BRANCH   1   9
ATOM      7  O   UNL     1       7.516   9.835  17.651  0.00  0.00    +0.000 OA
ATOM      8  C   UNL     1       8.472   9.420  18.301  0.00  0.00    +0.000 C 
ATOM      9  N   UNL     1       8.679   8.116  18.731  0.00  0.00    +0.000 N 
ATOM     10  N   UNL     1       9.477  10.254  18.721  0.00  0.00    +0.000 N 
ATOM     11  H   UNL     1       9.400   7.976  19.420  0.00  0.00    +0.000 HD
ATOM     12  H   UNL     1      10.303   9.810  19.089  0.00  0.00    +0.000 HD
BRANCH  10  13
ATOM     13  C   UNL     1       9.574  11.682  18.394  0.00  0.00    +0.000 C 
ATOM     14  C   UNL     1       9.486  12.611  19.618  0.00  0.00    +0.000 C 
ATOM     15  C   UNL     1      10.589  12.289  20.622  0.00  0.00    +0.000 C 
ATOM     16  C   UNL     1      11.966  12.446  19.981  0.00  0.00    +0.000 C 
ATOM     17  C   UNL     1      12.097  11.683  18.661  0.00  0.00    +0.000 C 
ATOM     18  C   UNL     1      10.923  11.933  17.705  0.00  0.00    +0.000 C 
ENDBRANCH  10  13
ENDBRANCH   1   9
BRANCH   4  19
ATOM     19  O   UNL     1       5.426   3.717  17.518  0.00  0.00    +0.000 OA
BRANCH  19  20
ATOM     20  C   UNL     1       4.493   3.328  18.467  0.00  0.00    +0.000 A 
ATOM     21  N   UNL     1       4.889   2.755  19.633  0.00  0.00    +0.000 NA
ATOM     22  C   UNL     1       3.944   2.443  20.537  0.00  0.00    +0.000 A 
ATOM     23  N   UNL     1       2.612   2.601  20.430  0.00  0.00    +0.000 NA
ATOM     24  C   UNL     1       2.279   3.124  19.240  0.00  0.00    +0.000 A 
ATOM     25  N   UNL     1       1.021   3.400  18.790  0.00  0.00    +0.000 N 
ATOM     26  N   UNL     1       0.993   3.928  17.548  0.00  0.00    +0.000 NA
ATOM     27  C   UNL     1       2.288   3.987  17.210  0.00  0.00    +0.000 A 
ATOM     28  C   UNL     1       3.135   3.499  18.224  0.00  0.00    +0.000 A 
ATOM     29  H   UNL     1       0.150   3.250  19.285  0.00  0.00    +0.000 HD
ENDBRANCH  19  20
ENDBRANCH   4  19
TORSDOF 4
ENDMDL
MODEL 3
REMARK VINA RESULT:      -8.3      1.029      1.566
REMARK  Name = 
REMARK  4 active torsions:
REMARK  status: ('A' for Active; 'I' for Inactive)
REMARK    1  A    between atoms: N_3  and  C_4
REMARK    2  A    between atoms: C_7  and  O_8
REMARK    3  A    between atoms: O_8  and  C_9
REMARK    4  A    between atoms: N_20  and  C_21
REMARK                            x       y       z     vdW  Elec       q    Type
REMARK                         _______ _______ _______ _____ _____    ______ ____
ROOT
ATOM      1  C   UNL     1       7.659   6.958  18.116  0.00  0.00    +0.000 A 
ATOM      2  C   UNL     1       6.972   6.970  16.906  0.00  0.00    +0.000 A 
ATOM      3  C   UNL     1       6.131   5.917  16.541  0.00  0.00    +0.000 A 
ATOM      4  C   UNL     1       5.976   4.818  17.384  0.00  0.00    +0.000 A 
ATOM      5  C   UNL     1       6.639   4.803  18.610  0.00  0.00    +0.000 A 
ATOM      6  C   UNL     1       7.499   5.852  18.967  0.00  0.00    +0.000 A 
ENDROOT
BRANCH   1   9
ATOM      7  O   UNL     1       7.428   9.854  17.577  0.00  0.00    +0.000 OA
ATOM      8  C   UNL     1       8.360   9.351  18.199  0.00  0.00    +0.000 C 
ATOM      9  N   UNL     1       8.514   8.009  18.518  0.00  0.00    +0.000 N 
ATOM     10  N   UNL     1       9.387  10.109  18.700  0.00  0.00    +0.000 N 
ATOM     11  H   UNL     1       9.220   7.784  19.200  0.00  0.00    +0.000 HD
ATOM     12  H   UNL     1      10.192   9.605  19.037  0.00  0.00    +0.000 HD
BRANCH  10  13
ATOM     13  C   UNL     1       9.540  11.555  18.497  0.00  0.00    +0.000 C 
ATOM     14  C   UNL     1       9.504  12.376  19.799  0.00  0.00    +0.000 C 
ATOM     15  C   UNL     1      10.603  11.923  20.755  0.00  0.00    +0.000 C 
ATOM     16  C   UNL     1      11.978  12.080  20.109  0.00  0.00    +0.000 C 
ATOM     17  C   UNL     1      12.063  11.432  18.726  0.00  0.00    +0.000 C 
ATOM     18  C   UNL     1      10.891  11.811  17.813  0.00  0.00    +0.000 C 
ENDBRANCH  10  13
ENDBRANCH   1   9
BRANCH   4  19
ATOM     19  O   UNL     1       5.114   3.841  16.947  0.00  0.00    +0.000 OA
BRANCH  19  20
ATOM     20  C   UNL     1       4.109   3.425  17.808  0.00  0.00    +0.000 A 
ATOM     21  N   UNL     1       3.860   2.104  17.995  0.00  0.00    +0.000 NA
ATOM     22  C   UNL     1       2.907   1.757  18.879  0.00  0.00    +0.000 A 
ATOM     23  N   UNL     1       2.121   2.570  19.607  0.00  0.00    +0.000 NA
ATOM     24  C   UNL     1       2.378   3.860  19.343  0.00  0.00    +0.000 A 
ATOM     25  N   UNL     1       1.758   4.948  19.887  0.00  0.00    +0.000 N 
ATOM     26  N   UNL     1       2.233   6.127  19.431  0.00  0.00    +0.000 NA
ATOM     27  C   UNL     1       3.191   5.760  18.570  0.00  0.00    +0.000 A 
ATOM     28  C   UNL     1       3.327   4.362  18.473  0.00  0.00    +0.000 A 
ATOM     29  H   UNL     1       1.010   4.944  20.570  0.00  0.00    +0.000 HD
ENDBRANCH  19  20
ENDBRANCH   4  19
TORSDOF 4
ENDMDL
MODEL 4
REMARK VINA RESULT:      -8.1      7.001      8.715
REMARK  Name = 
REMARK  4 active torsions:
REMARK  status: ('A' for Active; 'I' for Inactive)
REMARK    1  A    between atoms: N_3  and  C_4
REMARK    2  A    between atoms: C_7  and  O_8
REMARK    3  A    between atoms: O_8  and  C_9
REMARK    4  A    between atoms: N_20  and  C_21
REMARK                            x       y       z     vdW  Elec       q    Type
REMARK                         _______ _______ _______ _____ _____    ______ ____
ROOT
ATOM      1  C   UNL     1       0.420   9.788  19.742  0.00  0.00    +0.000 A 
ATOM      2  C   UNL     1       0.791   9.953  18.412  0.00  0.00    +0.000 A 
ATOM      3  C   UNL     1       1.717   9.100  17.808  0.00  0.00    +0.000 A 
ATOM      4  C   UNL     1       2.303   8.070  18.540  0.00  0.00    +0.000 A 
ATOM      5  C   UNL     1       1.923   7.877  19.867  0.00  0.00    +0.000 A 
ATOM      6  C   UNL     1       1.008   8.746  20.479  0.00  0.00    +0.000 A 
ENDROOT
BRANCH   1   9
ATOM      7  O   UNL     1       0.440  10.829  22.507  0.00  0.00    +0.000 OA
ATOM      8  C   UNL     1      -0.460  11.056  21.703  0.00  0.00    +0.000 C 
ATOM      9  N   UNL     1      -0.517  10.630  20.383  0.00  0.00    +0.000 N 
ATOM     10  N   UNL     1      -1.547  11.823  22.033  0.00  0.00    +0.000 N 
ATOM     11  H   UNL     1      -1.214  11.064  19.798  0.00  0.00    +0.000 HD
ATOM     12  H   UNL     1      -2.317  11.812  21.383  0.00  0.00    +0.000 HD
BRANCH  10  13
ATOM     13  C   UNL     1      -1.804  12.386  23.365  0.00  0.00    +0.000 C 
ATOM     14  C   UNL     1      -1.453  13.880  23.490  0.00  0.00    +0.000 C 
ATOM     15  C   UNL     1      -2.238  14.707  22.477  0.00  0.00    +0.000 C 
ATOM     16  C   UNL     1      -3.740  14.534  22.686  0.00  0.00    +0.000 C 
ATOM     17  C   UNL     1      -4.167  13.066  22.741  0.00  0.00    +0.000 C 
ATOM     18  C   UNL     1      -3.298  12.223  23.682  0.00  0.00    +0.000 C 
ENDBRANCH  10  13
ENDBRANCH   1   9
BRANCH   4  19
ATOM     19  O   UNL     1       3.189   7.272  17.855  0.00  0.00    +0.000 OA
BRANCH  19  20
ATOM     20  C   UNL     1       3.126   5.902  18.060  0.00  0.00    +0.000 A 
ATOM     21  N   UNL     1       1.969   5.222  17.851  0.00  0.00    +0.000 NA
ATOM     22  C   UNL     1       1.979   3.888  18.017  0.00  0.00    +0.000 A 
ATOM     23  N   UNL     1       3.007   3.111  18.402  0.00  0.00    +0.000 NA
ATOM     24  C   UNL     1       4.106   3.842  18.642  0.00  0.00    +0.000 A 
ATOM     25  N   UNL     1       5.321   3.383  19.065  0.00  0.00    +0.000 N 
ATOM     26  N   UNL     1       6.245   4.356  19.218  0.00  0.00    +0.000 NA
ATOM     27  C   UNL     1       5.580   5.467  18.873  0.00  0.00    +0.000 A 
ATOM     28  C   UNL     1       4.245   5.210  18.507  0.00  0.00    +0.000 A 
ATOM     29  H   UNL     1       5.574   2.423  19.261  0.00  0.00    +0.000 HD
ENDBRANCH  19  20
ENDBRANCH   4  19
TORSDOF 4
ENDMDL
MODEL 5
REMARK VINA RESULT:      -8.1      7.796     10.559
REMARK  Name = 
REMARK  4 active torsions:
REMARK  status: ('A' for Active; 'I' for Inactive)
REMARK    1  A    between atoms: N_3  and  C_4
REMARK    2  A    between atoms: C_7  and  O_8
REMARK    3  A    between atoms: O_8  and  C_9
REMARK    4  A    between atoms: N_20  and  C_21
REMARK                            x       y       z     vdW  Elec       q    Type
REMARK                         _______ _______ _______ _____ _____    ______ ____
ROOT
ATOM      1  C   UNL     1       0.849   8.880  21.341  0.00  0.00    +0.000 A 
ATOM      2  C   UNL     1       0.836   9.896  20.391  0.00  0.00    +0.000 A 
ATOM      3  C   UNL     1       0.174  11.102  20.630  0.00  0.00    +0.000 A 
ATOM      4  C   UNL     1      -0.505  11.303  21.830  0.00  0.00    +0.000 A 
ATOM      5  C   UNL     1      -0.481  10.304  22.801  0.00  0.00    +0.000 A 
ATOM      6  C   UNL     1       0.167   9.085  22.553  0.00  0.00    +0.000 A 
ENDROOT
BRANCH   1   9
ATOM      7  O   UNL     1       2.345   7.951  18.968  0.00  0.00    +0.000 OA
ATOM      8  C   UNL     1       2.172   7.266  19.973  0.00  0.00    +0.000 C 
ATOM      9  N   UNL     1       1.512   7.650  21.133  0.00  0.00    +0.000 N 
ATOM     10  N   UNL     1       2.668   5.992  20.074  0.00  0.00    +0.000 N 
ATOM     11  H   UNL     1       1.629   7.055  21.938  0.00  0.00    +0.000 HD
ATOM     12  H   UNL     1       2.333   5.440  20.847  0.00  0.00    +0.000 HD
BRANCH  10  13
ATOM     13  C   UNL     1       3.376   5.280  19.002  0.00  0.00    +0.000 C 
ATOM     14  C   UNL     1       4.128   4.024  19.476  0.00  0.00    +0.000 C 
ATOM     15  C   UNL     1       3.171   3.036  20.136  0.00  0.00    +0.000 C 
ATOM     16  C   UNL     1       2.073   2.616  19.162  0.00  0.00    +0.000 C 
ATOM     17  C   UNL     1       1.370   3.807  18.508  0.00  0.00    +0.000 C 
ATOM     18  C   UNL     1       2.348   4.846  17.946  0.00  0.00    +0.000 C 
ENDBRANCH  10  13
ENDBRANCH   1   9
BRANCH   4  19
ATOM     19  O   UNL     1      -1.111  12.528  21.981  0.00  0.00    +0.000 OA
BRANCH  19  20
ATOM     20  C   UNL     1      -2.460  12.631  21.678  0.00  0.00    +0.000 A 
ATOM     21  N   UNL     1      -2.869  12.861  20.405  0.00  0.00    +0.000 NA
ATOM     22  C   UNL     1      -4.191  12.902  20.161  0.00  0.00    +0.000 A 
ATOM     23  N   UNL     1      -5.198  12.769  21.042  0.00  0.00    +0.000 NA
ATOM     24  C   UNL     1      -4.734  12.594  22.289  0.00  0.00    +0.000 A 
ATOM     25  N   UNL     1      -5.474  12.444  23.425  0.00  0.00    +0.000 N 
ATOM     26  N   UNL     1      -4.729  12.281  24.540  0.00  0.00    +0.000 NA
ATOM     27  C   UNL     1      -3.472  12.329  24.079  0.00  0.00    +0.000 A 
ATOM     28  C   UNL     1      -3.413  12.523  22.685  0.00  0.00    +0.000 A 
ATOM     29  H   UNL     1      -6.484  12.442  23.499  0.00  0.00    +0.000 HD
ENDBRANCH  19  20
ENDBRANCH   4  19
TORSDOF 4
ENDMDL
MODEL 6
REMARK VINA RESULT:      -8.1      5.745      7.544
REMARK  Name = 
REMARK  4 active torsions:
REMARK  status: ('A' for Active; 'I' for Inactive)
REMARK    1  A    between atoms: N_3  and  C_4
REMARK    2  A    between atoms: C_7  and  O_8
REMARK    3  A    between atoms: O_8  and  C_9
REMARK    4  A    between atoms: N_20  and  C_21
REMARK                            x       y       z     vdW  Elec       q    Type
REMARK                         _______ _______ _______ _____ _____    ______ ____
ROOT
ATOM      1  C   UNL     1       1.974   8.125  19.420  0.00  0.00    +0.000 A 
ATOM      2  C   UNL     1       1.924   6.868  20.013  0.00  0.00    +0.000 A 
ATOM      3  C   UNL     1       2.440   5.742  19.369  0.00  0.00    +0.000 A 
ATOM      4  C   UNL     1       3.005   5.857  18.101  0.00  0.00    +0.000 A 
ATOM      5  C   UNL     1       3.084   7.114  17.503  0.00  0.00    +0.000 A 
ATOM      6  C   UNL     1       2.547   8.241  18.142  0.00  0.00    +0.000 A 
ENDROOT
BRANCH   1   9
ATOM      7  O   UNL     1      -0.242   9.881  18.561  0.00  0.00    +0.000 OA
ATOM      8  C   UNL     1       0.436  10.084  19.565  0.00  0.00    +0.000 C 
ATOM      9  N   UNL     1       1.465   9.285  20.045  0.00  0.00    +0.000 N 
ATOM     10  N   UNL     1       0.213  11.164  20.380  0.00  0.00    +0.000 N 
ATOM     11  H   UNL     1       1.785   9.475  20.981  0.00  0.00    +0.000 HD
ATOM     12  H   UNL     1       0.919  11.354  21.074  0.00  0.00    +0.000 HD
BRANCH  10  13
ATOM     13  C   UNL     1      -0.775  12.219  20.124  0.00  0.00    +0.000 C 
ATOM     14  C   UNL     1      -1.999  12.168  21.055  0.00  0.00    +0.000 C 
ATOM     15  C   UNL     1      -1.573  12.275  22.517  0.00  0.00    +0.000 C 
ATOM     16  C   UNL     1      -0.818  13.579  22.764  0.00  0.00    +0.000 C 
ATOM     17  C   UNL     1       0.327  13.801  21.774  0.00  0.00    +0.000 C 
ATOM     18  C   UNL     1      -0.092  13.582  20.315  0.00  0.00    +0.000 C 
ENDBRANCH  10  13
ENDBRANCH   1   9
BRANCH   4  19
ATOM     19  O   UNL     1       3.502   4.698  17.555  0.00  0.00    +0.000 OA
BRANCH  19  20
ATOM     20  C   UNL     1       4.830   4.681  17.156  0.00  0.00    +0.000 A 
ATOM     21  N   UNL     1       5.162   4.448  15.861  0.00  0.00    +0.000 NA
ATOM     22  C   UNL     1       6.463   4.493  15.522  0.00  0.00    +0.000 A 
ATOM     23  N   UNL     1       7.518   4.717  16.324  0.00  0.00    +0.000 NA
ATOM     24  C   UNL     1       7.133   4.890  17.598  0.00  0.00    +0.000 A 
ATOM     25  N   UNL     1       7.941   5.119  18.674  0.00  0.00    +0.000 N 
ATOM     26  N   UNL     1       7.268   5.258  19.837  0.00  0.00    +0.000 NA
ATOM     27  C   UNL     1       5.987   5.111  19.470  0.00  0.00    +0.000 A 
ATOM     28  C   UNL     1       5.842   4.880  18.088  0.00  0.00    +0.000 A 
ATOM     29  H   UNL     1       8.951   5.193  18.673  0.00  0.00    +0.000 HD
ENDBRANCH  19  20
ENDBRANCH   4  19
TORSDOF 4
ENDMDL
MODEL 7
REMARK VINA RESULT:      -8.1      1.172      2.526
REMARK  Name = 
REMARK  4 active torsions:
REMARK  status: ('A' for Active; 'I' for Inactive)
REMARK    1  A    between atoms: N_3  and  C_4
REMARK    2  A    between atoms: C_7  and  O_8
REMARK    3  A    between atoms: O_8  and  C_9
REMARK    4  A    between atoms: N_20  and  C_21
REMARK                            x       y       z     vdW  Elec       q    Type
REMARK                         _______ _______ _______ _____ _____    ______ ____
ROOT
ATOM      1  C   UNL     1       7.077   7.431  17.439  0.00  0.00    +0.000 A 
ATOM      2  C   UNL     1       7.695   6.278  17.910  0.00  0.00    +0.000 A 
ATOM      3  C   UNL     1       7.049   5.041  17.869  0.00  0.00    +0.000 A 
ATOM      4  C   UNL     1       5.753   4.943  17.365  0.00  0.00    +0.000 A 
ATOM      5  C   UNL     1       5.129   6.086  16.867  0.00  0.00    +0.000 A 
ATOM      6  C   UNL     1       5.771   7.331  16.927  0.00  0.00    +0.000 A 
ENDROOT
BRANCH   1   9
ATOM      7  O   UNL     1       8.959   8.538  19.429  0.00  0.00    +0.000 OA
ATOM      8  C   UNL     1       8.557   9.165  18.452  0.00  0.00    +0.000 C 
ATOM      9  N   UNL     1       7.703   8.697  17.462  0.00  0.00    +0.000 N 
ATOM     10  N   UNL     1       8.957  10.453  18.205  0.00  0.00    +0.000 N 
ATOM     11  H   UNL     1       7.630   9.257  16.628  0.00  0.00    +0.000 HD
ATOM     12  H   UNL     1       8.449  10.951  17.492  0.00  0.00    +0.000 HD
BRANCH  10  13
ATOM     13  C   UNL     1       9.824  11.246  19.087  0.00  0.00    +0.000 C 
ATOM     14  C   UNL     1      11.179  11.619  18.460  0.00  0.00    +0.000 C 
ATOM     15  C   UNL     1      10.979  12.411  17.170  0.00  0.00    +0.000 C 
ATOM     16  C   UNL     1      10.189  13.690  17.439  0.00  0.00    +0.000 C 
ATOM     17  C   UNL     1       8.892  13.437  18.210  0.00  0.00    +0.000 C 
ATOM     18  C   UNL     1       9.092  12.548  19.444  0.00  0.00    +0.000 C 
ENDBRANCH  10  13
ENDBRANCH   1   9
BRANCH   4  19
ATOM     19  O   UNL     1       5.207   3.682  17.348  0.00  0.00    +0.000 OA
BRANCH  19  20
ATOM     20  C   UNL     1       4.423   3.296  18.425  0.00  0.00    +0.000 A 
ATOM     21  N   UNL     1       4.992   2.818  19.560  0.00  0.00    +0.000 NA
ATOM     22  C   UNL     1       4.186   2.505  20.591  0.00  0.00    +0.000 A 
ATOM     23  N   UNL     1       2.844   2.579  20.642  0.00  0.00    +0.000 NA
ATOM     24  C   UNL     1       2.336   3.009  19.476  0.00  0.00    +0.000 A 
ATOM     25  N   UNL     1       1.017   3.184  19.172  0.00  0.00    +0.000 N 
ATOM     26  N   UNL     1       0.805   3.635  17.917  0.00  0.00    +0.000 NA
ATOM     27  C   UNL     1       2.044   3.749  17.419  0.00  0.00    +0.000 A 
ATOM     28  C   UNL     1       3.037   3.373  18.343  0.00  0.00    +0.000 A 
ATOM     29  H   UNL     1       0.224   3.014  19.779  0.00  0.00    +0.000 HD
ENDBRANCH  19  20
ENDBRANCH   4  19
TORSDOF 4
ENDMDL
MODEL 8
REMARK VINA RESULT:      -8.0      6.195      8.193
REMARK  Name = 
REMARK  4 active torsions:
REMARK  status: ('A' for Active; 'I' for Inactive)
REMARK    1  A    between atoms: N_3  and  C_4
REMARK    2  A    between atoms: C_7  and  O_8
REMARK    3  A    between atoms: O_8  and  C_9
REMARK    4  A    between atoms: N_20  and  C_21
REMARK                            x       y       z     vdW  Elec       q    Type
REMARK                         _______ _______ _______ _____ _____    ______ ____
ROOT
ATOM      1  C   UNL     1       1.547   8.586  19.825  0.00  0.00    +0.000 A 
ATOM      2  C   UNL     1       2.024   8.780  18.533  0.00  0.00    +0.000 A 
ATOM      3  C   UNL     1       2.677   7.758  17.842  0.00  0.00    +0.000 A 
ATOM      4  C   UNL     1       2.878   6.519  18.446  0.00  0.00    +0.000 A 
ATOM      5  C   UNL     1       2.384   6.301  19.732  0.00  0.00    +0.000 A 
ATOM      6  C   UNL     1       1.746   7.335  20.433  0.00  0.00    +0.000 A 
ENDROOT
BRANCH   1   9
ATOM      7  O   UNL     1      -0.900  10.081  19.111  0.00  0.00    +0.000 OA
ATOM      8  C   UNL     1      -0.256  10.283  20.137  0.00  0.00    +0.000 C 
ATOM      9  N   UNL     1       0.878   9.597  20.552  0.00  0.00    +0.000 N 
ATOM     10  N   UNL     1      -0.629  11.237  21.049  0.00  0.00    +0.000 N 
ATOM     11  H   UNL     1       1.171   9.741  21.505  0.00  0.00    +0.000 HD
ATOM     12  H   UNL     1       0.044  11.460  21.765  0.00  0.00    +0.000 HD
BRANCH  10  13
ATOM     13  C   UNL     1      -1.759  12.160  20.883  0.00  0.00    +0.000 C 
ATOM     14  C   UNL     1      -2.519  12.458  22.187  0.00  0.00    +0.000 C 
ATOM     15  C   UNL     1      -1.583  13.054  23.235  0.00  0.00    +0.000 C 
ATOM     16  C   UNL     1      -0.953  14.348  22.722  0.00  0.00    +0.000 C 
ATOM     17  C   UNL     1      -0.309  14.190  21.343  0.00  0.00    +0.000 C 
ATOM     18  C   UNL     1      -1.224  13.490  20.331  0.00  0.00    +0.000 C 
ENDBRANCH  10  13
ENDBRANCH   1   9
BRANCH   4  19
ATOM     19  O   UNL     1       3.514   5.571  17.681  0.00  0.00    +0.000 OA
BRANCH  19  20
ATOM     20  C   UNL     1       4.897   5.503  17.742  0.00  0.00    +0.000 A 
ATOM     21  N   UNL     1       5.537   5.483  18.939  0.00  0.00    +0.000 NA
ATOM     22  C   UNL     1       6.878   5.367  18.939  0.00  0.00    +0.000 A 
ATOM     23  N   UNL     1       7.700   5.292  17.878  0.00  0.00    +0.000 NA
ATOM     24  C   UNL     1       7.017   5.367  16.726  0.00  0.00    +0.000 A 
ATOM     25  N   UNL     1       7.533   5.341  15.463  0.00  0.00    +0.000 N 
ATOM     26  N   UNL     1       6.598   5.430  14.493  0.00  0.00    +0.000 NA
ATOM     27  C   UNL     1       5.450   5.512  15.179  0.00  0.00    +0.000 A 
ATOM     28  C   UNL     1       5.648   5.478  16.573  0.00  0.00    +0.000 A 
ATOM     29  H   UNL     1       8.510   5.262  15.206  0.00  0.00    +0.000 HD
ENDBRANCH  19  20
ENDBRANCH   4  19
TORSDOF 4
ENDMDL
MODEL 9
REMARK VINA RESULT:      -8.0      6.961      8.585
REMARK  Name = 
REMARK  4 active torsions:
REMARK  status: ('A' for Active; 'I' for Inactive)
REMARK    1  A    between atoms: N_3  and  C_4
REMARK    2  A    between atoms: C_7  and  O_8
REMARK    3  A    between atoms: O_8  and  C_9
REMARK    4  A    between atoms: N_20  and  C_21
REMARK                            x       y       z     vdW  Elec       q    Type
REMARK                         _______ _______ _______ _____ _____    ______ ____
ROOT
ATOM      1  C   UNL     1       0.844   9.708  20.005  0.00  0.00    +0.000 A 
ATOM      2  C   UNL     1       1.098   9.933  18.657  0.00  0.00    +0.000 A 
ATOM      3  C   UNL     1       1.819   9.014  17.892  0.00  0.00    +0.000 A 
ATOM      4  C   UNL     1       2.316   7.852  18.478  0.00  0.00    +0.000 A 
ATOM      5  C   UNL     1       2.049   7.600  19.823  0.00  0.00    +0.000 A 
ATOM      6  C   UNL     1       1.341   8.533  20.595  0.00  0.00    +0.000 A 
ENDROOT
BRANCH   1   9
ATOM      7  O   UNL     1      -1.620  11.202  19.351  0.00  0.00    +0.000 OA
ATOM      8  C   UNL     1      -1.025  11.309  20.420  0.00  0.00    +0.000 C 
ATOM      9  N   UNL     1       0.114  10.615  20.807  0.00  0.00    +0.000 N 
ATOM     10  N   UNL     1      -1.464  12.148  21.411  0.00  0.00    +0.000 N 
ATOM     11  H   UNL     1       0.363  10.662  21.782  0.00  0.00    +0.000 HD
ATOM     12  H   UNL     1      -0.828  12.310  22.175  0.00  0.00    +0.000 HD
BRANCH  10  13
ATOM     13  C   UNL     1      -2.616  13.051  21.296  0.00  0.00    +0.000 C 
ATOM     14  C   UNL     1      -3.826  12.633  22.151  0.00  0.00    +0.000 C 
ATOM     15  C   UNL     1      -3.444  12.552  23.626  0.00  0.00    +0.000 C 
ATOM     16  C   UNL     1      -2.929  13.900  24.125  0.00  0.00    +0.000 C 
ATOM     17  C   UNL     1      -1.827  14.481  23.237  0.00  0.00    +0.000 C 
ATOM     18  C   UNL     1      -2.181  14.454  21.746  0.00  0.00    +0.000 C 
ENDBRANCH  10  13
ENDBRANCH   1   9
BRANCH   4  19
ATOM     19  O   UNL     1       2.997   6.999  17.642  0.00  0.00    +0.000 OA
BRANCH  19  20
ATOM     20  C   UNL     1       3.004   5.648  17.952  0.00  0.00    +0.000 A 
ATOM     21  N   UNL     1       1.885   4.896  17.797  0.00  0.00    +0.000 NA
ATOM     22  C   UNL     1       1.964   3.580  18.067  0.00  0.00    +0.000 A 
ATOM     23  N   UNL     1       3.029   2.890  18.510  0.00  0.00    +0.000 NA
ATOM     24  C   UNL     1       4.088   3.693  18.692  0.00  0.00    +0.000 A 
ATOM     25  N   UNL     1       5.323   3.332  19.147  0.00  0.00    +0.000 N 
ATOM     26  N   UNL     1       6.195   4.359  19.223  0.00  0.00    +0.000 NA
ATOM     27  C   UNL     1       5.476   5.405  18.795  0.00  0.00    +0.000 A 
ATOM     28  C   UNL     1       4.157   5.051  18.450  0.00  0.00    +0.000 A 
ATOM     29  H   UNL     1       5.624   2.403  19.418  0.00  0.00    +0.000 HD
ENDBRANCH  19  20
ENDBRANCH   4  19
TORSDOF 4
ENDMDL
