MODEL 1
REMARK VINA RESULT:     -10.3      0.000      0.000
REMARK  Name = 
REMARK  4 active torsions:
REMARK  status: ('A' for Active; 'I' for Inactive)
REMARK    1  A    between atoms: C_4  and  C_5
REMARK    2  A    between atoms: C_15  and  C_16
REMARK    3  A    between atoms: C_19  and  C_20
REMARK    4  A    between atoms: C_22  and  N_23
REMARK                            x       y       z     vdW  Elec       q    Type
REMARK                         _______ _______ _______ _____ _____    ______ ____
ROOT
ATOM      1  O   UNL     1       4.567   7.279  17.249  0.00  0.00    +0.000 OA
ATOM      2  C   UNL     1       5.236   6.289  16.998  0.00  0.00    +0.000 C 
ATOM      3  O   UNL     1       5.417   5.840  15.750  0.00  0.00    +0.000 OA
ATOM      4  C   UNL     1       6.751   5.468  15.444  0.00  0.00    +0.000 C 
ATOM      5  O   UNL     1       7.392   4.602  16.375  0.00  0.00    +0.000 OA
ATOM      6  C   UNL     1       7.178   4.824  17.686  0.00  0.00    +0.000 C 
ATOM      7  O   UNL     1       7.963   4.441  18.544  0.00  0.00    +0.000 OA
ATOM      8  C   UNL     1       5.889   5.447  18.001  0.00  0.00    +0.000 C 
ATOM      9  C   UNL     1       5.333   5.120  19.183  0.00  0.00    +0.000 C 
ENDROOT
BRANCH   4  10
ATOM     10  C   UNL     1       6.684   4.818  14.080  0.00  0.00    +0.000 A 
ATOM     11  C   UNL     1       5.703   3.844  13.828  0.00  0.00    +0.000 A 
ATOM     12  C   UNL     1       5.675   3.157  12.615  0.00  0.00    +0.000 A 
ATOM     13  C   UNL     1       6.631   3.428  11.639  0.00  0.00    +0.000 A 
ATOM     14  C   UNL     1       7.613   4.389  11.873  0.00  0.00    +0.000 A 
ATOM     15  C   UNL     1       7.644   5.078  13.088  0.00  0.00    +0.000 A 
ENDBRANCH   4  10
BRANCH   9  16
ATOM     16  C   UNL     1       3.990   5.430  19.529  0.00  0.00    +0.000 A 
ATOM     17  C   UNL     1       2.915   4.570  19.691  0.00  0.00    +0.000 A 
ATOM     18  C   UNL     1       1.782   5.353  20.020  0.00  0.00    +0.000 A 
ATOM     19  C   UNL     1       2.191   6.670  20.009  0.00  0.00    +0.000 A 
ATOM     20  O   UNL     1       3.518   6.714  19.693  0.00  0.00    +0.000 OA
BRANCH  19  21
ATOM     21  C   UNL     1       1.549   7.966  20.247  0.00  0.00    +0.000 A 
ATOM     22  C   UNL     1       1.083   8.271  21.546  0.00  0.00    +0.000 A 
ATOM     23  C   UNL     1       0.439   9.492  21.811  0.00  0.00    +0.000 A 
ATOM     24  C   UNL     1       0.252  10.431  20.792  0.00  0.00    +0.000 A 
ATOM     25  C   UNL     1       0.712  10.144  19.509  0.00  0.00    +0.000 A 
ATOM     26  C   UNL     1       1.354   8.927  19.234  0.00  0.00    +0.000 A 
ATOM     27 CL   UNL     1       1.909   8.722  17.607  0.00  0.00    +0.000 Cl
BRANCH  23  28
ATOM     28  N   UNL     1      -0.056   9.792  23.162  0.00  0.00    +0.000 N 
ATOM     29  O   UNL     1      -1.176  10.310  23.268  0.00  0.00    +0.000 OA
ATOM     30  O   UNL     1       0.680   9.508  24.119  0.00  0.00    +0.000 OA
ENDBRANCH  23  28
ENDBRANCH  19  21
ENDBRANCH   9  16
TORSDOF 4
ENDMDL
MODEL 2
REMARK VINA RESULT:     -10.2      0.155      1.052
REMARK  Name = 
REMARK  4 active torsions:
REMARK  status: ('A' for Active; 'I' for Inactive)
REMARK    1  A    between atoms: C_4  and  C_5
REMARK    2  A    between atoms: C_15  and  C_16
REMARK    3  A    between atoms: C_19  and  C_20
REMARK    4  A    between atoms: C_22  and  N_23
REMARK                            x       y       z     vdW  Elec       q    Type
REMARK                         _______ _______ _______ _____ _____    ______ ____
ROOT
ATOM      1  O   UNL     1       4.494   7.267  17.172  0.00  0.00    +0.000 OA
ATOM      2  C   UNL     1       5.181   6.278  16.968  0.00  0.00    +0.000 C 
ATOM      3  O   UNL     1       5.355   5.764  15.745  0.00  0.00    +0.000 OA
ATOM      4  C   UNL     1       6.693   5.403  15.442  0.00  0.00    +0.000 C 
ATOM      5  O   UNL     1       7.364   4.604  16.411  0.00  0.00    +0.000 OA
ATOM      6  C   UNL     1       7.162   4.895  17.710  0.00  0.00    +0.000 C 
ATOM      7  O   UNL     1       7.966   4.576  18.578  0.00  0.00    +0.000 OA
ATOM      8  C   UNL     1       5.864   5.508  18.008  0.00  0.00    +0.000 C 
ATOM      9  C   UNL     1       5.330   5.236  19.213  0.00  0.00    +0.000 C 
ENDROOT
BRANCH   4  10
ATOM     10  C   UNL     1       6.624   4.676  14.117  0.00  0.00    +0.000 A 
ATOM     11  C   UNL     1       7.590   4.943  13.133  0.00  0.00    +0.000 A 
ATOM     12  C   UNL     1       7.500   4.362  11.869  0.00  0.00    +0.000 A 
ATOM     13  C   UNL     1       6.439   3.512  11.567  0.00  0.00    +0.000 A 
ATOM     14  C   UNL     1       5.469   3.239  12.531  0.00  0.00    +0.000 A 
ATOM     15  C   UNL     1       5.557   3.819  13.798  0.00  0.00    +0.000 A 
ENDBRANCH   4  10
BRANCH   9  16
ATOM     16  C   UNL     1       3.985   5.537  19.559  0.00  0.00    +0.000 A 
ATOM     17  C   UNL     1       2.918   4.669  19.734  0.00  0.00    +0.000 A 
ATOM     18  C   UNL     1       1.779   5.444  20.058  0.00  0.00    +0.000 A 
ATOM     19  C   UNL     1       2.176   6.764  20.031  0.00  0.00    +0.000 A 
ATOM     20  O   UNL     1       3.501   6.818  19.712  0.00  0.00    +0.000 OA
BRANCH  19  21
ATOM     21  C   UNL     1       1.522   8.057  20.257  0.00  0.00    +0.000 A 
ATOM     22  C   UNL     1       1.102   8.394  21.565  0.00  0.00    +0.000 A 
ATOM     23  C   UNL     1       0.449   9.612  21.819  0.00  0.00    +0.000 A 
ATOM     24  C   UNL     1       0.207  10.517  20.782  0.00  0.00    +0.000 A 
ATOM     25  C   UNL     1       0.620  10.199  19.490  0.00  0.00    +0.000 A 
ATOM     26  C   UNL     1       1.271   8.984  19.225  0.00  0.00    +0.000 A 
ATOM     27 CL   UNL     1       1.765   8.740  17.584  0.00  0.00    +0.000 Cl
BRANCH  23  28
ATOM     28  N   UNL     1       0.003   9.944  23.180  0.00  0.00    +0.000 N 
ATOM     29  O   UNL     1       0.582   9.399  24.129  0.00  0.00    +0.000 OA
ATOM     30  O   UNL     1      -0.930  10.752  23.297  0.00  0.00    +0.000 OA
ENDBRANCH  23  28
ENDBRANCH  19  21
ENDBRANCH   9  16
TORSDOF 4
ENDMDL
MODEL 3
REMARK VINA RESULT:      -8.7      3.414     10.206
REMARK  Name = 
REMARK  4 active torsions:
REMARK  status: ('A' for Active; 'I' for Inactive)
REMARK    1  A    between atoms: C_4  and  C_5
REMARK    2  A    between atoms: C_15  and  C_16
REMARK    3  A    between atoms: C_19  and  C_20
REMARK    4  A    between atoms: C_22  and  N_23
REMARK                            x       y       z     vdW  Elec       q    Type
REMARK                         _______ _______ _______ _____ _____    ______ ____
ROOT
ATOM      1  O   UNL     1      -0.829   9.985  19.301  0.00  0.00    +0.000 OA
ATOM      2  C   UNL     1      -0.453  10.456  20.363  0.00  0.00    +0.000 C 
ATOM      3  O   UNL     1      -0.575  11.755  20.657  0.00  0.00    +0.000 OA
ATOM      4  C   UNL     1      -1.050  12.023  21.966  0.00  0.00    +0.000 C 
ATOM      5  O   UNL     1      -0.391  11.339  23.027  0.00  0.00    +0.000 OA
ATOM      6  C   UNL     1      -0.051  10.052  22.826  0.00  0.00    +0.000 C 
ATOM      7  O   UNL     1       0.125   9.275  23.757  0.00  0.00    +0.000 OA
ATOM      8  C   UNL     1       0.203   9.694  21.427  0.00  0.00    +0.000 C 
ATOM      9  C   UNL     1       1.117   8.731  21.206  0.00  0.00    +0.000 C 
ENDROOT
BRANCH   4  10
ATOM     10  C   UNL     1      -0.921  13.519  22.144  0.00  0.00    +0.000 A 
ATOM     11  C   UNL     1      -0.477  14.304  21.067  0.00  0.00    +0.000 A 
ATOM     12  C   UNL     1      -0.255  15.672  21.226  0.00  0.00    +0.000 A 
ATOM     13  C   UNL     1      -0.467  16.273  22.465  0.00  0.00    +0.000 A 
ATOM     14  C   UNL     1      -0.904  15.508  23.545  0.00  0.00    +0.000 A 
ATOM     15  C   UNL     1      -1.127  14.138  23.388  0.00  0.00    +0.000 A 
ENDBRANCH   4  10
BRANCH   9  16
ATOM     16  C   UNL     1       1.660   8.446  19.924  0.00  0.00    +0.000 A 
ATOM     17  C   UNL     1       1.529   9.165  18.746  0.00  0.00    +0.000 A 
ATOM     18  C   UNL     1       2.238   8.472  17.737  0.00  0.00    +0.000 A 
ATOM     19  C   UNL     1       2.746   7.330  18.319  0.00  0.00    +0.000 A 
ATOM     20  O   UNL     1       2.379   7.308  19.633  0.00  0.00    +0.000 OA
BRANCH  19  21
ATOM     21  C   UNL     1       3.550   6.192  17.862  0.00  0.00    +0.000 A 
ATOM     22  C   UNL     1       4.916   6.395  17.560  0.00  0.00    +0.000 A 
ATOM     23  C   UNL     1       5.714   5.336  17.095  0.00  0.00    +0.000 A 
ATOM     24  C   UNL     1       5.172   4.059  16.928  0.00  0.00    +0.000 A 
ATOM     25  C   UNL     1       3.828   3.845  17.226  0.00  0.00    +0.000 A 
ATOM     26  C   UNL     1       3.022   4.896  17.689  0.00  0.00    +0.000 A 
ATOM     27 CL   UNL     1       1.383   4.477  18.061  0.00  0.00    +0.000 Cl
BRANCH  23  28
ATOM     28  N   UNL     1       7.130   5.562  16.769  0.00  0.00    +0.000 N 
ATOM     29  O   UNL     1       7.527   6.732  16.690  0.00  0.00    +0.000 OA
ATOM     30  O   UNL     1       7.844   4.565  16.590  0.00  0.00    +0.000 OA
ENDBRANCH  23  28
ENDBRANCH  19  21
ENDBRANCH   9  16
TORSDOF 4
ENDMDL
MODEL 4
REMARK VINA RESULT:      -8.4      3.461     10.326
REMARK  Name = 
REMARK  4 active torsions:
REMARK  status: ('A' for Active; 'I' for Inactive)
REMARK    1  A    between atoms: C_4  and  C_5
REMARK    2  A    between atoms: C_15  and  C_16
REMARK    3  A    between atoms: C_19  and  C_20
REMARK    4  A    between atoms: C_22  and  N_23
REMARK                            x       y       z     vdW  Elec       q    Type
REMARK                         _______ _______ _______ _____ _____    ______ ____
ROOT
ATOM      1  O   UNL     1      -1.015   9.823  19.395  0.00  0.00    +0.000 OA
ATOM      2  C   UNL     1      -0.636  10.360  20.424  0.00  0.00    +0.000 C 
ATOM      3  O   UNL     1      -0.858  11.654  20.684  0.00  0.00    +0.000 OA
ATOM      4  C   UNL     1      -1.299  11.924  22.005  0.00  0.00    +0.000 C 
ATOM      5  O   UNL     1      -0.536  11.335  23.054  0.00  0.00    +0.000 OA
ATOM      6  C   UNL     1      -0.094  10.077  22.877  0.00  0.00    +0.000 C 
ATOM      7  O   UNL     1       0.190   9.350  23.821  0.00  0.00    +0.000 OA
ATOM      8  C   UNL     1       0.130   9.695  21.479  0.00  0.00    +0.000 C 
ATOM      9  C   UNL     1       1.114   8.808  21.245  0.00  0.00    +0.000 C 
ENDROOT
BRANCH   4  10
ATOM     10  C   UNL     1      -1.293  13.431  22.131  0.00  0.00    +0.000 A 
ATOM     11  C   UNL     1      -1.153  14.015  23.401  0.00  0.00    +0.000 A 
ATOM     12  C   UNL     1      -1.239  15.398  23.564  0.00  0.00    +0.000 A 
ATOM     13  C   UNL     1      -1.474  16.215  22.460  0.00  0.00    +0.000 A 
ATOM     14  C   UNL     1      -1.619  15.651  21.194  0.00  0.00    +0.000 A 
ATOM     15  C   UNL     1      -1.532  14.267  21.028  0.00  0.00    +0.000 A 
ENDBRANCH   4  10
BRANCH   9  16
ATOM     16  C   UNL     1       1.624   8.527  19.949  0.00  0.00    +0.000 A 
ATOM     17  C   UNL     1       1.528   9.288  18.794  0.00  0.00    +0.000 A 
ATOM     18  C   UNL     1       2.180   8.581  17.756  0.00  0.00    +0.000 A 
ATOM     19  C   UNL     1       2.618   7.392  18.298  0.00  0.00    +0.000 A 
ATOM     20  O   UNL     1       2.265   7.353  19.615  0.00  0.00    +0.000 OA
BRANCH  19  21
ATOM     21  C   UNL     1       3.342   6.218  17.797  0.00  0.00    +0.000 A 
ATOM     22  C   UNL     1       4.583   6.404  17.148  0.00  0.00    +0.000 A 
ATOM     23  C   UNL     1       5.296   5.309  16.632  0.00  0.00    +0.000 A 
ATOM     24  C   UNL     1       4.791   4.011  16.757  0.00  0.00    +0.000 A 
ATOM     25  C   UNL     1       3.570   3.814  17.399  0.00  0.00    +0.000 A 
ATOM     26  C   UNL     1       2.850   4.902  17.917  0.00  0.00    +0.000 A 
ATOM     27 CL   UNL     1       1.372   4.506  18.726  0.00  0.00    +0.000 Cl
BRANCH  23  28
ATOM     28  N   UNL     1       6.579   5.516  15.944  0.00  0.00    +0.000 N 
ATOM     29  O   UNL     1       6.577   5.526  14.706  0.00  0.00    +0.000 OA
ATOM     30  O   UNL     1       7.589   5.667  16.647  0.00  0.00    +0.000 OA
ENDBRANCH  23  28
ENDBRANCH  19  21
ENDBRANCH   9  16
TORSDOF 4
ENDMDL
MODEL 5
REMARK VINA RESULT:      -8.4      3.339      8.445
REMARK  Name = 
REMARK  4 active torsions:
REMARK  status: ('A' for Active; 'I' for Inactive)
REMARK    1  A    between atoms: C_4  and  C_5
REMARK    2  A    between atoms: C_15  and  C_16
REMARK    3  A    between atoms: C_19  and  C_20
REMARK    4  A    between atoms: C_22  and  N_23
REMARK                            x       y       z     vdW  Elec       q    Type
REMARK                         _______ _______ _______ _____ _____    ______ ____
ROOT
ATOM      1  O   UNL     1       0.531   8.696  18.525  0.00  0.00    +0.000 OA
ATOM      2  C   UNL     1       0.987   9.444  19.376  0.00  0.00    +0.000 C 
ATOM      3  O   UNL     1       1.578  10.605  19.071  0.00  0.00    +0.000 OA
ATOM      4  C   UNL     1       1.192  11.697  19.890  0.00  0.00    +0.000 C 
ATOM      5  O   UNL     1       1.239  11.476  21.296  0.00  0.00    +0.000 OA
ATOM      6  C   UNL     1       0.824  10.281  21.756  0.00  0.00    +0.000 C 
ATOM      7  O   UNL     1       0.436  10.129  22.908  0.00  0.00    +0.000 OA
ATOM      8  C   UNL     1       0.988   9.170  20.814  0.00  0.00    +0.000 C 
ATOM      9  C   UNL     1       1.230   7.957  21.346  0.00  0.00    +0.000 C 
ENDROOT
BRANCH   4  10
ATOM     10  C   UNL     1       2.111  12.834  19.505  0.00  0.00    +0.000 A 
ATOM     11  C   UNL     1       2.698  13.617  20.513  0.00  0.00    +0.000 A 
ATOM     12  C   UNL     1       3.474  14.731  20.191  0.00  0.00    +0.000 A 
ATOM     13  C   UNL     1       3.668  15.082  18.857  0.00  0.00    +0.000 A 
ATOM     14  C   UNL     1       3.090  14.318  17.844  0.00  0.00    +0.000 A 
ATOM     15  C   UNL     1       2.313  13.202  18.164  0.00  0.00    +0.000 A 
ENDBRANCH   4  10
BRANCH   9  16
ATOM     16  C   UNL     1       1.658   6.838  20.582  0.00  0.00    +0.000 A 
ATOM     17  C   UNL     1       1.124   5.559  20.539  0.00  0.00    +0.000 A 
ATOM     18  C   UNL     1       1.906   4.795  19.641  0.00  0.00    +0.000 A 
ATOM     19  C   UNL     1       2.918   5.617  19.195  0.00  0.00    +0.000 A 
ATOM     20  O   UNL     1       2.778   6.842  19.778  0.00  0.00    +0.000 OA
BRANCH  19  21
ATOM     21  C   UNL     1       4.055   5.473  18.280  0.00  0.00    +0.000 A 
ATOM     22  C   UNL     1       5.188   6.300  18.459  0.00  0.00    +0.000 A 
ATOM     23  C   UNL     1       6.288   6.211  17.589  0.00  0.00    +0.000 A 
ATOM     24  C   UNL     1       6.284   5.297  16.531  0.00  0.00    +0.000 A 
ATOM     25  C   UNL     1       5.175   4.473  16.347  0.00  0.00    +0.000 A 
ATOM     26  C   UNL     1       4.071   4.556  17.209  0.00  0.00    +0.000 A 
ATOM     27 CL   UNL     1       2.783   3.444  16.888  0.00  0.00    +0.000 Cl
BRANCH  23  28
ATOM     28  N   UNL     1       7.454   7.086  17.775  0.00  0.00    +0.000 N 
ATOM     29  O   UNL     1       7.614   8.016  16.973  0.00  0.00    +0.000 OA
ATOM     30  O   UNL     1       8.211   6.840  18.726  0.00  0.00    +0.000 OA
ENDBRANCH  23  28
ENDBRANCH  19  21
ENDBRANCH   9  16
TORSDOF 4
ENDMDL
MODEL 6
REMARK VINA RESULT:      -8.3      3.870      9.896
REMARK  Name = 
REMARK  4 active torsions:
REMARK  status: ('A' for Active; 'I' for Inactive)
REMARK    1  A    between atoms: C_4  and  C_5
REMARK    2  A    between atoms: C_15  and  C_16
REMARK    3  A    between atoms: C_19  and  C_20
REMARK    4  A    between atoms: C_22  and  N_23
REMARK                            x       y       z     vdW  Elec       q    Type
REMARK                         _______ _______ _______ _____ _____    ______ ____
ROOT
ATOM      1  O   UNL     1      -1.099   9.973  18.725  0.00  0.00    +0.000 OA
ATOM      2  C   UNL     1      -0.785  10.755  19.609  0.00  0.00    +0.000 C 
ATOM      3  O   UNL     1      -1.026  12.069  19.525  0.00  0.00    +0.000 OA
ATOM      4  C   UNL     1      -1.547  12.650  20.709  0.00  0.00    +0.000 C 
ATOM      5  O   UNL     1      -0.849  12.353  21.915  0.00  0.00    +0.000 OA
ATOM      6  C   UNL     1      -0.395  11.098  22.083  0.00  0.00    +0.000 C 
ATOM      7  O   UNL     1      -0.168  10.633  23.193  0.00  0.00    +0.000 OA
ATOM      8  C   UNL     1      -0.084  10.385  20.839  0.00  0.00    +0.000 C 
ATOM      9  C   UNL     1       0.915   9.485  20.892  0.00  0.00    +0.000 C 
ENDROOT
BRANCH   4  10
ATOM     10  C   UNL     1      -1.552  14.141  20.457  0.00  0.00    +0.000 A 
ATOM     11  C   UNL     1      -2.598  14.923  20.974  0.00  0.00    +0.000 A 
ATOM     12  C   UNL     1      -2.684  16.284  20.680  0.00  0.00    +0.000 A 
ATOM     13  C   UNL     1      -1.730  16.880  19.858  0.00  0.00    +0.000 A 
ATOM     14  C   UNL     1      -0.687  16.118  19.334  0.00  0.00    +0.000 A 
ATOM     15  C   UNL     1      -0.599  14.755  19.628  0.00  0.00    +0.000 A 
ENDBRANCH   4  10
BRANCH   9  16
ATOM     16  C   UNL     1       1.504   8.900  19.738  0.00  0.00    +0.000 A 
ATOM     17  C   UNL     1       1.840   9.502  18.535  0.00  0.00    +0.000 A 
ATOM     18  C   UNL     1       2.384   8.504  17.692  0.00  0.00    +0.000 A 
ATOM     19  C   UNL     1       2.326   7.317  18.390  0.00  0.00    +0.000 A 
ATOM     20  O   UNL     1       1.777   7.555  19.616  0.00  0.00    +0.000 OA
BRANCH  19  21
ATOM     21  C   UNL     1       2.703   5.926  18.120  0.00  0.00    +0.000 A 
ATOM     22  C   UNL     1       1.891   4.885  18.624  0.00  0.00    +0.000 A 
ATOM     23  C   UNL     1       2.230   3.539  18.408  0.00  0.00    +0.000 A 
ATOM     24  C   UNL     1       3.379   3.204  17.685  0.00  0.00    +0.000 A 
ATOM     25  C   UNL     1       4.186   4.221  17.178  0.00  0.00    +0.000 A 
ATOM     26  C   UNL     1       3.856   5.568  17.390  0.00  0.00    +0.000 A 
ATOM     27 CL   UNL     1       4.924   6.724  16.669  0.00  0.00    +0.000 Cl
BRANCH  23  28
ATOM     28  N   UNL     1       1.387   2.464  18.951  0.00  0.00    +0.000 N 
ATOM     29  O   UNL     1       0.301   2.244  18.398  0.00  0.00    +0.000 OA
ATOM     30  O   UNL     1       1.813   1.841  19.935  0.00  0.00    +0.000 OA
ENDBRANCH  23  28
ENDBRANCH  19  21
ENDBRANCH   9  16
TORSDOF 4
ENDMDL
MODEL 7
REMARK VINA RESULT:      -8.2      3.802     10.930
REMARK  Name = 
REMARK  4 active torsions:
REMARK  status: ('A' for Active; 'I' for Inactive)
REMARK    1  A    between atoms: C_4  and  C_5
REMARK    2  A    between atoms: C_15  and  C_16
REMARK    3  A    between atoms: C_19  and  C_20
REMARK    4  A    between atoms: C_22  and  N_23
REMARK                            x       y       z     vdW  Elec       q    Type
REMARK                         _______ _______ _______ _____ _____    ______ ____
ROOT
ATOM      1  O   UNL     1      -0.238   9.569  21.873  0.00  0.00    +0.000 OA
ATOM      2  C   UNL     1      -0.626  10.727  21.866  0.00  0.00    +0.000 C 
ATOM      3  O   UNL     1      -1.858  11.075  22.256  0.00  0.00    +0.000 OA
ATOM      4  C   UNL     1      -1.910  12.218  23.095  0.00  0.00    +0.000 C 
ATOM      5  O   UNL     1      -1.195  13.363  22.642  0.00  0.00    +0.000 OA
ATOM      6  C   UNL     1       0.007  13.166  22.071  0.00  0.00    +0.000 C 
ATOM      7  O   UNL     1       0.858  14.045  22.030  0.00  0.00    +0.000 OA
ATOM      8  C   UNL     1       0.165  11.869  21.406  0.00  0.00    +0.000 C 
ATOM      9  C   UNL     1       0.974  11.835  20.331  0.00  0.00    +0.000 C 
ENDROOT
BRANCH   4  10
ATOM     10  C   UNL     1      -3.380  12.540  23.245  0.00  0.00    +0.000 A 
ATOM     11  C   UNL     1      -3.986  12.420  24.506  0.00  0.00    +0.000 A 
ATOM     12  C   UNL     1      -5.359  12.617  24.660  0.00  0.00    +0.000 A 
ATOM     13  C   UNL     1      -6.146  12.928  23.554  0.00  0.00    +0.000 A 
ATOM     14  C   UNL     1      -5.561  13.048  22.294  0.00  0.00    +0.000 A 
ATOM     15  C   UNL     1      -4.187  12.852  22.137  0.00  0.00    +0.000 A 
ENDBRANCH   4  10
BRANCH   9  16
ATOM     16  C   UNL     1       1.039  10.736  19.432  0.00  0.00    +0.000 A 
ATOM     17  C   UNL     1       0.236  10.462  18.336  0.00  0.00    +0.000 A 
ATOM     18  C   UNL     1       0.683   9.245  17.768  0.00  0.00    +0.000 A 
ATOM     19  C   UNL     1       1.718   8.792  18.559  0.00  0.00    +0.000 A 
ATOM     20  O   UNL     1       1.918   9.684  19.572  0.00  0.00    +0.000 OA
BRANCH  19  21
ATOM     21  C   UNL     1       2.605   7.624  18.552  0.00  0.00    +0.000 A 
ATOM     22  C   UNL     1       3.578   7.509  17.534  0.00  0.00    +0.000 A 
ATOM     23  C   UNL     1       4.431   6.393  17.478  0.00  0.00    +0.000 A 
ATOM     24  C   UNL     1       4.335   5.378  18.433  0.00  0.00    +0.000 A 
ATOM     25  C   UNL     1       3.382   5.482  19.445  0.00  0.00    +0.000 A 
ATOM     26  C   UNL     1       2.525   6.592  19.509  0.00  0.00    +0.000 A 
ATOM     27 CL   UNL     1       1.421   6.610  20.842  0.00  0.00    +0.000 Cl
BRANCH  23  28
ATOM     28  N   UNL     1       5.429   6.276  16.405  0.00  0.00    +0.000 N 
ATOM     29  O   UNL     1       5.269   5.386  15.559  0.00  0.00    +0.000 OA
ATOM     30  O   UNL     1       6.376   7.077  16.411  0.00  0.00    +0.000 OA
ENDBRANCH  23  28
ENDBRANCH  19  21
ENDBRANCH   9  16
TORSDOF 4
ENDMDL
MODEL 8
REMARK VINA RESULT:      -8.2      4.768      7.425
REMARK  Name = 
REMARK  4 active torsions:
REMARK  status: ('A' for Active; 'I' for Inactive)
REMARK    1  A    between atoms: C_4  and  C_5
REMARK    2  A    between atoms: C_15  and  C_16
REMARK    3  A    between atoms: C_19  and  C_20
REMARK    4  A    between atoms: C_22  and  N_23
REMARK                            x       y       z     vdW  Elec       q    Type
REMARK                         _______ _______ _______ _____ _____    ______ ____
ROOT
ATOM      1  O   UNL     1       1.642   9.947  18.126  0.00  0.00    +0.000 OA
ATOM      2  C   UNL     1       1.466   9.160  19.044  0.00  0.00    +0.000 C 
ATOM      3  O   UNL     1       1.475   7.833  18.865  0.00  0.00    +0.000 OA
ATOM      4  C   UNL     1       2.205   7.111  19.844  0.00  0.00    +0.000 C 
ATOM      5  O   UNL     1       1.914   7.423  21.202  0.00  0.00    +0.000 OA
ATOM      6  C   UNL     1       1.716   8.715  21.520  0.00  0.00    +0.000 C 
ATOM      7  O   UNL     1       1.871   9.134  22.660  0.00  0.00    +0.000 OA
ATOM      8  C   UNL     1       1.190   9.542  20.429  0.00  0.00    +0.000 C 
ATOM      9  C   UNL     1       0.389  10.566  20.778  0.00  0.00    +0.000 C 
ENDROOT
BRANCH   4  10
ATOM     10  C   UNL     1       1.918   5.653  19.565  0.00  0.00    +0.000 A 
ATOM     11  C   UNL     1       2.059   5.161  18.256  0.00  0.00    +0.000 A 
ATOM     12  C   UNL     1       1.711   3.846  17.947  0.00  0.00    +0.000 A 
ATOM     13  C   UNL     1       1.210   3.007  18.939  0.00  0.00    +0.000 A 
ATOM     14  C   UNL     1       1.061   3.480  20.242  0.00  0.00    +0.000 A 
ATOM     15  C   UNL     1       1.410   4.796  20.555  0.00  0.00    +0.000 A 
ENDBRANCH   4  10
BRANCH   9  16
ATOM     16  C   UNL     1      -0.397  11.299  19.848  0.00  0.00    +0.000 A 
ATOM     17  C   UNL     1      -0.015  12.345  19.023  0.00  0.00    +0.000 A 
ATOM     18  C   UNL     1      -1.154  12.755  18.291  0.00  0.00    +0.000 A 
ATOM     19  C   UNL     1      -2.206  11.975  18.721  0.00  0.00    +0.000 A 
ATOM     20  O   UNL     1      -1.750  11.111  19.673  0.00  0.00    +0.000 OA
BRANCH  19  21
ATOM     21  C   UNL     1      -3.633  11.874  18.398  0.00  0.00    +0.000 A 
ATOM     22  C   UNL     1      -4.584  12.136  19.410  0.00  0.00    +0.000 A 
ATOM     23  C   UNL     1      -5.961  12.026  19.149  0.00  0.00    +0.000 A 
ATOM     24  C   UNL     1      -6.415  11.660  17.878  0.00  0.00    +0.000 A 
ATOM     25  C   UNL     1      -5.487  11.403  16.871  0.00  0.00    +0.000 A 
ATOM     26  C   UNL     1      -4.110  11.509  17.123  0.00  0.00    +0.000 A 
ATOM     27 CL   UNL     1      -3.075  11.203  15.769  0.00  0.00    +0.000 Cl
BRANCH  23  28
ATOM     28  N   UNL     1      -6.941  12.285  20.213  0.00  0.00    +0.000 N 
ATOM     29  O   UNL     1      -6.907  11.566  21.220  0.00  0.00    +0.000 OA
ATOM     30  O   UNL     1      -7.748  13.211  20.037  0.00  0.00    +0.000 OA
ENDBRANCH  23  28
ENDBRANCH  19  21
ENDBRANCH   9  16
TORSDOF 4
ENDMDL
MODEL 9
REMARK VINA RESULT:      -8.1      3.715     10.776
REMARK  Name = 
REMARK  4 active torsions:
REMARK  status: ('A' for Active; 'I' for Inactive)
REMARK    1  A    between atoms: C_4  and  C_5
REMARK    2  A    between atoms: C_15  and  C_16
REMARK    3  A    between atoms: C_19  and  C_20
REMARK    4  A    between atoms: C_22  and  N_23
REMARK                            x       y       z     vdW  Elec       q    Type
REMARK                         _______ _______ _______ _____ _____    ______ ____
ROOT
ATOM      1  O   UNL     1       0.236   9.571  21.686  0.00  0.00    +0.000 OA
ATOM      2  C   UNL     1      -0.263  10.681  21.579  0.00  0.00    +0.000 C 
ATOM      3  O   UNL     1      -1.477  10.972  22.061  0.00  0.00    +0.000 OA
ATOM      4  C   UNL     1      -1.557  12.208  22.753  0.00  0.00    +0.000 C 
ATOM      5  O   UNL     1      -1.008  13.339  22.084  0.00  0.00    +0.000 OA
ATOM      6  C   UNL     1       0.143  13.170  21.408  0.00  0.00    +0.000 C 
ATOM      7  O   UNL     1       0.894  14.105  21.163  0.00  0.00    +0.000 OA
ATOM      8  C   UNL     1       0.361  11.814  20.895  0.00  0.00    +0.000 C 
ATOM      9  C   UNL     1       1.056  11.706  19.747  0.00  0.00    +0.000 C 
ENDROOT
BRANCH   4  10
ATOM     10  C   UNL     1      -3.028  12.421  23.028  0.00  0.00    +0.000 A 
ATOM     11  C   UNL     1      -3.880  12.790  21.973  0.00  0.00    +0.000 A 
ATOM     12  C   UNL     1      -5.222  13.086  22.210  0.00  0.00    +0.000 A 
ATOM     13  C   UNL     1      -5.730  13.027  23.506  0.00  0.00    +0.000 A 
ATOM     14  C   UNL     1      -4.898  12.666  24.564  0.00  0.00    +0.000 A 
ATOM     15  C   UNL     1      -3.554  12.368  24.330  0.00  0.00    +0.000 A 
ENDBRANCH   4  10
BRANCH   9  16
ATOM     16  C   UNL     1       1.137  10.506  18.990  0.00  0.00    +0.000 A 
ATOM     17  C   UNL     1       0.262  10.024  18.030  0.00  0.00    +0.000 A 
ATOM     18  C   UNL     1       0.765   8.783  17.572  0.00  0.00    +0.000 A 
ATOM     19  C   UNL     1       1.910   8.526  18.295  0.00  0.00    +0.000 A 
ATOM     20  O   UNL     1       2.121   9.557  19.163  0.00  0.00    +0.000 OA
BRANCH  19  21
ATOM     21  C   UNL     1       2.899   7.444  18.337  0.00  0.00    +0.000 A 
ATOM     22  C   UNL     1       3.923   7.414  17.364  0.00  0.00    +0.000 A 
ATOM     23  C   UNL     1       4.876   6.381  17.354  0.00  0.00    +0.000 A 
ATOM     24  C   UNL     1       4.829   5.364  18.313  0.00  0.00    +0.000 A 
ATOM     25  C   UNL     1       3.827   5.385  19.280  0.00  0.00    +0.000 A 
ATOM     26  C   UNL     1       2.870   6.412  19.297  0.00  0.00    +0.000 A 
ATOM     27 CL   UNL     1       1.710   6.334  20.580  0.00  0.00    +0.000 Cl
BRANCH  23  28
ATOM     28  N   UNL     1       5.927   6.351  16.327  0.00  0.00    +0.000 N 
ATOM     29  O   UNL     1       5.587   6.148  15.155  0.00  0.00    +0.000 OA
ATOM     30  O   UNL     1       7.097   6.529  16.699  0.00  0.00    +0.000 OA
ENDBRANCH  23  28
ENDBRANCH  19  21
ENDBRANCH   9  16
TORSDOF 4
ENDMDL
