MODEL 1
REMARK VINA RESULT:      -5.6      0.000      0.000
REMARK  Name = 
REMARK  6 active torsions:
REMARK  status: ('A' for Active; 'I' for Inactive)
REMARK    1  A    between atoms: C_1  and  C_2
REMARK    2  A    between atoms: C_2  and  O_3
REMARK    3  A    between atoms: O_3  and  C_4
REMARK    4  A    between atoms: C_10  and  S_11
REMARK    5  A    between atoms: N_12  and  C_13
REMARK    6  A    between atoms: C_16  and  C_17
REMARK                            x       y       z     vdW  Elec       q    Type
REMARK                         _______ _______ _______ _____ _____    ______ ____
ROOT
ATOM      1  C   UNL     1      -0.937  11.992  21.588  0.00  0.00    +0.000 C 
ATOM      2  O   UNL     1      -0.941  13.074  21.013  0.00  0.00    +0.000 OA
ATOM      3  N   UNL     1      -0.526  10.813  21.009  0.00  0.00    +0.000 N 
ATOM      4  C   UNL     1       0.006  10.820  19.648  0.00  0.00    +0.000 C 
ATOM      5  C   UNL     1       1.448  10.284  19.624  0.00  0.00    +0.000 C 
ATOM      6  N   UNL     1       1.514   8.955  20.262  0.00  0.00    +0.000 N 
ATOM      7  C   UNL     1       1.889   7.758  19.658  0.00  0.00    +0.000 C 
ATOM      8  N   UNL     1       2.041   6.672  20.365  0.00  0.00    +0.000 NA
ATOM      9  C   UNL     1       1.034   8.979  21.660  0.00  0.00    +0.000 C 
ATOM     10  C   UNL     1      -0.406   9.533  21.719  0.00  0.00    +0.000 C 
ENDROOT
BRANCH   8  11
ATOM     11  C   UNL     1       2.451   5.415  19.876  0.00  0.00    +0.000 A 
ATOM     12  C   UNL     1       3.787   5.085  19.622  0.00  0.00    +0.000 A 
ATOM     13  C   UNL     1       4.147   3.826  19.129  0.00  0.00    +0.000 A 
ATOM     14  C   UNL     1       3.187   2.831  18.955  0.00  0.00    +0.000 A 
ATOM     15  C   UNL     1       3.578   1.477  18.439  0.00  0.00    +0.000 C 
ATOM     16  C   UNL     1       1.861   3.112  19.305  0.00  0.00    +0.000 A 
ATOM     17  C   UNL     1       1.501   4.393  19.753  0.00  0.00    +0.000 A 
ENDBRANCH   8  11
BRANCH   7  18
ATOM     18  S   UNL     1       2.128   7.809  17.908  0.00  0.00    +0.000 S 
ATOM     19  H   UNL     1       3.325   7.207  17.950  0.00  0.00    +0.000 HD
ENDBRANCH   7  18
BRANCH   1  20
ATOM     20  O   UNL     1      -1.268  11.828  22.895  0.00  0.00    +0.000 OA
BRANCH  20  22
ATOM     21  C   UNL     1      -3.450  12.253  23.772  0.00  0.00    +0.000 C 
ATOM     22  C   UNL     1      -2.093  12.856  23.456  0.00  0.00    +0.000 C 
ENDBRANCH  20  22
ENDBRANCH   1  20
TORSDOF 4
ENDMDL
MODEL 2
REMARK VINA RESULT:      -5.6      3.048      8.643
REMARK  Name = 
REMARK  6 active torsions:
REMARK  status: ('A' for Active; 'I' for Inactive)
REMARK    1  A    between atoms: C_1  and  C_2
REMARK    2  A    between atoms: C_2  and  O_3
REMARK    3  A    between atoms: O_3  and  C_4
REMARK    4  A    between atoms: C_10  and  S_11
REMARK    5  A    between atoms: N_12  and  C_13
REMARK    6  A    between atoms: C_16  and  C_17
REMARK                            x       y       z     vdW  Elec       q    Type
REMARK                         _______ _______ _______ _____ _____    ______ ____
ROOT
ATOM      1  C   UNL     1       2.320   7.116  19.118  0.00  0.00    +0.000 C 
ATOM      2  O   UNL     1       2.576   7.015  17.925  0.00  0.00    +0.000 OA
ATOM      3  N   UNL     1       1.831   8.259  19.708  0.00  0.00    +0.000 N 
ATOM      4  C   UNL     1       1.525   9.427  18.885  0.00  0.00    +0.000 C 
ATOM      5  C   UNL     1       0.041   9.810  19.013  0.00  0.00    +0.000 C 
ATOM      6  N   UNL     1      -0.324   9.993  20.431  0.00  0.00    +0.000 N 
ATOM      7  C   UNL     1      -0.776  11.166  21.031  0.00  0.00    +0.000 C 
ATOM      8  N   UNL     1      -1.197  11.164  22.265  0.00  0.00    +0.000 NA
ATOM      9  C   UNL     1      -0.069   8.780  21.238  0.00  0.00    +0.000 C 
ATOM     10  C   UNL     1       1.411   8.358  21.113  0.00  0.00    +0.000 C 
ENDROOT
BRANCH   8  11
ATOM     11  C   UNL     1      -1.711  12.274  22.967  0.00  0.00    +0.000 A 
ATOM     12  C   UNL     1      -0.970  13.433  23.225  0.00  0.00    +0.000 A 
ATOM     13  C   UNL     1      -1.519  14.508  23.932  0.00  0.00    +0.000 A 
ATOM     14  C   UNL     1      -2.855  14.488  24.330  0.00  0.00    +0.000 A 
ATOM     15  C   UNL     1      -3.445  15.648  25.077  0.00  0.00    +0.000 C 
ATOM     16  C   UNL     1      -3.639  13.379  23.987  0.00  0.00    +0.000 A 
ATOM     17  C   UNL     1      -3.066  12.285  23.318  0.00  0.00    +0.000 A 
ENDBRANCH   8  11
BRANCH   7  18
ATOM     18  S   UNL     1      -0.728  12.621  20.031  0.00  0.00    +0.000 S 
ATOM     19  H   UNL     1       0.419  12.289  19.422  0.00  0.00    +0.000 HD
ENDBRANCH   7  18
BRANCH   1  20
ATOM     20  O   UNL     1       2.414   6.088  20.001  0.00  0.00    +0.000 OA
BRANCH  20  22
ATOM     21  C   UNL     1       1.150   4.140  20.565  0.00  0.00    +0.000 C 
ATOM     22  C   UNL     1       2.007   4.808  19.504  0.00  0.00    +0.000 C 
ENDBRANCH  20  22
ENDBRANCH   1  20
TORSDOF 4
ENDMDL
MODEL 3
REMARK VINA RESULT:      -5.5      2.799      4.230
REMARK  Name = 
REMARK  6 active torsions:
REMARK  status: ('A' for Active; 'I' for Inactive)
REMARK    1  A    between atoms: C_1  and  C_2
REMARK    2  A    between atoms: C_2  and  O_3
REMARK    3  A    between atoms: O_3  and  C_4
REMARK    4  A    between atoms: C_10  and  S_11
REMARK    5  A    between atoms: N_12  and  C_13
REMARK    6  A    between atoms: C_16  and  C_17
REMARK                            x       y       z     vdW  Elec       q    Type
REMARK                         _______ _______ _______ _____ _____    ______ ____
ROOT
ATOM      1  C   UNL     1      -3.973  13.685  23.520  0.00  0.00    +0.000 C 
ATOM      2  O   UNL     1      -4.877  14.406  23.114  0.00  0.00    +0.000 OA
ATOM      3  N   UNL     1      -3.336  12.740  22.749  0.00  0.00    +0.000 N 
ATOM      4  C   UNL     1      -3.686  12.598  21.338  0.00  0.00    +0.000 C 
ATOM      5  C   UNL     1      -2.457  12.843  20.445  0.00  0.00    +0.000 C 
ATOM      6  N   UNL     1      -1.340  11.969  20.853  0.00  0.00    +0.000 N 
ATOM      7  C   UNL     1      -0.730  10.983  20.082  0.00  0.00    +0.000 C 
ATOM      8  N   UNL     1       0.340  10.370  20.509  0.00  0.00    +0.000 NA
ATOM      9  C   UNL     1      -0.956  12.171  22.266  0.00  0.00    +0.000 C 
ATOM     10  C   UNL     1      -2.176  11.952  23.187  0.00  0.00    +0.000 C 
ENDROOT
BRANCH   8  11
ATOM     11  C   UNL     1       1.066   9.386  19.807  0.00  0.00    +0.000 A 
ATOM     12  C   UNL     1       1.603   9.588  18.531  0.00  0.00    +0.000 A 
ATOM     13  C   UNL     1       2.311   8.579  17.869  0.00  0.00    +0.000 A 
ATOM     14  C   UNL     1       2.575   7.365  18.500  0.00  0.00    +0.000 A 
ATOM     15  C   UNL     1       3.346   6.290  17.794  0.00  0.00    +0.000 C 
ATOM     16  C   UNL     1       2.135   7.187  19.818  0.00  0.00    +0.000 A 
ATOM     17  C   UNL     1       1.384   8.187  20.457  0.00  0.00    +0.000 A 
ENDBRANCH   8  11
BRANCH   7  18
ATOM     18  S   UNL     1      -1.493  10.622  18.530  0.00  0.00    +0.000 S 
ATOM     19  H   UNL     1      -0.452   9.918  18.066  0.00  0.00    +0.000 HD
ENDBRANCH   7  18
BRANCH   1  20
ATOM     20  O   UNL     1      -3.432  13.778  24.762  0.00  0.00    +0.000 OA
BRANCH  20  22
ATOM     21  C   UNL     1      -1.797  15.497  24.477  0.00  0.00    +0.000 C 
ATOM     22  C   UNL     1      -3.080  15.101  25.185  0.00  0.00    +0.000 C 
ENDBRANCH  20  22
ENDBRANCH   1  20
TORSDOF 4
ENDMDL
MODEL 4
REMARK VINA RESULT:      -5.4      2.952      8.871
REMARK  Name = 
REMARK  6 active torsions:
REMARK  status: ('A' for Active; 'I' for Inactive)
REMARK    1  A    between atoms: C_1  and  C_2
REMARK    2  A    between atoms: C_2  and  O_3
REMARK    3  A    between atoms: O_3  and  C_4
REMARK    4  A    between atoms: C_10  and  S_11
REMARK    5  A    between atoms: N_12  and  C_13
REMARK    6  A    between atoms: C_16  and  C_17
REMARK                            x       y       z     vdW  Elec       q    Type
REMARK                         _______ _______ _______ _____ _____    ______ ____
ROOT
ATOM      1  C   UNL     1       2.150   7.342  19.466  0.00  0.00    +0.000 C 
ATOM      2  O   UNL     1       2.423   7.191  18.282  0.00  0.00    +0.000 OA
ATOM      3  N   UNL     1       1.633   8.502  19.997  0.00  0.00    +0.000 N 
ATOM      4  C   UNL     1       1.319   9.625  19.117  0.00  0.00    +0.000 C 
ATOM      5  C   UNL     1      -0.174   9.988  19.209  0.00  0.00    +0.000 C 
ATOM      6  N   UNL     1      -0.561  10.228  20.613  0.00  0.00    +0.000 N 
ATOM      7  C   UNL     1      -1.040  11.419  21.152  0.00  0.00    +0.000 C 
ATOM      8  N   UNL     1      -1.478  11.467  22.380  0.00  0.00    +0.000 NA
ATOM      9  C   UNL     1      -0.296   9.059  21.477  0.00  0.00    +0.000 C 
ATOM     10  C   UNL     1       1.193   8.658  21.390  0.00  0.00    +0.000 C 
ENDROOT
BRANCH   8  11
ATOM     11  C   UNL     1      -2.020  12.598  23.023  0.00  0.00    +0.000 A 
ATOM     12  C   UNL     1      -3.373  12.720  23.360  0.00  0.00    +0.000 A 
ATOM     13  C   UNL     1      -3.868  13.865  23.992  0.00  0.00    +0.000 A 
ATOM     14  C   UNL     1      -3.007  14.890  24.381  0.00  0.00    +0.000 A 
ATOM     15  C   UNL     1      -3.538  16.112  25.071  0.00  0.00    +0.000 C 
ATOM     16  C   UNL     1      -1.635  14.736  24.145  0.00  0.00    +0.000 A 
ATOM     17  C   UNL     1      -1.153  13.604  23.468  0.00  0.00    +0.000 A 
ENDBRANCH   8  11
BRANCH   7  18
ATOM     18  S   UNL     1      -1.005  12.828  20.087  0.00  0.00    +0.000 S 
ATOM     19  H   UNL     1      -1.399  12.146  19.002  0.00  0.00    +0.000 HD
ENDBRANCH   7  18
BRANCH   1  20
ATOM     20  O   UNL     1       2.250   6.358  20.397  0.00  0.00    +0.000 OA
BRANCH  20  22
ATOM     21  C   UNL     1       1.134   4.246  20.324  0.00  0.00    +0.000 C 
ATOM     22  C   UNL     1       2.358   5.027  19.878  0.00  0.00    +0.000 C 
ENDBRANCH  20  22
ENDBRANCH   1  20
TORSDOF 4
ENDMDL
MODEL 5
REMARK VINA RESULT:      -5.4      0.216      1.064
REMARK  Name = 
REMARK  6 active torsions:
REMARK  status: ('A' for Active; 'I' for Inactive)
REMARK    1  A    between atoms: C_1  and  C_2
REMARK    2  A    between atoms: C_2  and  O_3
REMARK    3  A    between atoms: O_3  and  C_4
REMARK    4  A    between atoms: C_10  and  S_11
REMARK    5  A    between atoms: N_12  and  C_13
REMARK    6  A    between atoms: C_16  and  C_17
REMARK                            x       y       z     vdW  Elec       q    Type
REMARK                         _______ _______ _______ _____ _____    ______ ____
ROOT
ATOM      1  C   UNL     1      -0.844  12.132  21.753  0.00  0.00    +0.000 C 
ATOM      2  O   UNL     1      -0.892  13.204  21.163  0.00  0.00    +0.000 OA
ATOM      3  N   UNL     1      -0.484  10.942  21.162  0.00  0.00    +0.000 N 
ATOM      4  C   UNL     1      -0.067  10.923  19.762  0.00  0.00    +0.000 C 
ATOM      5  C   UNL     1       1.367  10.382  19.628  0.00  0.00    +0.000 C 
ATOM      6  N   UNL     1       1.483   9.064  20.282  0.00  0.00    +0.000 N 
ATOM      7  C   UNL     1       1.804   7.855  19.670  0.00  0.00    +0.000 C 
ATOM      8  N   UNL     1       2.011   6.781  20.380  0.00  0.00    +0.000 NA
ATOM      9  C   UNL     1       1.120   9.113  21.714  0.00  0.00    +0.000 C 
ATOM     10  C   UNL     1      -0.309   9.673  21.883  0.00  0.00    +0.000 C 
ENDROOT
BRANCH   8  11
ATOM     11  C   UNL     1       2.377   5.514  19.881  0.00  0.00    +0.000 A 
ATOM     12  C   UNL     1       1.449   4.544  19.486  0.00  0.00    +0.000 A 
ATOM     13  C   UNL     1       1.858   3.297  19.002  0.00  0.00    +0.000 A 
ATOM     14  C   UNL     1       3.211   3.015  18.821  0.00  0.00    +0.000 A 
ATOM     15  C   UNL     1       3.646   1.681  18.289  0.00  0.00    +0.000 C 
ATOM     16  C   UNL     1       4.148   4.014  19.111  0.00  0.00    +0.000 A 
ATOM     17  C   UNL     1       3.730   5.246  19.641  0.00  0.00    +0.000 A 
ENDBRANCH   8  11
BRANCH   7  18
ATOM     18  S   UNL     1       1.897   7.876  17.905  0.00  0.00    +0.000 S 
ATOM     19  H   UNL     1       1.323   6.674  17.759  0.00  0.00    +0.000 HD
ENDBRANCH   7  18
BRANCH   1  20
ATOM     20  O   UNL     1      -1.066  11.992  23.086  0.00  0.00    +0.000 OA
BRANCH  20  22
ATOM     21  C   UNL     1      -3.380  12.279  23.610  0.00  0.00    +0.000 C 
ATOM     22  C   UNL     1      -2.001  12.915  23.656  0.00  0.00    +0.000 C 
ENDBRANCH  20  22
ENDBRANCH   1  20
TORSDOF 4
ENDMDL
MODEL 6
REMARK VINA RESULT:      -5.3      2.722      4.166
REMARK  Name = 
REMARK  6 active torsions:
REMARK  status: ('A' for Active; 'I' for Inactive)
REMARK    1  A    between atoms: C_1  and  C_2
REMARK    2  A    between atoms: C_2  and  O_3
REMARK    3  A    between atoms: O_3  and  C_4
REMARK    4  A    between atoms: C_10  and  S_11
REMARK    5  A    between atoms: N_12  and  C_13
REMARK    6  A    between atoms: C_16  and  C_17
REMARK                            x       y       z     vdW  Elec       q    Type
REMARK                         _______ _______ _______ _____ _____    ______ ____
ROOT
ATOM      1  C   UNL     1      -3.885  13.756  23.351  0.00  0.00    +0.000 C 
ATOM      2  O   UNL     1      -4.778  14.461  22.897  0.00  0.00    +0.000 OA
ATOM      3  N   UNL     1      -3.240  12.773  22.636  0.00  0.00    +0.000 N 
ATOM      4  C   UNL     1      -3.567  12.566  21.228  0.00  0.00    +0.000 C 
ATOM      5  C   UNL     1      -2.323  12.764  20.344  0.00  0.00    +0.000 C 
ATOM      6  N   UNL     1      -1.218  11.905  20.812  0.00  0.00    +0.000 N 
ATOM      7  C   UNL     1      -0.600  10.881  20.098  0.00  0.00    +0.000 C 
ATOM      8  N   UNL     1       0.460  10.285  20.571  0.00  0.00    +0.000 NA
ATOM      9  C   UNL     1      -0.855  12.172  22.220  0.00  0.00    +0.000 C 
ATOM     10  C   UNL     1      -2.091  12.001  23.130  0.00  0.00    +0.000 C 
ENDROOT
BRANCH   8  11
ATOM     11  C   UNL     1       1.192   9.265  19.928  0.00  0.00    +0.000 A 
ATOM     12  C   UNL     1       1.451   8.019  20.508  0.00  0.00    +0.000 A 
ATOM     13  C   UNL     1       2.189   7.039  19.835  0.00  0.00    +0.000 A 
ATOM     14  C   UNL     1       2.620   7.249  18.527  0.00  0.00    +0.000 A 
ATOM     15  C   UNL     1       3.401   6.192  17.802  0.00  0.00    +0.000 C 
ATOM     16  C   UNL     1       2.278   8.451  17.894  0.00  0.00    +0.000 A 
ATOM     17  C   UNL     1       1.578   9.447  18.594  0.00  0.00    +0.000 A 
ENDBRANCH   8  11
BRANCH   7  18
ATOM     18  S   UNL     1      -1.339  10.451  18.553  0.00  0.00    +0.000 S 
ATOM     19  H   UNL     1      -2.130   9.505  19.078  0.00  0.00    +0.000 HD
ENDBRANCH   7  18
BRANCH   1  20
ATOM     20  O   UNL     1      -3.363  13.905  24.596  0.00  0.00    +0.000 OA
BRANCH  20  22
ATOM     21  C   UNL     1      -1.889  15.410  25.725  0.00  0.00    +0.000 C 
ATOM     22  C   UNL     1      -3.244  15.256  25.058  0.00  0.00    +0.000 C 
ENDBRANCH  20  22
ENDBRANCH   1  20
TORSDOF 4
ENDMDL
MODEL 7
REMARK VINA RESULT:      -5.3      4.213      8.484
REMARK  Name = 
REMARK  6 active torsions:
REMARK  status: ('A' for Active; 'I' for Inactive)
REMARK    1  A    between atoms: C_1  and  C_2
REMARK    2  A    between atoms: C_2  and  O_3
REMARK    3  A    between atoms: O_3  and  C_4
REMARK    4  A    between atoms: C_10  and  S_11
REMARK    5  A    between atoms: N_12  and  C_13
REMARK    6  A    between atoms: C_16  and  C_17
REMARK                            x       y       z     vdW  Elec       q    Type
REMARK                         _______ _______ _______ _____ _____    ______ ____
ROOT
ATOM      1  C   UNL     1       2.151   2.910  19.078  0.00  0.00    +0.000 C 
ATOM      2  O   UNL     1       2.319   2.165  20.035  0.00  0.00    +0.000 OA
ATOM      3  N   UNL     1       1.703   4.208  19.179  0.00  0.00    +0.000 N 
ATOM      4  C   UNL     1       1.461   4.791  20.497  0.00  0.00    +0.000 C 
ATOM      5  C   UNL     1       2.342   6.034  20.713  0.00  0.00    +0.000 C 
ATOM      6  N   UNL     1       2.152   6.997  19.612  0.00  0.00    +0.000 N 
ATOM      7  C   UNL     1       1.656   8.294  19.716  0.00  0.00    +0.000 C 
ATOM      8  N   UNL     1       1.666   9.097  18.688  0.00  0.00    +0.000 NA
ATOM      9  C   UNL     1       2.465   6.411  18.292  0.00  0.00    +0.000 C 
ATOM     10  C   UNL     1       1.609   5.148  18.054  0.00  0.00    +0.000 C 
ENDROOT
BRANCH   8  11
ATOM     11  C   UNL     1       1.228  10.437  18.679  0.00  0.00    +0.000 A 
ATOM     12  C   UNL     1       2.087  11.528  18.509  0.00  0.00    +0.000 A 
ATOM     13  C   UNL     1       1.608  12.842  18.514  0.00  0.00    +0.000 A 
ATOM     14  C   UNL     1       0.242  13.100  18.606  0.00  0.00    +0.000 A 
ATOM     15  C   UNL     1      -0.271  14.510  18.598  0.00  0.00    +0.000 C 
ATOM     16  C   UNL     1      -0.641  12.014  18.671  0.00  0.00    +0.000 A 
ATOM     17  C   UNL     1      -0.148  10.700  18.713  0.00  0.00    +0.000 A 
ENDBRANCH   8  11
BRANCH   7  18
ATOM     18  S   UNL     1       1.018   8.760  21.297  0.00  0.00    +0.000 S 
ATOM     19  H   UNL     1       0.863  10.050  20.968  0.00  0.00    +0.000 HD
ENDBRANCH   7  18
BRANCH   1  20
ATOM     20  O   UNL     1       2.458   2.577  17.797  0.00  0.00    +0.000 OA
BRANCH  20  22
ATOM     21  C   UNL     1       4.618   3.375  17.158  0.00  0.00    +0.000 C 
ATOM     22  C   UNL     1       3.810   2.159  17.575  0.00  0.00    +0.000 C 
ENDBRANCH  20  22
ENDBRANCH   1  20
TORSDOF 4
ENDMDL
MODEL 8
REMARK VINA RESULT:      -5.3      4.235      8.546
REMARK  Name = 
REMARK  6 active torsions:
REMARK  status: ('A' for Active; 'I' for Inactive)
REMARK    1  A    between atoms: C_1  and  C_2
REMARK    2  A    between atoms: C_2  and  O_3
REMARK    3  A    between atoms: O_3  and  C_4
REMARK    4  A    between atoms: C_10  and  S_11
REMARK    5  A    between atoms: N_12  and  C_13
REMARK    6  A    between atoms: C_16  and  C_17
REMARK                            x       y       z     vdW  Elec       q    Type
REMARK                         _______ _______ _______ _____ _____    ______ ____
ROOT
ATOM      1  C   UNL     1       2.086   2.845  19.061  0.00  0.00    +0.000 C 
ATOM      2  O   UNL     1       2.285   2.118  20.026  0.00  0.00    +0.000 OA
ATOM      3  N   UNL     1       1.625   4.139  19.152  0.00  0.00    +0.000 N 
ATOM      4  C   UNL     1       1.408   4.741  20.466  0.00  0.00    +0.000 C 
ATOM      5  C   UNL     1       2.279   5.997  20.640  0.00  0.00    +0.000 C 
ATOM      6  N   UNL     1       2.052   6.941  19.528  0.00  0.00    +0.000 N 
ATOM      7  C   UNL     1       1.543   8.233  19.624  0.00  0.00    +0.000 C 
ATOM      8  N   UNL     1       1.518   9.019  18.583  0.00  0.00    +0.000 NA
ATOM      9  C   UNL     1       2.339   6.336  18.211  0.00  0.00    +0.000 C 
ATOM     10  C   UNL     1       1.493   5.059  18.014  0.00  0.00    +0.000 C 
ENDROOT
BRANCH   8  11
ATOM     11  C   UNL     1       1.065  10.354  18.562  0.00  0.00    +0.000 A 
ATOM     12  C   UNL     1      -0.287  10.710  18.630  0.00  0.00    +0.000 A 
ATOM     13  C   UNL     1      -0.691  12.049  18.599  0.00  0.00    +0.000 A 
ATOM     14  C   UNL     1       0.251  13.075  18.584  0.00  0.00    +0.000 A 
ATOM     15  C   UNL     1      -0.186  14.510  18.565  0.00  0.00    +0.000 C 
ATOM     16  C   UNL     1       1.609  12.737  18.624  0.00  0.00    +0.000 A 
ATOM     17  C   UNL     1       2.006  11.390  18.606  0.00  0.00    +0.000 A 
ENDBRANCH   8  11
BRANCH   7  18
ATOM     18  S   UNL     1       0.938   8.718  21.211  0.00  0.00    +0.000 S 
ATOM     19  H   UNL     1      -0.348   8.719  20.835  0.00  0.00    +0.000 HD
ENDBRANCH   7  18
BRANCH   1  20
ATOM     20  O   UNL     1       2.365   2.494  17.779  0.00  0.00    +0.000 OA
BRANCH  20  22
ATOM     21  C   UNL     1       4.460   3.417  17.092  0.00  0.00    +0.000 C 
ATOM     22  C   UNL     1       3.732   2.154  17.517  0.00  0.00    +0.000 C 
ENDBRANCH  20  22
ENDBRANCH   1  20
TORSDOF 4
ENDMDL
MODEL 9
REMARK VINA RESULT:      -5.2      2.190      3.054
REMARK  Name = 
REMARK  6 active torsions:
REMARK  status: ('A' for Active; 'I' for Inactive)
REMARK    1  A    between atoms: C_1  and  C_2
REMARK    2  A    between atoms: C_2  and  O_3
REMARK    3  A    between atoms: O_3  and  C_4
REMARK    4  A    between atoms: C_10  and  S_11
REMARK    5  A    between atoms: N_12  and  C_13
REMARK    6  A    between atoms: C_16  and  C_17
REMARK                            x       y       z     vdW  Elec       q    Type
REMARK                         _______ _______ _______ _____ _____    ______ ____
ROOT
ATOM      1  C   UNL     1      -0.120  11.387  22.140  0.00  0.00    +0.000 C 
ATOM      2  O   UNL     1      -0.690  11.247  23.215  0.00  0.00    +0.000 OA
ATOM      3  N   UNL     1       0.733  10.455  21.593  0.00  0.00    +0.000 N 
ATOM      4  C   UNL     1       0.950   9.181  22.275  0.00  0.00    +0.000 C 
ATOM      5  C   UNL     1       0.540   8.004  21.373  0.00  0.00    +0.000 C 
ATOM      6  N   UNL     1       1.230   8.087  20.072  0.00  0.00    +0.000 N 
ATOM      7  C   UNL     1       2.127   7.161  19.544  0.00  0.00    +0.000 C 
ATOM      8  N   UNL     1       2.566   7.279  18.322  0.00  0.00    +0.000 NA
ATOM      9  C   UNL     1       0.948   9.354  19.365  0.00  0.00    +0.000 C 
ATOM     10  C   UNL     1       1.331  10.557  20.255  0.00  0.00    +0.000 C 
ENDROOT
BRANCH   8  11
ATOM     11  C   UNL     1       3.442   6.390  17.666  0.00  0.00    +0.000 A 
ATOM     12  C   UNL     1       3.203   5.017  17.550  0.00  0.00    +0.000 A 
ATOM     13  C   UNL     1       4.105   4.171  16.896  0.00  0.00    +0.000 A 
ATOM     14  C   UNL     1       5.235   4.689  16.266  0.00  0.00    +0.000 A 
ATOM     15  C   UNL     1       6.195   3.781  15.555  0.00  0.00    +0.000 C 
ATOM     16  C   UNL     1       5.434   6.075  16.283  0.00  0.00    +0.000 A 
ATOM     17  C   UNL     1       4.548   6.911  16.982  0.00  0.00    +0.000 A 
ENDBRANCH   8  11
BRANCH   7  18
ATOM     18  S   UNL     1       2.625   5.855  20.625  0.00  0.00    +0.000 S 
ATOM     19  H   UNL     1       3.839   6.372  20.858  0.00  0.00    +0.000 HD
ENDBRANCH   7  18
BRANCH   1  20
ATOM     20  O   UNL     1      -0.314  12.446  21.312  0.00  0.00    +0.000 OA
BRANCH  20  22
ATOM     21  C   UNL     1      -1.974  12.212  19.609  0.00  0.00    +0.000 C 
ATOM     22  C   UNL     1      -1.680  12.743  21.001  0.00  0.00    +0.000 C 
ENDBRANCH  20  22
ENDBRANCH   1  20
TORSDOF 4
ENDMDL
