MODEL 1
REMARK VINA RESULT:      -8.0      0.000      0.000
REMARK  Name = 
REMARK  7 active torsions:
REMARK  status: ('A' for Active; 'I' for Inactive)
REMARK    1  A    between atoms: C_1  and  O_2
REMARK    2  A    between atoms: O_2  and  C_3
REMARK    3  A    between atoms: C_3  and  C_4
REMARK    4  A    between atoms: C_7  and  C_8
REMARK    5  A    between atoms: C_12  and  C_13
REMARK    6  A    between atoms: C_15  and  O_16
REMARK    7  A    between atoms: C_18  and  C_19
REMARK                            x       y       z     vdW  Elec       q    Type
REMARK                         _______ _______ _______ _____ _____    ______ ____
ROOT
ATOM      1  C   UNL     1       2.344   7.228  19.773  0.00  0.00    +0.000 C 
ATOM      2  C   UNL     1       2.511   7.270  18.253  0.00  0.00    +0.000 C 
ATOM      3  C   UNL     1       3.529   6.220  17.816  0.00  0.00    +0.000 C 
ATOM      4  C   UNL     1       3.279   4.847  18.405  0.00  0.00    +0.000 A 
ATOM      5  C   UNL     1       3.895   3.707  17.853  0.00  0.00    +0.000 A 
ATOM      6  C   UNL     1       3.637   2.469  18.431  0.00  0.00    +0.000 A 
ATOM      7  N   UNL     1       2.833   2.301  19.498  0.00  0.00    +0.000 NA
ATOM      8  C   UNL     1       2.253   3.393  20.043  0.00  0.00    +0.000 A 
ATOM      9  C   UNL     1       1.344   3.135  21.213  0.00  0.00    +0.000 C 
ATOM     10  C   UNL     1       2.464   4.689  19.548  0.00  0.00    +0.000 A 
ATOM     11  C   UNL     1       1.769   5.866  20.190  0.00  0.00    +0.000 C 
ENDROOT
BRANCH   1  15
ATOM     12  C   UNL     1      -0.153  10.463  21.229  0.00  0.00    +0.000 A 
ATOM     13  C   UNL     1       0.277  10.446  19.895  0.00  0.00    +0.000 A 
ATOM     14  C   UNL     1       1.081   9.408  19.426  0.00  0.00    +0.000 A 
ATOM     15  C   UNL     1       1.477   8.365  20.275  0.00  0.00    +0.000 A 
ATOM     16  C   UNL     1       1.048   8.384  21.608  0.00  0.00    +0.000 A 
ATOM     17  C   UNL     1       0.244   9.424  22.079  0.00  0.00    +0.000 A 
BRANCH  12  18
ATOM     18  C   UNL     1      -1.005  11.589  21.747  0.00  0.00    +0.000 C 
BRANCH  18  20
ATOM     19  C   UNL     1      -2.653  11.934  23.384  0.00  0.00    +0.000 C 
ATOM     20  O   UNL     1      -1.409  11.312  23.086  0.00  0.00    +0.000 OA
ENDBRANCH  18  20
ENDBRANCH  12  18
ENDBRANCH   1  15
BRANCH   5  21
ATOM     21  C   UNL     1       4.771   3.804  16.728  0.00  0.00    +0.000 C 
ATOM     22  N   UNL     1       5.515   3.865  15.841  0.00  0.00    +0.000 NA
ENDBRANCH   5  21
BRANCH   6  23
ATOM     23  O   UNL     1       4.170   1.294  17.985  0.00  0.00    +0.000 OA
ATOM     24  H   UNL     1       5.037   1.439  17.575  0.00  0.00    +0.000 HD
ENDBRANCH   6  23
TORSDOF 5
ENDMDL
MODEL 2
REMARK VINA RESULT:      -8.0      0.191      1.021
REMARK  Name = 
REMARK  7 active torsions:
REMARK  status: ('A' for Active; 'I' for Inactive)
REMARK    1  A    between atoms: C_1  and  O_2
REMARK    2  A    between atoms: O_2  and  C_3
REMARK    3  A    between atoms: C_3  and  C_4
REMARK    4  A    between atoms: C_7  and  C_8
REMARK    5  A    between atoms: C_12  and  C_13
REMARK    6  A    between atoms: C_15  and  O_16
REMARK    7  A    between atoms: C_18  and  C_19
REMARK                            x       y       z     vdW  Elec       q    Type
REMARK                         _______ _______ _______ _____ _____    ______ ____
ROOT
ATOM      1  C   UNL     1       2.311   7.292  19.905  0.00  0.00    +0.000 C 
ATOM      2  C   UNL     1       2.440   7.374  18.383  0.00  0.00    +0.000 C 
ATOM      3  C   UNL     1       3.452   6.342  17.893  0.00  0.00    +0.000 C 
ATOM      4  C   UNL     1       3.223   4.952  18.452  0.00  0.00    +0.000 A 
ATOM      5  C   UNL     1       3.831   3.830  17.855  0.00  0.00    +0.000 A 
ATOM      6  C   UNL     1       3.593   2.577  18.407  0.00  0.00    +0.000 A 
ATOM      7  N   UNL     1       2.816   2.376  19.488  0.00  0.00    +0.000 NA
ATOM      8  C   UNL     1       2.245   3.451  20.076  0.00  0.00    +0.000 A 
ATOM      9  C   UNL     1       1.367   3.158  21.262  0.00  0.00    +0.000 C 
ATOM     10  C   UNL     1       2.438   4.760  19.610  0.00  0.00    +0.000 A 
ATOM     11  C   UNL     1       1.753   5.916  20.300  0.00  0.00    +0.000 C 
ENDROOT
BRANCH   1  15
ATOM     12  C   UNL     1      -0.136  10.515  21.467  0.00  0.00    +0.000 A 
ATOM     13  C   UNL     1       0.365   9.527  22.325  0.00  0.00    +0.000 A 
ATOM     14  C   UNL     1       1.150   8.488  21.825  0.00  0.00    +0.000 A 
ATOM     15  C   UNL     1       1.452   8.411  20.458  0.00  0.00    +0.000 A 
ATOM     16  C   UNL     1       0.950   9.398  19.601  0.00  0.00    +0.000 A 
ATOM     17  C   UNL     1       0.162  10.436  20.102  0.00  0.00    +0.000 A 
BRANCH  12  18
ATOM     18  C   UNL     1      -0.998  11.627  21.997  0.00  0.00    +0.000 C 
BRANCH  18  20
ATOM     19  C   UNL     1      -2.801  12.042  23.444  0.00  0.00    +0.000 C 
ATOM     20  O   UNL     1      -1.712  11.178  23.148  0.00  0.00    +0.000 OA
ENDBRANCH  18  20
ENDBRANCH  12  18
ENDBRANCH   1  15
BRANCH   5  21
ATOM     21  C   UNL     1       4.678   3.961  16.712  0.00  0.00    +0.000 C 
ATOM     22  N   UNL     1       5.388   4.029  15.797  0.00  0.00    +0.000 NA
ENDBRANCH   5  21
BRANCH   6  23
ATOM     23  O   UNL     1       4.120   1.416  17.917  0.00  0.00    +0.000 OA
ATOM     24  H   UNL     1       3.420   0.818  17.611  0.00  0.00    +0.000 HD
ENDBRANCH   6  23
TORSDOF 5
ENDMDL
MODEL 3
REMARK VINA RESULT:      -7.5      1.217      1.747
REMARK  Name = 
REMARK  7 active torsions:
REMARK  status: ('A' for Active; 'I' for Inactive)
REMARK    1  A    between atoms: C_1  and  O_2
REMARK    2  A    between atoms: O_2  and  C_3
REMARK    3  A    between atoms: C_3  and  C_4
REMARK    4  A    between atoms: C_7  and  C_8
REMARK    5  A    between atoms: C_12  and  C_13
REMARK    6  A    between atoms: C_15  and  O_16
REMARK    7  A    between atoms: C_18  and  C_19
REMARK                            x       y       z     vdW  Elec       q    Type
REMARK                         _______ _______ _______ _____ _____    ______ ____
ROOT
ATOM      1  C   UNL     1       2.069   8.189  20.098  0.00  0.00    +0.000 C 
ATOM      2  C   UNL     1       2.060   8.478  18.595  0.00  0.00    +0.000 C 
ATOM      3  C   UNL     1       3.199   7.721  17.917  0.00  0.00    +0.000 C 
ATOM      4  C   UNL     1       3.267   6.256  18.297  0.00  0.00    +0.000 A 
ATOM      5  C   UNL     1       4.017   5.349  17.523  0.00  0.00    +0.000 A 
ATOM      6  C   UNL     1       4.052   4.016  17.915  0.00  0.00    +0.000 A 
ATOM      7  N   UNL     1       3.412   3.544  19.001  0.00  0.00    +0.000 NA
ATOM      8  C   UNL     1       2.706   4.412  19.758  0.00  0.00    +0.000 A 
ATOM      9  C   UNL     1       1.991   3.818  20.941  0.00  0.00    +0.000 C 
ATOM     10  C   UNL     1       2.624   5.781  19.461  0.00  0.00    +0.000 A 
ATOM     11  C   UNL     1       1.800   6.696  20.336  0.00  0.00    +0.000 C 
ENDROOT
BRANCH   1  15
ATOM     12  C   UNL     1      -0.784  10.683  22.210  0.00  0.00    +0.000 A 
ATOM     13  C   UNL     1      -0.062   9.696  22.896  0.00  0.00    +0.000 A 
ATOM     14  C   UNL     1       0.853   8.892  22.218  0.00  0.00    +0.000 A 
ATOM     15  C   UNL     1       1.070   9.052  20.842  0.00  0.00    +0.000 A 
ATOM     16  C   UNL     1       0.347  10.037  20.158  0.00  0.00    +0.000 A 
ATOM     17  C   UNL     1      -0.572  10.840  20.836  0.00  0.00    +0.000 A 
BRANCH  12  18
ATOM     18  C   UNL     1      -1.787  11.540  22.931  0.00  0.00    +0.000 C 
BRANCH  18  20
ATOM     19  C   UNL     1      -2.092  13.787  23.541  0.00  0.00    +0.000 C 
ATOM     20  O   UNL     1      -1.155  12.727  23.406  0.00  0.00    +0.000 OA
ENDBRANCH  18  20
ENDBRANCH  12  18
ENDBRANCH   1  15
BRANCH   5  21
ATOM     21  C   UNL     1       4.734   5.774  16.362  0.00  0.00    +0.000 C 
ATOM     22  N   UNL     1       5.276   6.127  15.400  0.00  0.00    +0.000 NA
ENDBRANCH   5  21
BRANCH   6  23
ATOM     23  O   UNL     1       4.738   3.043  17.246  0.00  0.00    +0.000 OA
ATOM     24  H   UNL     1       5.692   3.117  17.406  0.00  0.00    +0.000 HD
ENDBRANCH   6  23
TORSDOF 5
ENDMDL
MODEL 4
REMARK VINA RESULT:      -7.5      1.228      1.412
REMARK  Name = 
REMARK  7 active torsions:
REMARK  status: ('A' for Active; 'I' for Inactive)
REMARK    1  A    between atoms: C_1  and  O_2
REMARK    2  A    between atoms: O_2  and  C_3
REMARK    3  A    between atoms: C_3  and  C_4
REMARK    4  A    between atoms: C_7  and  C_8
REMARK    5  A    between atoms: C_12  and  C_13
REMARK    6  A    between atoms: C_15  and  O_16
REMARK    7  A    between atoms: C_18  and  C_19
REMARK                            x       y       z     vdW  Elec       q    Type
REMARK                         _______ _______ _______ _____ _____    ______ ____
ROOT
ATOM      1  C   UNL     1       2.088   8.167  19.965  0.00  0.00    +0.000 C 
ATOM      2  C   UNL     1       2.082   8.424  18.457  0.00  0.00    +0.000 C 
ATOM      3  C   UNL     1       3.224   7.658  17.797  0.00  0.00    +0.000 C 
ATOM      4  C   UNL     1       3.297   6.202  18.207  0.00  0.00    +0.000 A 
ATOM      5  C   UNL     1       4.052   5.282  17.453  0.00  0.00    +0.000 A 
ATOM      6  C   UNL     1       4.090   3.956  17.872  0.00  0.00    +0.000 A 
ATOM      7  N   UNL     1       3.450   3.504  18.966  0.00  0.00    +0.000 NA
ATOM      8  C   UNL     1       2.738   4.386  19.703  0.00  0.00    +0.000 A 
ATOM      9  C   UNL     1       2.023   3.813  20.896  0.00  0.00    +0.000 C 
ATOM     10  C   UNL     1       2.652   5.748  19.379  0.00  0.00    +0.000 A 
ATOM     11  C   UNL     1       1.823   6.678  20.233  0.00  0.00    +0.000 C 
ENDROOT
BRANCH   1  15
ATOM     12  C   UNL     1      -0.794  10.643  22.058  0.00  0.00    +0.000 A 
ATOM     13  C   UNL     1      -0.600  10.795  20.678  0.00  0.00    +0.000 A 
ATOM     14  C   UNL     1       0.327  10.001  20.004  0.00  0.00    +0.000 A 
ATOM     15  C   UNL     1       1.084   9.040  20.690  0.00  0.00    +0.000 A 
ATOM     16  C   UNL     1       0.890   8.891  22.069  0.00  0.00    +0.000 A 
ATOM     17  C   UNL     1      -0.036   9.688  22.744  0.00  0.00    +0.000 A 
BRANCH  12  18
ATOM     18  C   UNL     1      -1.779  11.509  22.795  0.00  0.00    +0.000 C 
BRANCH  18  20
ATOM     19  C   UNL     1      -1.217  13.788  22.728  0.00  0.00    +0.000 C 
ATOM     20  O   UNL     1      -1.091  12.572  23.452  0.00  0.00    +0.000 OA
ENDBRANCH  18  20
ENDBRANCH  12  18
ENDBRANCH   1  15
BRANCH   5  21
ATOM     21  C   UNL     1       4.770   5.685  16.286  0.00  0.00    +0.000 C 
ATOM     22  N   UNL     1       5.391   6.009  15.361  0.00  0.00    +0.000 NA
ENDBRANCH   5  21
BRANCH   6  23
ATOM     23  O   UNL     1       4.781   2.973  17.224  0.00  0.00    +0.000 OA
ATOM     24  H   UNL     1       4.254   2.595  16.502  0.00  0.00    +0.000 HD
ENDBRANCH   6  23
TORSDOF 5
ENDMDL
MODEL 5
REMARK VINA RESULT:      -7.2      1.212      1.688
REMARK  Name = 
REMARK  7 active torsions:
REMARK  status: ('A' for Active; 'I' for Inactive)
REMARK    1  A    between atoms: C_1  and  O_2
REMARK    2  A    between atoms: O_2  and  C_3
REMARK    3  A    between atoms: C_3  and  C_4
REMARK    4  A    between atoms: C_7  and  C_8
REMARK    5  A    between atoms: C_12  and  C_13
REMARK    6  A    between atoms: C_15  and  O_16
REMARK    7  A    between atoms: C_18  and  C_19
REMARK                            x       y       z     vdW  Elec       q    Type
REMARK                         _______ _______ _______ _____ _____    ______ ____
ROOT
ATOM      1  C   UNL     1       2.556   7.453  19.098  0.00  0.00    +0.000 C 
ATOM      2  C   UNL     1       2.953   7.416  17.622  0.00  0.00    +0.000 C 
ATOM      3  C   UNL     1       3.949   6.285  17.382  0.00  0.00    +0.000 C 
ATOM      4  C   UNL     1       3.515   4.958  17.972  0.00  0.00    +0.000 A 
ATOM      5  C   UNL     1       4.125   3.757  17.561  0.00  0.00    +0.000 A 
ATOM      6  C   UNL     1       3.695   2.566  18.134  0.00  0.00    +0.000 A 
ATOM      7  N   UNL     1       2.729   2.498  19.069  0.00  0.00    +0.000 NA
ATOM      8  C   UNL     1       2.152   3.649  19.481  0.00  0.00    +0.000 A 
ATOM      9  C   UNL     1       1.061   3.503  20.505  0.00  0.00    +0.000 C 
ATOM     10  C   UNL     1       2.528   4.905  18.981  0.00  0.00    +0.000 A 
ATOM     11  C   UNL     1       1.829   6.152  19.468  0.00  0.00    +0.000 C 
ENDROOT
BRANCH   1  15
ATOM     12  C   UNL     1       0.143  10.942  20.008  0.00  0.00    +0.000 A 
ATOM     13  C   UNL     1       0.319   9.934  20.966  0.00  0.00    +0.000 A 
ATOM     14  C   UNL     1       1.092   8.811  20.675  0.00  0.00    +0.000 A 
ATOM     15  C   UNL     1       1.706   8.666  19.422  0.00  0.00    +0.000 A 
ATOM     16  C   UNL     1       1.528   9.673  18.465  0.00  0.00    +0.000 A 
ATOM     17  C   UNL     1       0.751  10.796  18.756  0.00  0.00    +0.000 A 
BRANCH  12  18
ATOM     18  C   UNL     1      -0.706  12.147  20.308  0.00  0.00    +0.000 C 
BRANCH  18  20
ATOM     19  C   UNL     1      -2.667  11.948  19.033  0.00  0.00    +0.000 C 
ATOM     20  O   UNL     1      -2.083  11.777  20.318  0.00  0.00    +0.000 OA
ENDBRANCH  18  20
ENDBRANCH  12  18
ENDBRANCH   1  15
BRANCH   5  21
ATOM     21  C   UNL     1       5.166   3.747  16.582  0.00  0.00    +0.000 C 
ATOM     22  N   UNL     1       6.026   3.777  15.804  0.00  0.00    +0.000 NA
ENDBRANCH   5  21
BRANCH   6  23
ATOM     23  O   UNL     1       4.205   1.340  17.815  0.00  0.00    +0.000 OA
ATOM     24  H   UNL     1       5.141   1.278  18.060  0.00  0.00    +0.000 HD
ENDBRANCH   6  23
TORSDOF 5
ENDMDL
MODEL 6
REMARK VINA RESULT:      -7.1      2.041      2.252
REMARK  Name = 
REMARK  7 active torsions:
REMARK  status: ('A' for Active; 'I' for Inactive)
REMARK    1  A    between atoms: C_1  and  O_2
REMARK    2  A    between atoms: O_2  and  C_3
REMARK    3  A    between atoms: C_3  and  C_4
REMARK    4  A    between atoms: C_7  and  C_8
REMARK    5  A    between atoms: C_12  and  C_13
REMARK    6  A    between atoms: C_15  and  O_16
REMARK    7  A    between atoms: C_18  and  C_19
REMARK                            x       y       z     vdW  Elec       q    Type
REMARK                         _______ _______ _______ _____ _____    ______ ____
ROOT
ATOM      1  C   UNL     1       2.337   7.790  19.277  0.00  0.00    +0.000 C 
ATOM      2  C   UNL     1       3.052   7.615  17.936  0.00  0.00    +0.000 C 
ATOM      3  C   UNL     1       4.262   6.702  18.110  0.00  0.00    +0.000 C 
ATOM      4  C   UNL     1       3.953   5.418  18.854  0.00  0.00    +0.000 A 
ATOM      5  C   UNL     1       4.845   4.329  18.804  0.00  0.00    +0.000 A 
ATOM      6  C   UNL     1       4.519   3.174  19.507  0.00  0.00    +0.000 A 
ATOM      7  N   UNL     1       3.398   3.042  20.240  0.00  0.00    +0.000 NA
ATOM      8  C   UNL     1       2.547   4.091  20.307  0.00  0.00    +0.000 A 
ATOM      9  C   UNL     1       1.301   3.871  21.119  0.00  0.00    +0.000 C 
ATOM     10  C   UNL     1       2.793   5.307  19.652  0.00  0.00    +0.000 A 
ATOM     11  C   UNL     1       1.791   6.434  19.749  0.00  0.00    +0.000 C 
ENDROOT
BRANCH   1  15
ATOM     12  C   UNL     1      -0.835  10.741  19.070  0.00  0.00    +0.000 A 
ATOM     13  C   UNL     1      -0.268  10.229  17.895  0.00  0.00    +0.000 A 
ATOM     14  C   UNL     1       0.754   9.282  17.960  0.00  0.00    +0.000 A 
ATOM     15  C   UNL     1       1.234   8.825  19.196  0.00  0.00    +0.000 A 
ATOM     16  C   UNL     1       0.666   9.339  20.369  0.00  0.00    +0.000 A 
ATOM     17  C   UNL     1      -0.354  10.290  20.304  0.00  0.00    +0.000 A 
BRANCH  12  18
ATOM     18  C   UNL     1      -1.924  11.777  19.008  0.00  0.00    +0.000 C 
BRANCH  18  20
ATOM     19  C   UNL     1      -3.889  11.427  17.770  0.00  0.00    +0.000 C 
ATOM     20  O   UNL     1      -2.513  11.780  17.709  0.00  0.00    +0.000 OA
ENDBRANCH  18  20
ENDBRANCH  12  18
ENDBRANCH   1  15
BRANCH   5  21
ATOM     21  C   UNL     1       6.061   4.394  18.058  0.00  0.00    +0.000 C 
ATOM     22  N   UNL     1       7.060   4.406  17.468  0.00  0.00    +0.000 NA
ENDBRANCH   5  21
BRANCH   6  23
ATOM     23  O   UNL     1       5.297   2.053  19.532  0.00  0.00    +0.000 OA
ATOM     24  H   UNL     1       5.580   1.845  20.437  0.00  0.00    +0.000 HD
ENDBRANCH   6  23
TORSDOF 5
ENDMDL
MODEL 7
REMARK VINA RESULT:      -7.0      2.049      2.434
REMARK  Name = 
REMARK  7 active torsions:
REMARK  status: ('A' for Active; 'I' for Inactive)
REMARK    1  A    between atoms: C_1  and  O_2
REMARK    2  A    between atoms: O_2  and  C_3
REMARK    3  A    between atoms: C_3  and  C_4
REMARK    4  A    between atoms: C_7  and  C_8
REMARK    5  A    between atoms: C_12  and  C_13
REMARK    6  A    between atoms: C_15  and  O_16
REMARK    7  A    between atoms: C_18  and  C_19
REMARK                            x       y       z     vdW  Elec       q    Type
REMARK                         _______ _______ _______ _____ _____    ______ ____
ROOT
ATOM      1  C   UNL     1       2.320   7.794  19.308  0.00  0.00    +0.000 C 
ATOM      2  C   UNL     1       3.041   7.629  17.969  0.00  0.00    +0.000 C 
ATOM      3  C   UNL     1       4.250   6.714  18.141  0.00  0.00    +0.000 C 
ATOM      4  C   UNL     1       3.938   5.425  18.875  0.00  0.00    +0.000 A 
ATOM      5  C   UNL     1       4.829   4.336  18.821  0.00  0.00    +0.000 A 
ATOM      6  C   UNL     1       4.500   3.176  19.514  0.00  0.00    +0.000 A 
ATOM      7  N   UNL     1       3.376   3.039  20.241  0.00  0.00    +0.000 NA
ATOM      8  C   UNL     1       2.526   4.087  20.312  0.00  0.00    +0.000 A 
ATOM      9  C   UNL     1       1.275   3.862  21.117  0.00  0.00    +0.000 C 
ATOM     10  C   UNL     1       2.775   5.308  19.667  0.00  0.00    +0.000 A 
ATOM     11  C   UNL     1       1.773   6.434  19.768  0.00  0.00    +0.000 C 
ENDROOT
BRANCH   1  15
ATOM     12  C   UNL     1      -0.822  10.774  19.059  0.00  0.00    +0.000 A 
ATOM     13  C   UNL     1      -0.400  10.293  20.306  0.00  0.00    +0.000 A 
ATOM     14  C   UNL     1       0.608   9.333  20.388  0.00  0.00    +0.000 A 
ATOM     15  C   UNL     1       1.218   8.830  19.230  0.00  0.00    +0.000 A 
ATOM     16  C   UNL     1       0.794   9.310  17.985  0.00  0.00    +0.000 A 
ATOM     17  C   UNL     1      -0.218  10.269  17.902  0.00  0.00    +0.000 A 
BRANCH  12  18
ATOM     18  C   UNL     1      -1.923  11.795  18.962  0.00  0.00    +0.000 C 
BRANCH  18  20
ATOM     19  C   UNL     1      -4.012  11.525  17.925  0.00  0.00    +0.000 C 
ATOM     20  O   UNL     1      -2.610  11.647  17.722  0.00  0.00    +0.000 OA
ENDBRANCH  18  20
ENDBRANCH  12  18
ENDBRANCH   1  15
BRANCH   5  21
ATOM     21  C   UNL     1       6.049   4.406  18.079  0.00  0.00    +0.000 C 
ATOM     22  N   UNL     1       7.048   4.502  17.499  0.00  0.00    +0.000 NA
ENDBRANCH   5  21
BRANCH   6  23
ATOM     23  O   UNL     1       5.279   2.054  19.534  0.00  0.00    +0.000 OA
ATOM     24  H   UNL     1       6.016   2.132  18.908  0.00  0.00    +0.000 HD
ENDBRANCH   6  23
TORSDOF 5
ENDMDL
MODEL 8
REMARK VINA RESULT:      -7.0      1.604      2.158
REMARK  Name = 
REMARK  7 active torsions:
REMARK  status: ('A' for Active; 'I' for Inactive)
REMARK    1  A    between atoms: C_1  and  O_2
REMARK    2  A    between atoms: O_2  and  C_3
REMARK    3  A    between atoms: C_3  and  C_4
REMARK    4  A    between atoms: C_7  and  C_8
REMARK    5  A    between atoms: C_12  and  C_13
REMARK    6  A    between atoms: C_15  and  O_16
REMARK    7  A    between atoms: C_18  and  C_19
REMARK                            x       y       z     vdW  Elec       q    Type
REMARK                         _______ _______ _______ _____ _____    ______ ____
ROOT
ATOM      1  C   UNL     1       1.961   8.746  19.452  0.00  0.00    +0.000 C 
ATOM      2  C   UNL     1       1.983   8.735  17.922  0.00  0.00    +0.000 C 
ATOM      3  C   UNL     1       3.198   7.953  17.428  0.00  0.00    +0.000 C 
ATOM      4  C   UNL     1       3.361   6.601  18.091  0.00  0.00    +0.000 A 
ATOM      5  C   UNL     1       4.202   5.622  17.526  0.00  0.00    +0.000 A 
ATOM      6  C   UNL     1       4.322   4.398  18.173  0.00  0.00    +0.000 A 
ATOM      7  N   UNL     1       3.681   4.097  19.318  0.00  0.00    +0.000 NA
ATOM      8  C   UNL     1       2.886   5.038  19.875  0.00  0.00    +0.000 A 
ATOM      9  C   UNL     1       2.176   4.630  21.137  0.00  0.00    +0.000 C 
ATOM     10  C   UNL     1       2.714   6.312  19.313  0.00  0.00    +0.000 A 
ATOM     11  C   UNL     1       1.794   7.311  19.974  0.00  0.00    +0.000 C 
ENDROOT
BRANCH   1  15
ATOM     12  C   UNL     1      -1.143  11.367  20.973  0.00  0.00    +0.000 A 
ATOM     13  C   UNL     1      -0.298  10.684  21.857  0.00  0.00    +0.000 A 
ATOM     14  C   UNL     1       0.699   9.839  21.371  0.00  0.00    +0.000 A 
ATOM     15  C   UNL     1       0.875   9.655  19.991  0.00  0.00    +0.000 A 
ATOM     16  C   UNL     1       0.028  10.337  19.109  0.00  0.00    +0.000 A 
ATOM     17  C   UNL     1      -0.972  11.181  19.596  0.00  0.00    +0.000 A 
BRANCH  12  18
ATOM     18  C   UNL     1      -2.233  12.265  21.492  0.00  0.00    +0.000 C 
BRANCH  18  20
ATOM     19  C   UNL     1      -4.453  12.806  20.949  0.00  0.00    +0.000 C 
ATOM     20  O   UNL     1      -3.146  12.573  20.440  0.00  0.00    +0.000 OA
ENDBRANCH  18  20
ENDBRANCH  12  18
ENDBRANCH   1  15
BRANCH   5  21
ATOM     21  C   UNL     1       4.926   5.868  16.319  0.00  0.00    +0.000 C 
ATOM     22  N   UNL     1       5.551   6.076  15.364  0.00  0.00    +0.000 NA
ENDBRANCH   5  21
BRANCH   6  23
ATOM     23  O   UNL     1       5.101   3.371  17.722  0.00  0.00    +0.000 OA
ATOM     24  H   UNL     1       4.770   2.517  18.042  0.00  0.00    +0.000 HD
ENDBRANCH   6  23
TORSDOF 5
ENDMDL
MODEL 9
REMARK VINA RESULT:      -6.9      2.298      3.757
REMARK  Name = 
REMARK  7 active torsions:
REMARK  status: ('A' for Active; 'I' for Inactive)
REMARK    1  A    between atoms: C_1  and  O_2
REMARK    2  A    between atoms: O_2  and  C_3
REMARK    3  A    between atoms: C_3  and  C_4
REMARK    4  A    between atoms: C_7  and  C_8
REMARK    5  A    between atoms: C_12  and  C_13
REMARK    6  A    between atoms: C_15  and  O_16
REMARK    7  A    between atoms: C_18  and  C_19
REMARK                            x       y       z     vdW  Elec       q    Type
REMARK                         _______ _______ _______ _____ _____    ______ ____
ROOT
ATOM      1  C   UNL     1       1.682   7.773  19.131  0.00  0.00    +0.000 C 
ATOM      2  C   UNL     1       1.780   7.344  20.596  0.00  0.00    +0.000 C 
ATOM      3  C   UNL     1       1.757   5.822  20.692  0.00  0.00    +0.000 C 
ATOM      4  C   UNL     1       2.725   5.138  19.748  0.00  0.00    +0.000 A 
ATOM      5  C   UNL     1       3.081   3.789  19.940  0.00  0.00    +0.000 A 
ATOM      6  C   UNL     1       3.970   3.205  19.045  0.00  0.00    +0.000 A 
ATOM      7  N   UNL     1       4.507   3.859  17.998  0.00  0.00    +0.000 NA
ATOM      8  C   UNL     1       4.155   5.148  17.798  0.00  0.00    +0.000 A 
ATOM      9  C   UNL     1       4.810   5.831  16.629  0.00  0.00    +0.000 C 
ATOM     10  C   UNL     1       3.250   5.824  18.631  0.00  0.00    +0.000 A 
ATOM     11  C   UNL     1       2.915   7.273  18.365  0.00  0.00    +0.000 C 
ENDROOT
BRANCH   1  15
ATOM     12  C   UNL     1       1.201  12.067  18.746  0.00  0.00    +0.000 A 
ATOM     13  C   UNL     1       2.049  11.370  17.876  0.00  0.00    +0.000 A 
ATOM     14  C   UNL     1       2.207   9.990  18.000  0.00  0.00    +0.000 A 
ATOM     15  C   UNL     1       1.524   9.274  18.994  0.00  0.00    +0.000 A 
ATOM     16  C   UNL     1       0.678   9.973  19.863  0.00  0.00    +0.000 A 
ATOM     17  C   UNL     1       0.522  11.355  19.741  0.00  0.00    +0.000 A 
BRANCH  12  18
ATOM     18  C   UNL     1       1.041  13.559  18.630  0.00  0.00    +0.000 C 
BRANCH  18  20
ATOM     19  C   UNL     1       2.905  14.525  19.680  0.00  0.00    +0.000 C 
ATOM     20  O   UNL     1       2.316  14.167  18.437  0.00  0.00    +0.000 OA
ENDBRANCH  18  20
ENDBRANCH  12  18
ENDBRANCH   1  15
BRANCH   5  21
ATOM     21  C   UNL     1       2.546   3.023  21.021  0.00  0.00    +0.000 C 
ATOM     22  N   UNL     1       2.074   2.425  21.896  0.00  0.00    +0.000 NA
ENDBRANCH   5  21
BRANCH   6  23
ATOM     23  O   UNL     1       4.394   1.909  19.128  0.00  0.00    +0.000 OA
ATOM     24  H   UNL     1       4.025   1.376  18.407  0.00  0.00    +0.000 HD
ENDBRANCH   6  23
TORSDOF 5
ENDMDL
