MODEL 1
REMARK VINA RESULT:      -7.4      0.000      0.000
REMARK  Name = 
REMARK  5 active torsions:
REMARK  status: ('A' for Active; 'I' for Inactive)
REMARK    1  A    between atoms: C_1  and  C_2
REMARK    2  A    between atoms: C_3  and  O_4
REMARK    3  A    between atoms: C_5  and  C_6
REMARK    4  A    between atoms: C_5  and  C_7
REMARK    5  A    between atoms: C_10  and  C_11
REMARK                            x       y       z     vdW  Elec       q    Type
REMARK                         _______ _______ _______ _____ _____    ______ ____
ROOT
ATOM      1  C   UNL     1       1.660   5.031  21.255  0.00  0.00    +0.000 C 
ATOM      2  C   UNL     1       2.388   4.625  20.002  0.00  0.00    +0.000 C 
ATOM      3  C   UNL     1       2.560   3.374  19.537  0.00  0.00    +0.000 C 
ATOM      4  C   UNL     1       3.336   3.029  18.261  0.00  0.00    +0.000 C 
ATOM      5  C   UNL     1       4.529   2.135  18.660  0.00  0.00    +0.000 C 
ATOM      6  C   UNL     1       2.393   2.255  17.313  0.00  0.00    +0.000 C 
ATOM      7  C   UNL     1       3.869   4.265  17.538  0.00  0.00    +0.000 A 
ATOM      8  O   UNL     1       4.567   3.974  16.361  0.00  0.00    +0.000 OA
ATOM      9  C   UNL     1       5.119   5.006  15.631  0.00  0.00    +0.000 A 
ATOM     10  C   UNL     1       5.016   6.292  15.970  0.00  0.00    +0.000 A 
ATOM     11  C   UNL     1       4.274   6.643  17.189  0.00  0.00    +0.000 A 
ATOM     12  O   UNL     1       4.168   7.827  17.482  0.00  0.00    +0.000 OA
ATOM     13  C   UNL     1       3.698   5.525  17.985  0.00  0.00    +0.000 A 
ATOM     14  C   UNL     1       2.963   5.782  19.248  0.00  0.00    +0.000 C 
ATOM     15  O   UNL     1       2.813   6.915  19.698  0.00  0.00    +0.000 OA
ENDROOT
BRANCH   9  16
ATOM     16  C   UNL     1       5.867   4.619  14.432  0.00  0.00    +0.000 A 
ATOM     17  C   UNL     1       7.099   5.224  14.148  0.00  0.00    +0.000 A 
ATOM     18  C   UNL     1       7.797   4.893  12.984  0.00  0.00    +0.000 A 
ATOM     19  C   UNL     1       7.260   3.972  12.087  0.00  0.00    +0.000 A 
ATOM     20  C   UNL     1       6.024   3.382  12.350  0.00  0.00    +0.000 A 
ATOM     21  C   UNL     1       5.331   3.700  13.520  0.00  0.00    +0.000 A 
ENDBRANCH   9  16
BRANCH   3  22
ATOM     22  O   UNL     1       2.053   2.258  20.190  0.00  0.00    +0.000 OA
ATOM     23  H   UNL     1       1.569   1.680  19.579  0.00  0.00    +0.000 HD
ENDBRANCH   3  22
TORSDOF 2
ENDMDL
MODEL 2
REMARK VINA RESULT:      -7.4      5.695      8.342
REMARK  Name = 
REMARK  5 active torsions:
REMARK  status: ('A' for Active; 'I' for Inactive)
REMARK    1  A    between atoms: C_1  and  C_2
REMARK    2  A    between atoms: C_3  and  O_4
REMARK    3  A    between atoms: C_5  and  C_6
REMARK    4  A    between atoms: C_5  and  C_7
REMARK    5  A    between atoms: C_10  and  C_11
REMARK                            x       y       z     vdW  Elec       q    Type
REMARK                         _______ _______ _______ _____ _____    ______ ____
ROOT
ATOM      1  C   UNL     1      -2.930  13.287  22.339  0.00  0.00    +0.000 C 
ATOM      2  C   UNL     1      -2.085  12.360  21.508  0.00  0.00    +0.000 C 
ATOM      3  C   UNL     1      -2.044  12.291  20.164  0.00  0.00    +0.000 C 
ATOM      4  C   UNL     1      -1.175  11.303  19.379  0.00  0.00    +0.000 C 
ATOM      5  C   UNL     1      -2.114  10.403  18.549  0.00  0.00    +0.000 C 
ATOM      6  C   UNL     1      -0.253  12.108  18.437  0.00  0.00    +0.000 C 
ATOM      7  C   UNL     1      -0.318  10.418  20.283  0.00  0.00    +0.000 A 
ATOM      8  O   UNL     1       0.496   9.519  19.585  0.00  0.00    +0.000 OA
ATOM      9  C   UNL     1       1.299   8.647  20.292  0.00  0.00    +0.000 A 
ATOM     10  C   UNL     1       1.364   8.615  21.624  0.00  0.00    +0.000 A 
ATOM     11  C   UNL     1       0.540   9.556  22.394  0.00  0.00    +0.000 A 
ATOM     12  O   UNL     1       0.621   9.531  23.616  0.00  0.00    +0.000 OA
ATOM     13  C   UNL     1      -0.340  10.480  21.628  0.00  0.00    +0.000 A 
ATOM     14  C   UNL     1      -1.233  11.440  22.323  0.00  0.00    +0.000 C 
ATOM     15  O   UNL     1      -1.298  11.504  23.548  0.00  0.00    +0.000 OA
ENDROOT
BRANCH   9  16
ATOM     16  C   UNL     1       2.093   7.711  19.493  0.00  0.00    +0.000 A 
ATOM     17  C   UNL     1       2.388   6.436  19.994  0.00  0.00    +0.000 A 
ATOM     18  C   UNL     1       3.183   5.554  19.257  0.00  0.00    +0.000 A 
ATOM     19  C   UNL     1       3.703   5.946  18.026  0.00  0.00    +0.000 A 
ATOM     20  C   UNL     1       3.432   7.220  17.530  0.00  0.00    +0.000 A 
ATOM     21  C   UNL     1       2.627   8.099  18.258  0.00  0.00    +0.000 A 
ENDBRANCH   9  16
BRANCH   3  22
ATOM     22  O   UNL     1      -2.812  13.115  19.351  0.00  0.00    +0.000 OA
ATOM     23  H   UNL     1      -2.680  14.051  19.571  0.00  0.00    +0.000 HD
ENDBRANCH   3  22
TORSDOF 2
ENDMDL
MODEL 3
REMARK VINA RESULT:      -7.4      5.734      8.537
REMARK  Name = 
REMARK  5 active torsions:
REMARK  status: ('A' for Active; 'I' for Inactive)
REMARK    1  A    between atoms: C_1  and  C_2
REMARK    2  A    between atoms: C_3  and  O_4
REMARK    3  A    between atoms: C_5  and  C_6
REMARK    4  A    between atoms: C_5  and  C_7
REMARK    5  A    between atoms: C_10  and  C_11
REMARK                            x       y       z     vdW  Elec       q    Type
REMARK                         _______ _______ _______ _____ _____    ______ ____
ROOT
ATOM      1  C   UNL     1      -1.789  14.243  21.992  0.00  0.00    +0.000 C 
ATOM      2  C   UNL     1      -1.093  13.104  21.297  0.00  0.00    +0.000 C 
ATOM      3  C   UNL     1      -0.817  13.008  19.984  0.00  0.00    +0.000 C 
ATOM      4  C   UNL     1      -0.124  11.803  19.336  0.00  0.00    +0.000 C 
ATOM      5  C   UNL     1      -1.100  11.192  18.309  0.00  0.00    +0.000 C 
ATOM      6  C   UNL     1       1.149  12.304  18.617  0.00  0.00    +0.000 C 
ATOM      7  C   UNL     1       0.263  10.726  20.348  0.00  0.00    +0.000 A 
ATOM      8  O   UNL     1       0.912   9.625  19.779  0.00  0.00    +0.000 OA
ATOM      9  C   UNL     1       1.290   8.573  20.588  0.00  0.00    +0.000 A 
ATOM     10  C   UNL     1       1.088   8.542  21.906  0.00  0.00    +0.000 A 
ATOM     11  C   UNL     1       0.427   9.688  22.546  0.00  0.00    +0.000 A 
ATOM     12  O   UNL     1       0.263   9.658  23.759  0.00  0.00    +0.000 OA
ATOM     13  C   UNL     1       0.002  10.811  21.667  0.00  0.00    +0.000 A 
ATOM     14  C   UNL     1      -0.703  11.993  22.220  0.00  0.00    +0.000 C 
ATOM     15  O   UNL     1      -0.981  12.090  23.413  0.00  0.00    +0.000 OA
ENDROOT
BRANCH   9  16
ATOM     16  C   UNL     1       1.929   7.439  19.915  0.00  0.00    +0.000 A 
ATOM     17  C   UNL     1       2.504   7.609  18.649  0.00  0.00    +0.000 A 
ATOM     18  C   UNL     1       3.075   6.522  17.980  0.00  0.00    +0.000 A 
ATOM     19  C   UNL     1       3.057   5.257  18.564  0.00  0.00    +0.000 A 
ATOM     20  C   UNL     1       2.467   5.075  19.814  0.00  0.00    +0.000 A 
ATOM     21  C   UNL     1       1.908   6.162  20.490  0.00  0.00    +0.000 A 
ENDBRANCH   9  16
BRANCH   3  22
ATOM     22  O   UNL     1      -1.154  14.002  19.075  0.00  0.00    +0.000 OA
ATOM     23  H   UNL     1      -1.095  14.884  19.477  0.00  0.00    +0.000 HD
ENDBRANCH   3  22
TORSDOF 2
ENDMDL
MODEL 4
REMARK VINA RESULT:      -7.4      4.302      7.046
REMARK  Name = 
REMARK  5 active torsions:
REMARK  status: ('A' for Active; 'I' for Inactive)
REMARK    1  A    between atoms: C_1  and  C_2
REMARK    2  A    between atoms: C_3  and  O_4
REMARK    3  A    between atoms: C_5  and  C_6
REMARK    4  A    between atoms: C_5  and  C_7
REMARK    5  A    between atoms: C_10  and  C_11
REMARK                            x       y       z     vdW  Elec       q    Type
REMARK                         _______ _______ _______ _____ _____    ______ ____
ROOT
ATOM      1  C   UNL     1       0.125  12.908  20.220  0.00  0.00    +0.000 C 
ATOM      2  C   UNL     1       0.459  11.465  20.483  0.00  0.00    +0.000 C 
ATOM      3  C   UNL     1       0.258  10.785  21.627  0.00  0.00    +0.000 C 
ATOM      4  C   UNL     1       0.646   9.317  21.836  0.00  0.00    +0.000 C 
ATOM      5  C   UNL     1       1.682   9.260  22.979  0.00  0.00    +0.000 C 
ATOM      6  C   UNL     1      -0.622   8.531  22.237  0.00  0.00    +0.000 C 
ATOM      7  C   UNL     1       1.256   8.681  20.588  0.00  0.00    +0.000 A 
ATOM      8  O   UNL     1       1.603   7.336  20.752  0.00  0.00    +0.000 OA
ATOM      9  C   UNL     1       2.186   6.656  19.702  0.00  0.00    +0.000 A 
ATOM     10  C   UNL     1       2.432   7.204  18.511  0.00  0.00    +0.000 A 
ATOM     11  C   UNL     1       2.066   8.609  18.291  0.00  0.00    +0.000 A 
ATOM     12  O   UNL     1       2.279   9.097  17.189  0.00  0.00    +0.000 OA
ATOM     13  C   UNL     1       1.456   9.344  19.433  0.00  0.00    +0.000 A 
ATOM     14  C   UNL     1       1.086  10.776  19.313  0.00  0.00    +0.000 C 
ATOM     15  O   UNL     1       1.280  11.417  18.283  0.00  0.00    +0.000 OA
ENDROOT
BRANCH   9  16
ATOM     16  C   UNL     1       2.556   5.263  19.962  0.00  0.00    +0.000 A 
ATOM     17  C   UNL     1       1.887   4.533  20.954  0.00  0.00    +0.000 A 
ATOM     18  C   UNL     1       2.264   3.218  21.239  0.00  0.00    +0.000 A 
ATOM     19  C   UNL     1       3.324   2.631  20.550  0.00  0.00    +0.000 A 
ATOM     20  C   UNL     1       4.009   3.358  19.578  0.00  0.00    +0.000 A 
ATOM     21  C   UNL     1       3.625   4.668  19.280  0.00  0.00    +0.000 A 
ENDBRANCH   9  16
BRANCH   3  22
ATOM     22  O   UNL     1      -0.317  11.367  22.750  0.00  0.00    +0.000 OA
ATOM     23  H   UNL     1      -1.276  11.224  22.770  0.00  0.00    +0.000 HD
ENDBRANCH   3  22
TORSDOF 2
ENDMDL
MODEL 5
REMARK VINA RESULT:      -7.4      4.303      7.021
REMARK  Name = 
REMARK  5 active torsions:
REMARK  status: ('A' for Active; 'I' for Inactive)
REMARK    1  A    between atoms: C_1  and  C_2
REMARK    2  A    between atoms: C_3  and  O_4
REMARK    3  A    between atoms: C_5  and  C_6
REMARK    4  A    between atoms: C_5  and  C_7
REMARK    5  A    between atoms: C_10  and  C_11
REMARK                            x       y       z     vdW  Elec       q    Type
REMARK                         _______ _______ _______ _____ _____    ______ ____
ROOT
ATOM      1  C   UNL     1       0.075  12.898  20.192  0.00  0.00    +0.000 C 
ATOM      2  C   UNL     1       0.428  11.462  20.473  0.00  0.00    +0.000 C 
ATOM      3  C   UNL     1       0.243  10.796  21.627  0.00  0.00    +0.000 C 
ATOM      4  C   UNL     1       0.650   9.336  21.853  0.00  0.00    +0.000 C 
ATOM      5  C   UNL     1       1.694   9.307  22.990  0.00  0.00    +0.000 C 
ATOM      6  C   UNL     1      -0.605   8.540  22.273  0.00  0.00    +0.000 C 
ATOM      7  C   UNL     1       1.261   8.691  20.610  0.00  0.00    +0.000 A 
ATOM      8  O   UNL     1       1.625   7.352  20.790  0.00  0.00    +0.000 OA
ATOM      9  C   UNL     1       2.210   6.666  19.746  0.00  0.00    +0.000 A 
ATOM     10  C   UNL     1       2.443   7.200  18.546  0.00  0.00    +0.000 A 
ATOM     11  C   UNL     1       2.057   8.598  18.309  0.00  0.00    +0.000 A 
ATOM     12  O   UNL     1       2.257   9.073  17.199  0.00  0.00    +0.000 OA
ATOM     13  C   UNL     1       1.445   9.340  19.445  0.00  0.00    +0.000 A 
ATOM     14  C   UNL     1       1.057  10.765  19.308  0.00  0.00    +0.000 C 
ATOM     15  O   UNL     1       1.236  11.395  18.268  0.00  0.00    +0.000 OA
ENDROOT
BRANCH   9  16
ATOM     16  C   UNL     1       2.599   5.280  20.023  0.00  0.00    +0.000 A 
ATOM     17  C   UNL     1       3.633   4.682  19.291  0.00  0.00    +0.000 A 
ATOM     18  C   UNL     1       3.979   3.347  19.518  0.00  0.00    +0.000 A 
ATOM     19  C   UNL     1       3.282   2.597  20.462  0.00  0.00    +0.000 A 
ATOM     20  C   UNL     1       2.237   3.178  21.179  0.00  0.00    +0.000 A 
ATOM     21  C   UNL     1       1.898   4.516  20.965  0.00  0.00    +0.000 A 
ENDBRANCH   9  16
BRANCH   3  22
ATOM     22  O   UNL     1      -0.333  11.386  22.746  0.00  0.00    +0.000 OA
ATOM     23  H   UNL     1      -0.522  10.728  23.434  0.00  0.00    +0.000 HD
ENDBRANCH   3  22
TORSDOF 2
ENDMDL
MODEL 6
REMARK VINA RESULT:      -7.3      5.707      8.533
REMARK  Name = 
REMARK  5 active torsions:
REMARK  status: ('A' for Active; 'I' for Inactive)
REMARK    1  A    between atoms: C_1  and  C_2
REMARK    2  A    between atoms: C_3  and  O_4
REMARK    3  A    between atoms: C_5  and  C_6
REMARK    4  A    between atoms: C_5  and  C_7
REMARK    5  A    between atoms: C_10  and  C_11
REMARK                            x       y       z     vdW  Elec       q    Type
REMARK                         _______ _______ _______ _____ _____    ______ ____
ROOT
ATOM      1  C   UNL     1      -1.531  14.372  21.847  0.00  0.00    +0.000 C 
ATOM      2  C   UNL     1      -0.884  13.193  21.171  0.00  0.00    +0.000 C 
ATOM      3  C   UNL     1      -0.614  13.064  19.859  0.00  0.00    +0.000 C 
ATOM      4  C   UNL     1       0.026  11.821  19.231  0.00  0.00    +0.000 C 
ATOM      5  C   UNL     1      -0.976  11.234  18.214  0.00  0.00    +0.000 C 
ATOM      6  C   UNL     1       1.318  12.254  18.503  0.00  0.00    +0.000 C 
ATOM      7  C   UNL     1       0.368  10.745  20.260  0.00  0.00    +0.000 A 
ATOM      8  O   UNL     1       0.968   9.607  19.710  0.00  0.00    +0.000 OA
ATOM      9  C   UNL     1       1.302   8.554  20.536  0.00  0.00    +0.000 A 
ATOM     10  C   UNL     1       1.100   8.553  21.854  0.00  0.00    +0.000 A 
ATOM     11  C   UNL     1       0.490   9.736  22.475  0.00  0.00    +0.000 A 
ATOM     12  O   UNL     1       0.325   9.734  23.688  0.00  0.00    +0.000 OA
ATOM     13  C   UNL     1       0.112  10.862  21.577  0.00  0.00    +0.000 A 
ATOM     14  C   UNL     1      -0.541  12.082  22.112  0.00  0.00    +0.000 C 
ATOM     15  O   UNL     1      -0.814  12.210  23.303  0.00  0.00    +0.000 OA
ENDROOT
BRANCH   9  16
ATOM     16  C   UNL     1       1.892   7.383  19.881  0.00  0.00    +0.000 A 
ATOM     17  C   UNL     1       1.908   6.146  20.538  0.00  0.00    +0.000 A 
ATOM     18  C   UNL     1       2.509   5.035  19.939  0.00  0.00    +0.000 A 
ATOM     19  C   UNL     1       3.114   5.159  18.690  0.00  0.00    +0.000 A 
ATOM     20  C   UNL     1       3.121   6.392  18.039  0.00  0.00    +0.000 A 
ATOM     21  C   UNL     1       2.509   7.500  18.629  0.00  0.00    +0.000 A 
ENDBRANCH   9  16
BRANCH   3  22
ATOM     22  O   UNL     1      -0.909  14.057  18.933  0.00  0.00    +0.000 OA
ATOM     23  H   UNL     1      -0.120  14.322  18.435  0.00  0.00    +0.000 HD
ENDBRANCH   3  22
TORSDOF 2
ENDMDL
MODEL 7
REMARK VINA RESULT:      -7.2      0.138      1.039
REMARK  Name = 
REMARK  5 active torsions:
REMARK  status: ('A' for Active; 'I' for Inactive)
REMARK    1  A    between atoms: C_1  and  C_2
REMARK    2  A    between atoms: C_3  and  O_4
REMARK    3  A    between atoms: C_5  and  C_6
REMARK    4  A    between atoms: C_5  and  C_7
REMARK    5  A    between atoms: C_10  and  C_11
REMARK                            x       y       z     vdW  Elec       q    Type
REMARK                         _______ _______ _______ _____ _____    ______ ____
ROOT
ATOM      1  C   UNL     1       1.771   4.908  21.216  0.00  0.00    +0.000 C 
ATOM      2  C   UNL     1       2.467   4.532  19.935  0.00  0.00    +0.000 C 
ATOM      3  C   UNL     1       2.592   3.296  19.418  0.00  0.00    +0.000 C 
ATOM      4  C   UNL     1       3.337   2.979  18.116  0.00  0.00    +0.000 C 
ATOM      5  C   UNL     1       4.507   2.033  18.460  0.00  0.00    +0.000 C 
ATOM      6  C   UNL     1       2.356   2.273  17.154  0.00  0.00    +0.000 C 
ATOM      7  C   UNL     1       3.897   4.226  17.435  0.00  0.00    +0.000 A 
ATOM      8  O   UNL     1       4.568   3.961  16.236  0.00  0.00    +0.000 OA
ATOM      9  C   UNL     1       5.140   5.005  15.538  0.00  0.00    +0.000 A 
ATOM     10  C   UNL     1       5.083   6.278  15.930  0.00  0.00    +0.000 A 
ATOM     11  C   UNL     1       4.371   6.602  17.174  0.00  0.00    +0.000 A 
ATOM     12  O   UNL     1       4.308   7.776  17.516  0.00  0.00    +0.000 OA
ATOM     13  C   UNL     1       3.773   5.471  17.934  0.00  0.00    +0.000 A 
ATOM     14  C   UNL     1       3.067   5.700  19.219  0.00  0.00    +0.000 C 
ATOM     15  O   UNL     1       2.959   6.818  19.716  0.00  0.00    +0.000 OA
ENDROOT
BRANCH   9  16
ATOM     16  C   UNL     1       5.857   4.644  14.312  0.00  0.00    +0.000 A 
ATOM     17  C   UNL     1       5.323   3.683  13.444  0.00  0.00    +0.000 A 
ATOM     18  C   UNL     1       6.023   3.300  12.296  0.00  0.00    +0.000 A 
ATOM     19  C   UNL     1       7.269   3.859  12.021  0.00  0.00    +0.000 A 
ATOM     20  C   UNL     1       7.818   4.800  12.892  0.00  0.00    +0.000 A 
ATOM     21  C   UNL     1       7.114   5.195  14.032  0.00  0.00    +0.000 A 
ENDBRANCH   9  16
BRANCH   3  22
ATOM     22  O   UNL     1       2.060   2.171  20.035  0.00  0.00    +0.000 OA
ATOM     23  H   UNL     1       1.091   2.167  19.989  0.00  0.00    +0.000 HD
ENDBRANCH   3  22
TORSDOF 2
ENDMDL
MODEL 8
REMARK VINA RESULT:      -7.1      3.118      7.244
REMARK  Name = 
REMARK  5 active torsions:
REMARK  status: ('A' for Active; 'I' for Inactive)
REMARK    1  A    between atoms: C_1  and  C_2
REMARK    2  A    between atoms: C_3  and  O_4
REMARK    3  A    between atoms: C_5  and  C_6
REMARK    4  A    between atoms: C_5  and  C_7
REMARK    5  A    between atoms: C_10  and  C_11
REMARK                            x       y       z     vdW  Elec       q    Type
REMARK                         _______ _______ _______ _____ _____    ______ ____
ROOT
ATOM      1  C   UNL     1       4.308   3.005  17.210  0.00  0.00    +0.000 C 
ATOM      2  C   UNL     1       3.533   3.895  18.145  0.00  0.00    +0.000 C 
ATOM      3  C   UNL     1       2.886   3.521  19.264  0.00  0.00    +0.000 C 
ATOM      4  C   UNL     1       2.093   4.478  20.161  0.00  0.00    +0.000 C 
ATOM      5  C   UNL     1       0.623   4.009  20.171  0.00  0.00    +0.000 C 
ATOM      6  C   UNL     1       2.677   4.404  21.589  0.00  0.00    +0.000 C 
ATOM      7  C   UNL     1       2.143   5.925  19.674  0.00  0.00    +0.000 A 
ATOM      8  O   UNL     1       1.438   6.820  20.487  0.00  0.00    +0.000 OA
ATOM      9  C   UNL     1       1.388   8.154  20.138  0.00  0.00    +0.000 A 
ATOM     10  C   UNL     1       1.992   8.661  19.063  0.00  0.00    +0.000 A 
ATOM     11  C   UNL     1       2.759   7.760  18.192  0.00  0.00    +0.000 A 
ATOM     12  O   UNL     1       3.325   8.238  17.218  0.00  0.00    +0.000 OA
ATOM     13  C   UNL     1       2.793   6.318  18.561  0.00  0.00    +0.000 A 
ATOM     14  C   UNL     1       3.513   5.329  17.722  0.00  0.00    +0.000 C 
ATOM     15  O   UNL     1       4.093   5.649  16.687  0.00  0.00    +0.000 OA
ENDROOT
BRANCH   9  16
ATOM     16  C   UNL     1       0.600   9.021  21.018  0.00  0.00    +0.000 A 
ATOM     17  C   UNL     1       0.022  10.193  20.513  0.00  0.00    +0.000 A 
ATOM     18  C   UNL     1      -0.693  11.048  21.356  0.00  0.00    +0.000 A 
ATOM     19  C   UNL     1      -0.818  10.748  22.711  0.00  0.00    +0.000 A 
ATOM     20  C   UNL     1      -0.228   9.594  23.225  0.00  0.00    +0.000 A 
ATOM     21  C   UNL     1       0.475   8.730  22.382  0.00  0.00    +0.000 A 
ENDBRANCH   9  16
BRANCH   3  22
ATOM     22  O   UNL     1       2.864   2.205  19.711  0.00  0.00    +0.000 OA
ATOM     23  H   UNL     1       1.970   1.936  19.975  0.00  0.00    +0.000 HD
ENDBRANCH   3  22
TORSDOF 2
ENDMDL
MODEL 9
REMARK VINA RESULT:      -7.0      3.067      7.173
REMARK  Name = 
REMARK  5 active torsions:
REMARK  status: ('A' for Active; 'I' for Inactive)
REMARK    1  A    between atoms: C_1  and  C_2
REMARK    2  A    between atoms: C_3  and  O_4
REMARK    3  A    between atoms: C_5  and  C_6
REMARK    4  A    between atoms: C_5  and  C_7
REMARK    5  A    between atoms: C_10  and  C_11
REMARK                            x       y       z     vdW  Elec       q    Type
REMARK                         _______ _______ _______ _____ _____    ______ ____
ROOT
ATOM      1  C   UNL     1       4.324   2.900  17.205  0.00  0.00    +0.000 C 
ATOM      2  C   UNL     1       3.568   3.817  18.129  0.00  0.00    +0.000 C 
ATOM      3  C   UNL     1       2.909   3.468  19.249  0.00  0.00    +0.000 C 
ATOM      4  C   UNL     1       2.136   4.453  20.135  0.00  0.00    +0.000 C 
ATOM      5  C   UNL     1       0.655   4.020  20.144  0.00  0.00    +0.000 C 
ATOM      6  C   UNL     1       2.714   4.378  21.565  0.00  0.00    +0.000 C 
ATOM      7  C   UNL     1       2.223   5.894  19.635  0.00  0.00    +0.000 A 
ATOM      8  O   UNL     1       1.538   6.813  20.438  0.00  0.00    +0.000 OA
ATOM      9  C   UNL     1       1.522   8.144  20.077  0.00  0.00    +0.000 A 
ATOM     10  C   UNL     1       2.142   8.627  18.999  0.00  0.00    +0.000 A 
ATOM     11  C   UNL     1       2.889   7.700  18.139  0.00  0.00    +0.000 A 
ATOM     12  O   UNL     1       3.470   8.155  17.163  0.00  0.00    +0.000 OA
ATOM     13  C   UNL     1       2.886   6.261  18.521  0.00  0.00    +0.000 A 
ATOM     14  C   UNL     1       3.585   5.247  17.693  0.00  0.00    +0.000 C 
ATOM     15  O   UNL     1       4.176   5.543  16.657  0.00  0.00    +0.000 OA
ENDROOT
BRANCH   9  16
ATOM     16  C   UNL     1       0.752   9.038  20.946  0.00  0.00    +0.000 A 
ATOM     17  C   UNL     1       0.691   8.795  22.324  0.00  0.00    +0.000 A 
ATOM     18  C   UNL     1      -0.078   9.617  23.153  0.00  0.00    +0.000 A 
ATOM     19  C   UNL     1      -0.806  10.673  22.607  0.00  0.00    +0.000 A 
ATOM     20  C   UNL     1      -0.768  10.908  21.234  0.00  0.00    +0.000 A 
ATOM     21  C   UNL     1       0.011  10.097  20.405  0.00  0.00    +0.000 A 
ENDBRANCH   9  16
BRANCH   3  22
ATOM     22  O   UNL     1       2.853   2.158  19.707  0.00  0.00    +0.000 OA
ATOM     23  H   UNL     1       3.200   1.538  19.046  0.00  0.00    +0.000 HD
ENDBRANCH   3  22
TORSDOF 2
ENDMDL
