MODEL 1
REMARK VINA RESULT:      -5.7      0.000      0.000
REMARK  Name = 
REMARK  11 active torsions:
REMARK  status: ('A' for Active; 'I' for Inactive)
REMARK    1  A    between atoms: C_1  and  C_2
REMARK    2  A    between atoms: C_2  and  C_3
REMARK    3  A    between atoms: C_3  and  C_4
REMARK    4  A    between atoms: C_4  and  C_5
REMARK    5  A    between atoms: C_5  and  N_6
REMARK    6  A    between atoms: N_6  and  C_7
REMARK    7  A    between atoms: N_6  and  C_8
REMARK    8  A    between atoms: C_8  and  C_9
REMARK    9  A    between atoms: C_9  and  C_10
REMARK   10  A    between atoms: C_13  and  O_14
REMARK   11  A    between atoms: C_15  and  O_16
REMARK                            x       y       z     vdW  Elec       q    Type
REMARK                         _______ _______ _______ _____ _____    ______ ____
ROOT
ATOM      1  C   UNL     1       4.968   4.081  17.840  0.00  0.00    +0.000 A 
ATOM      2  C   UNL     1       5.730   4.773  18.795  0.00  0.00    +0.000 A 
ATOM      3  C   UNL     1       6.648   5.747  18.396  0.00  0.00    +0.000 A 
ATOM      4  C   UNL     1       6.816   6.046  17.035  0.00  0.00    +0.000 A 
ATOM      5  C   UNL     1       6.057   5.357  16.072  0.00  0.00    +0.000 A 
ATOM      6  C   UNL     1       5.140   4.379  16.477  0.00  0.00    +0.000 A 
ENDROOT
BRANCH   4   7
ATOM      7  O   UNL     1       7.698   6.993  16.652  0.00  0.00    +0.000 OA
ATOM      8  H   UNL     1       8.367   6.831  15.972  0.00  0.00    +0.000 HD
ENDBRANCH   4   7
BRANCH   5   9
ATOM      9  O   UNL     1       6.189   5.622  14.755  0.00  0.00    +0.000 OA
ATOM     10  H   UNL     1       5.513   6.090  14.245  0.00  0.00    +0.000 HD
ENDBRANCH   5   9
BRANCH   1  11
ATOM     11  C   UNL     1       3.961   3.045  18.279  0.00  0.00    +0.000 C 
BRANCH  11  12
ATOM     12  C   UNL     1       3.967   2.808  19.802  0.00  0.00    +0.000 C 
BRANCH  12  13
ATOM     13  N   UNL     1       2.616   2.796  20.420  0.00  0.00    +0.000 NA
ATOM     14  C   UNL     1       1.629   2.533  19.351  0.00  0.00    +0.000 C 
BRANCH  13  15
ATOM     15  C   UNL     1       2.325   4.074  21.122  0.00  0.00    +0.000 C 
BRANCH  15  16
ATOM     16  C   UNL     1       1.609   5.124  20.251  0.00  0.00    +0.000 C 
BRANCH  16  17
ATOM     17  C   UNL     1       2.532   6.274  19.820  0.00  0.00    +0.000 C 
BRANCH  17  19
ATOM     18  C   UNL     1       2.777   7.936  17.920  0.00  0.00    +0.000 C 
ATOM     19  C   UNL     1       2.415   6.506  18.307  0.00  0.00    +0.000 C 
ENDBRANCH  17  19
ENDBRANCH  16  17
ENDBRANCH  15  16
ENDBRANCH  13  15
ENDBRANCH  12  13
ENDBRANCH  11  12
ENDBRANCH   1  11
TORSDOF 9
ENDMDL
MODEL 2
REMARK VINA RESULT:      -5.7      3.934      6.344
REMARK  Name = 
REMARK  11 active torsions:
REMARK  status: ('A' for Active; 'I' for Inactive)
REMARK    1  A    between atoms: C_1  and  C_2
REMARK    2  A    between atoms: C_2  and  C_3
REMARK    3  A    between atoms: C_3  and  C_4
REMARK    4  A    between atoms: C_4  and  C_5
REMARK    5  A    between atoms: C_5  and  N_6
REMARK    6  A    between atoms: N_6  and  C_7
REMARK    7  A    between atoms: N_6  and  C_8
REMARK    8  A    between atoms: C_8  and  C_9
REMARK    9  A    between atoms: C_9  and  C_10
REMARK   10  A    between atoms: C_13  and  O_14
REMARK   11  A    between atoms: C_15  and  O_16
REMARK                            x       y       z     vdW  Elec       q    Type
REMARK                         _______ _______ _______ _____ _____    ______ ____
ROOT
ATOM      1  C   UNL     1       3.802   4.100  18.295  0.00  0.00    +0.000 A 
ATOM      2  C   UNL     1       2.624   4.535  18.923  0.00  0.00    +0.000 A 
ATOM      3  C   UNL     1       2.235   3.991  20.149  0.00  0.00    +0.000 A 
ATOM      4  C   UNL     1       3.018   3.004  20.767  0.00  0.00    +0.000 A 
ATOM      5  C   UNL     1       4.199   2.562  20.144  0.00  0.00    +0.000 A 
ATOM      6  C   UNL     1       4.584   3.109  18.914  0.00  0.00    +0.000 A 
ENDROOT
BRANCH   4   7
ATOM      7  O   UNL     1       2.644   2.485  21.955  0.00  0.00    +0.000 OA
ATOM      8  H   UNL     1       2.301   1.584  22.040  0.00  0.00    +0.000 HD
ENDBRANCH   4   7
BRANCH   5   9
ATOM      9  O   UNL     1       4.979   1.618  20.711  0.00  0.00    +0.000 OA
ATOM     10  H   UNL     1       4.933   0.683  20.464  0.00  0.00    +0.000 HD
ENDBRANCH   5   9
BRANCH   1  11
ATOM     11  C   UNL     1       4.230   4.708  16.981  0.00  0.00    +0.000 C 
BRANCH  11  12
ATOM     12  C   UNL     1       5.349   3.909  16.285  0.00  0.00    +0.000 C 
BRANCH  12  13
ATOM     13  N   UNL     1       6.538   4.721  15.917  0.00  0.00    +0.000 NA
ATOM     14  C   UNL     1       6.368   6.067  16.504  0.00  0.00    +0.000 C 
BRANCH  13  15
ATOM     15  C   UNL     1       6.715   4.793  14.443  0.00  0.00    +0.000 C 
BRANCH  15  16
ATOM     16  C   UNL     1       5.789   3.852  13.648  0.00  0.00    +0.000 C 
BRANCH  16  17
ATOM     17  C   UNL     1       6.381   3.434  12.294  0.00  0.00    +0.000 C 
BRANCH  17  19
ATOM     18  C   UNL     1       4.063   3.247  11.283  0.00  0.00    +0.000 C 
ATOM     19  C   UNL     1       5.389   2.539  11.538  0.00  0.00    +0.000 C 
ENDBRANCH  17  19
ENDBRANCH  16  17
ENDBRANCH  15  16
ENDBRANCH  13  15
ENDBRANCH  12  13
ENDBRANCH  11  12
ENDBRANCH   1  11
TORSDOF 9
ENDMDL
MODEL 3
REMARK VINA RESULT:      -5.6      3.898      6.440
REMARK  Name = 
REMARK  11 active torsions:
REMARK  status: ('A' for Active; 'I' for Inactive)
REMARK    1  A    between atoms: C_1  and  C_2
REMARK    2  A    between atoms: C_2  and  C_3
REMARK    3  A    between atoms: C_3  and  C_4
REMARK    4  A    between atoms: C_4  and  C_5
REMARK    5  A    between atoms: C_5  and  N_6
REMARK    6  A    between atoms: N_6  and  C_7
REMARK    7  A    between atoms: N_6  and  C_8
REMARK    8  A    between atoms: C_8  and  C_9
REMARK    9  A    between atoms: C_9  and  C_10
REMARK   10  A    between atoms: C_13  and  O_14
REMARK   11  A    between atoms: C_15  and  O_16
REMARK                            x       y       z     vdW  Elec       q    Type
REMARK                         _______ _______ _______ _____ _____    ______ ____
ROOT
ATOM      1  C   UNL     1       3.147   3.537  18.028  0.00  0.00    +0.000 A 
ATOM      2  C   UNL     1       1.768   3.801  18.065  0.00  0.00    +0.000 A 
ATOM      3  C   UNL     1       1.030   3.547  19.223  0.00  0.00    +0.000 A 
ATOM      4  C   UNL     1       1.660   3.026  20.364  0.00  0.00    +0.000 A 
ATOM      5  C   UNL     1       3.040   2.759  20.335  0.00  0.00    +0.000 A 
ATOM      6  C   UNL     1       3.776   3.013  19.171  0.00  0.00    +0.000 A 
ENDROOT
BRANCH   4   7
ATOM      7  O   UNL     1       0.946   2.788  21.484  0.00  0.00    +0.000 OA
ATOM      8  H   UNL     1       1.074   3.299  22.296  0.00  0.00    +0.000 HD
ENDBRANCH   4   7
BRANCH   5   9
ATOM      9  O   UNL     1       3.679   2.262  21.415  0.00  0.00    +0.000 OA
ATOM     10  H   UNL     1       3.481   2.549  22.319  0.00  0.00    +0.000 HD
ENDBRANCH   5   9
BRANCH   1  11
ATOM     11  C   UNL     1       3.943   3.835  16.782  0.00  0.00    +0.000 C 
BRANCH  11  12
ATOM     12  C   UNL     1       5.141   4.770  17.042  0.00  0.00    +0.000 C 
BRANCH  12  13
ATOM     13  N   UNL     1       6.452   4.208  16.625  0.00  0.00    +0.000 NA
ATOM     14  C   UNL     1       7.478   4.704  17.567  0.00  0.00    +0.000 C 
BRANCH  13  15
ATOM     15  C   UNL     1       6.783   4.575  15.223  0.00  0.00    +0.000 C 
BRANCH  15  16
ATOM     16  C   UNL     1       5.965   3.814  14.161  0.00  0.00    +0.000 C 
BRANCH  16  17
ATOM     17  C   UNL     1       6.561   3.933  12.750  0.00  0.00    +0.000 C 
BRANCH  17  19
ATOM     18  C   UNL     1       4.463   3.230  11.512  0.00  0.00    +0.000 C 
ATOM     19  C   UNL     1       5.919   2.896  11.818  0.00  0.00    +0.000 C 
ENDBRANCH  17  19
ENDBRANCH  16  17
ENDBRANCH  15  16
ENDBRANCH  13  15
ENDBRANCH  12  13
ENDBRANCH  11  12
ENDBRANCH   1  11
TORSDOF 9
ENDMDL
MODEL 4
REMARK VINA RESULT:      -5.6      1.453      3.046
REMARK  Name = 
REMARK  11 active torsions:
REMARK  status: ('A' for Active; 'I' for Inactive)
REMARK    1  A    between atoms: C_1  and  C_2
REMARK    2  A    between atoms: C_2  and  C_3
REMARK    3  A    between atoms: C_3  and  C_4
REMARK    4  A    between atoms: C_4  and  C_5
REMARK    5  A    between atoms: C_5  and  N_6
REMARK    6  A    between atoms: N_6  and  C_7
REMARK    7  A    between atoms: N_6  and  C_8
REMARK    8  A    between atoms: C_8  and  C_9
REMARK    9  A    between atoms: C_9  and  C_10
REMARK   10  A    between atoms: C_13  and  O_14
REMARK   11  A    between atoms: C_15  and  O_16
REMARK                            x       y       z     vdW  Elec       q    Type
REMARK                         _______ _______ _______ _____ _____    ______ ____
ROOT
ATOM      1  C   UNL     1       4.226   5.398  18.261  0.00  0.00    +0.000 A 
ATOM      2  C   UNL     1       5.270   5.568  19.183  0.00  0.00    +0.000 A 
ATOM      3  C   UNL     1       6.571   5.179  18.856  0.00  0.00    +0.000 A 
ATOM      4  C   UNL     1       6.849   4.617  17.600  0.00  0.00    +0.000 A 
ATOM      5  C   UNL     1       5.807   4.444  16.671  0.00  0.00    +0.000 A 
ATOM      6  C   UNL     1       4.504   4.832  17.004  0.00  0.00    +0.000 A 
ENDROOT
BRANCH   4   7
ATOM      7  O   UNL     1       8.108   4.250  17.284  0.00  0.00    +0.000 OA
ATOM      8  H   UNL     1       8.388   4.100  16.370  0.00  0.00    +0.000 HD
ENDBRANCH   4   7
BRANCH   5   9
ATOM      9  O   UNL     1       6.038   3.911  15.453  0.00  0.00    +0.000 OA
ATOM     10  H   UNL     1       5.742   4.332  14.633  0.00  0.00    +0.000 HD
ENDBRANCH   5   9
BRANCH   1  11
ATOM     11  C   UNL     1       2.825   5.840  18.611  0.00  0.00    +0.000 C 
BRANCH  11  12
ATOM     12  C   UNL     1       2.422   5.475  20.053  0.00  0.00    +0.000 C 
BRANCH  12  13
ATOM     13  N   UNL     1       1.287   4.520  20.143  0.00  0.00    +0.000 NA
ATOM     14  C   UNL     1       1.571   3.579  21.247  0.00  0.00    +0.000 C 
BRANCH  13  15
ATOM     15  C   UNL     1       1.075   3.800  18.860  0.00  0.00    +0.000 C 
BRANCH  15  16
ATOM     16  C   UNL     1       1.497   2.319  18.889  0.00  0.00    +0.000 C 
BRANCH  16  17
ATOM     17  C   UNL     1       2.623   1.998  17.894  0.00  0.00    +0.000 C 
BRANCH  17  19
ATOM     18  C   UNL     1       4.464   2.011  19.638  0.00  0.00    +0.000 C 
ATOM     19  C   UNL     1       3.726   1.188  18.588  0.00  0.00    +0.000 C 
ENDBRANCH  17  19
ENDBRANCH  16  17
ENDBRANCH  15  16
ENDBRANCH  13  15
ENDBRANCH  12  13
ENDBRANCH  11  12
ENDBRANCH   1  11
TORSDOF 9
ENDMDL
MODEL 5
REMARK VINA RESULT:      -5.6      3.719      5.887
REMARK  Name = 
REMARK  11 active torsions:
REMARK  status: ('A' for Active; 'I' for Inactive)
REMARK    1  A    between atoms: C_1  and  C_2
REMARK    2  A    between atoms: C_2  and  C_3
REMARK    3  A    between atoms: C_3  and  C_4
REMARK    4  A    between atoms: C_4  and  C_5
REMARK    5  A    between atoms: C_5  and  N_6
REMARK    6  A    between atoms: N_6  and  C_7
REMARK    7  A    between atoms: N_6  and  C_8
REMARK    8  A    between atoms: C_8  and  C_9
REMARK    9  A    between atoms: C_9  and  C_10
REMARK   10  A    between atoms: C_13  and  O_14
REMARK   11  A    between atoms: C_15  and  O_16
REMARK                            x       y       z     vdW  Elec       q    Type
REMARK                         _______ _______ _______ _____ _____    ______ ____
ROOT
ATOM      1  C   UNL     1       4.114   4.967  17.993  0.00  0.00    +0.000 A 
ATOM      2  C   UNL     1       2.834   4.700  17.482  0.00  0.00    +0.000 A 
ATOM      3  C   UNL     1       2.217   3.471  17.728  0.00  0.00    +0.000 A 
ATOM      4  C   UNL     1       2.870   2.491  18.492  0.00  0.00    +0.000 A 
ATOM      5  C   UNL     1       4.153   2.751  19.007  0.00  0.00    +0.000 A 
ATOM      6  C   UNL     1       4.768   3.983  18.755  0.00  0.00    +0.000 A 
ENDROOT
BRANCH   4   7
ATOM      7  O   UNL     1       2.269   1.308  18.735  0.00  0.00    +0.000 OA
ATOM      8  H   UNL     1       2.766   0.519  18.990  0.00  0.00    +0.000 HD
ENDBRANCH   4   7
BRANCH   5   9
ATOM      9  O   UNL     1       4.808   1.834  19.749  0.00  0.00    +0.000 OA
ATOM     10  H   UNL     1       5.774   1.803  19.809  0.00  0.00    +0.000 HD
ENDBRANCH   5   9
BRANCH   1  11
ATOM     11  C   UNL     1       4.767   6.305  17.742  0.00  0.00    +0.000 C 
BRANCH  11  12
ATOM     12  C   UNL     1       5.239   6.480  16.285  0.00  0.00    +0.000 C 
BRANCH  12  13
ATOM     13  N   UNL     1       6.701   6.292  16.093  0.00  0.00    +0.000 NA
ATOM     14  C   UNL     1       6.938   4.868  15.780  0.00  0.00    +0.000 C 
BRANCH  13  15
ATOM     15  C   UNL     1       7.469   6.717  17.293  0.00  0.00    +0.000 C 
BRANCH  15  16
ATOM     16  C   UNL     1       7.511   8.242  17.508  0.00  0.00    +0.000 C 
BRANCH  16  17
ATOM     17  C   UNL     1       8.598   8.675  18.504  0.00  0.00    +0.000 C 
BRANCH  17  19
ATOM     18  C   UNL     1       9.558  10.778  19.547  0.00  0.00    +0.000 C 
ATOM     19  C   UNL     1       8.943  10.157  18.297  0.00  0.00    +0.000 C 
ENDBRANCH  17  19
ENDBRANCH  16  17
ENDBRANCH  15  16
ENDBRANCH  13  15
ENDBRANCH  12  13
ENDBRANCH  11  12
ENDBRANCH   1  11
TORSDOF 9
ENDMDL
MODEL 6
REMARK VINA RESULT:      -5.5      3.836      6.054
REMARK  Name = 
REMARK  11 active torsions:
REMARK  status: ('A' for Active; 'I' for Inactive)
REMARK    1  A    between atoms: C_1  and  C_2
REMARK    2  A    between atoms: C_2  and  C_3
REMARK    3  A    between atoms: C_3  and  C_4
REMARK    4  A    between atoms: C_4  and  C_5
REMARK    5  A    between atoms: C_5  and  N_6
REMARK    6  A    between atoms: N_6  and  C_7
REMARK    7  A    between atoms: N_6  and  C_8
REMARK    8  A    between atoms: C_8  and  C_9
REMARK    9  A    between atoms: C_9  and  C_10
REMARK   10  A    between atoms: C_13  and  O_14
REMARK   11  A    between atoms: C_15  and  O_16
REMARK                            x       y       z     vdW  Elec       q    Type
REMARK                         _______ _______ _______ _____ _____    ______ ____
ROOT
ATOM      1  C   UNL     1       3.788   4.922  17.690  0.00  0.00    +0.000 A 
ATOM      2  C   UNL     1       2.408   5.150  17.805  0.00  0.00    +0.000 A 
ATOM      3  C   UNL     1       1.533   4.088  18.043  0.00  0.00    +0.000 A 
ATOM      4  C   UNL     1       2.026   2.780  18.171  0.00  0.00    +0.000 A 
ATOM      5  C   UNL     1       3.407   2.543  18.056  0.00  0.00    +0.000 A 
ATOM      6  C   UNL     1       4.280   3.611  17.815  0.00  0.00    +0.000 A 
ENDROOT
BRANCH   4   7
ATOM      7  O   UNL     1       1.180   1.756  18.408  0.00  0.00    +0.000 OA
ATOM      8  H   UNL     1       1.148   0.971  17.843  0.00  0.00    +0.000 HD
ENDBRANCH   4   7
BRANCH   5   9
ATOM      9  O   UNL     1       3.917   1.299  18.178  0.00  0.00    +0.000 OA
ATOM     10  H   UNL     1       4.258   0.797  17.424  0.00  0.00    +0.000 HD
ENDBRANCH   5   9
BRANCH   1  11
ATOM     11  C   UNL     1       4.731   6.077  17.455  0.00  0.00    +0.000 C 
BRANCH  11  12
ATOM     12  C   UNL     1       6.032   5.656  16.744  0.00  0.00    +0.000 C 
BRANCH  12  13
ATOM     13  N   UNL     1       7.269   6.184  17.377  0.00  0.00    +0.000 NA
ATOM     14  C   UNL     1       7.333   5.660  18.757  0.00  0.00    +0.000 C 
BRANCH  13  15
ATOM     15  C   UNL     1       7.298   7.671  17.362  0.00  0.00    +0.000 C 
BRANCH  15  16
ATOM     16  C   UNL     1       8.376   8.291  18.272  0.00  0.00    +0.000 C 
BRANCH  16  17
ATOM     17  C   UNL     1       8.506   9.812  18.093  0.00  0.00    +0.000 C 
BRANCH  17  19
ATOM     18  C   UNL     1      10.537  11.118  18.869  0.00  0.00    +0.000 C 
ATOM     19  C   UNL     1       9.247  10.422  19.291  0.00  0.00    +0.000 C 
ENDBRANCH  17  19
ENDBRANCH  16  17
ENDBRANCH  15  16
ENDBRANCH  13  15
ENDBRANCH  12  13
ENDBRANCH  11  12
ENDBRANCH   1  11
TORSDOF 9
ENDMDL
MODEL 7
REMARK VINA RESULT:      -5.5      3.602      6.031
REMARK  Name = 
REMARK  11 active torsions:
REMARK  status: ('A' for Active; 'I' for Inactive)
REMARK    1  A    between atoms: C_1  and  C_2
REMARK    2  A    between atoms: C_2  and  C_3
REMARK    3  A    between atoms: C_3  and  C_4
REMARK    4  A    between atoms: C_4  and  C_5
REMARK    5  A    between atoms: C_5  and  N_6
REMARK    6  A    between atoms: N_6  and  C_7
REMARK    7  A    between atoms: N_6  and  C_8
REMARK    8  A    between atoms: C_8  and  C_9
REMARK    9  A    between atoms: C_9  and  C_10
REMARK   10  A    between atoms: C_13  and  O_14
REMARK   11  A    between atoms: C_15  and  O_16
REMARK                            x       y       z     vdW  Elec       q    Type
REMARK                         _______ _______ _______ _____ _____    ______ ____
ROOT
ATOM      1  C   UNL     1       2.482   5.325  18.532  0.00  0.00    +0.000 A 
ATOM      2  C   UNL     1       2.658   5.524  19.911  0.00  0.00    +0.000 A 
ATOM      3  C   UNL     1       2.075   4.650  20.831  0.00  0.00    +0.000 A 
ATOM      4  C   UNL     1       1.309   3.561  20.386  0.00  0.00    +0.000 A 
ATOM      5  C   UNL     1       1.128   3.355  19.007  0.00  0.00    +0.000 A 
ATOM      6  C   UNL     1       1.712   4.236  18.088  0.00  0.00    +0.000 A 
ENDROOT
BRANCH   4   7
ATOM      7  O   UNL     1       0.753   2.714  21.276  0.00  0.00    +0.000 OA
ATOM      8  H   UNL     1       0.196   1.970  21.004  0.00  0.00    +0.000 HD
ENDBRANCH   4   7
BRANCH   5   9
ATOM      9  O   UNL     1       0.401   2.317  18.543  0.00  0.00    +0.000 OA
ATOM     10  H   UNL     1      -0.256   2.411  17.839  0.00  0.00    +0.000 HD
ENDBRANCH   5   9
BRANCH   1  11
ATOM     11  C   UNL     1       3.133   6.260  17.542  0.00  0.00    +0.000 C 
BRANCH  11  12
ATOM     12  C   UNL     1       4.664   6.339  17.705  0.00  0.00    +0.000 C 
BRANCH  12  13
ATOM     13  N   UNL     1       5.366   5.049  17.477  0.00  0.00    +0.000 NA
ATOM     14  C   UNL     1       6.026   4.662  18.741  0.00  0.00    +0.000 C 
BRANCH  13  15
ATOM     15  C   UNL     1       6.347   5.151  16.364  0.00  0.00    +0.000 C 
BRANCH  15  16
ATOM     16  C   UNL     1       6.301   3.973  15.371  0.00  0.00    +0.000 C 
BRANCH  16  17
ATOM     17  C   UNL     1       5.538   4.309  14.080  0.00  0.00    +0.000 C 
BRANCH  17  19
ATOM     18  C   UNL     1       5.176   3.109  11.876  0.00  0.00    +0.000 C 
ATOM     19  C   UNL     1       6.203   3.621  12.880  0.00  0.00    +0.000 C 
ENDBRANCH  17  19
ENDBRANCH  16  17
ENDBRANCH  15  16
ENDBRANCH  13  15
ENDBRANCH  12  13
ENDBRANCH  11  12
ENDBRANCH   1  11
TORSDOF 9
ENDMDL
MODEL 8
REMARK VINA RESULT:      -5.5      3.659      6.246
REMARK  Name = 
REMARK  11 active torsions:
REMARK  status: ('A' for Active; 'I' for Inactive)
REMARK    1  A    between atoms: C_1  and  C_2
REMARK    2  A    between atoms: C_2  and  C_3
REMARK    3  A    between atoms: C_3  and  C_4
REMARK    4  A    between atoms: C_4  and  C_5
REMARK    5  A    between atoms: C_5  and  N_6
REMARK    6  A    between atoms: N_6  and  C_7
REMARK    7  A    between atoms: N_6  and  C_8
REMARK    8  A    between atoms: C_8  and  C_9
REMARK    9  A    between atoms: C_9  and  C_10
REMARK   10  A    between atoms: C_13  and  O_14
REMARK   11  A    between atoms: C_15  and  O_16
REMARK                            x       y       z     vdW  Elec       q    Type
REMARK                         _______ _______ _______ _____ _____    ______ ____
ROOT
ATOM      1  C   UNL     1       2.948   5.265  18.549  0.00  0.00    +0.000 A 
ATOM      2  C   UNL     1       2.509   5.709  19.807  0.00  0.00    +0.000 A 
ATOM      3  C   UNL     1       1.711   4.888  20.607  0.00  0.00    +0.000 A 
ATOM      4  C   UNL     1       1.341   3.609  20.162  0.00  0.00    +0.000 A 
ATOM      5  C   UNL     1       1.776   3.158  18.904  0.00  0.00    +0.000 A 
ATOM      6  C   UNL     1       2.574   3.985  18.104  0.00  0.00    +0.000 A 
ENDROOT
BRANCH   4   7
ATOM      7  O   UNL     1       0.576   2.816  20.940  0.00  0.00    +0.000 OA
ATOM      8  H   UNL     1       0.371   3.036  21.860  0.00  0.00    +0.000 HD
ENDBRANCH   4   7
BRANCH   5   9
ATOM      9  O   UNL     1       1.442   1.932  18.446  0.00  0.00    +0.000 OA
ATOM     10  H   UNL     1       0.658   1.773  17.901  0.00  0.00    +0.000 HD
ENDBRANCH   5   9
BRANCH   1  11
ATOM     11  C   UNL     1       3.829   6.147  17.698  0.00  0.00    +0.000 C 
BRANCH  11  12
ATOM     12  C   UNL     1       4.658   5.355  16.669  0.00  0.00    +0.000 C 
BRANCH  12  13
ATOM     13  N   UNL     1       6.111   5.290  16.979  0.00  0.00    +0.000 NA
ATOM     14  C   UNL     1       6.586   6.670  17.215  0.00  0.00    +0.000 C 
BRANCH  13  15
ATOM     15  C   UNL     1       6.874   4.635  15.885  0.00  0.00    +0.000 C 
BRANCH  15  16
ATOM     16  C   UNL     1       6.007   3.807  14.917  0.00  0.00    +0.000 C 
BRANCH  16  17
ATOM     17  C   UNL     1       6.415   3.986  13.447  0.00  0.00    +0.000 C 
BRANCH  17  19
ATOM     18  C   UNL     1       5.738   2.340  11.640  0.00  0.00    +0.000 C 
ATOM     19  C   UNL     1       5.289   3.499  12.524  0.00  0.00    +0.000 C 
ENDBRANCH  17  19
ENDBRANCH  16  17
ENDBRANCH  15  16
ENDBRANCH  13  15
ENDBRANCH  12  13
ENDBRANCH  11  12
ENDBRANCH   1  11
TORSDOF 9
ENDMDL
MODEL 9
REMARK VINA RESULT:      -5.5      0.981      1.750
REMARK  Name = 
REMARK  11 active torsions:
REMARK  status: ('A' for Active; 'I' for Inactive)
REMARK    1  A    between atoms: C_1  and  C_2
REMARK    2  A    between atoms: C_2  and  C_3
REMARK    3  A    between atoms: C_3  and  C_4
REMARK    4  A    between atoms: C_4  and  C_5
REMARK    5  A    between atoms: C_5  and  N_6
REMARK    6  A    between atoms: N_6  and  C_7
REMARK    7  A    between atoms: N_6  and  C_8
REMARK    8  A    between atoms: C_8  and  C_9
REMARK    9  A    between atoms: C_9  and  C_10
REMARK   10  A    between atoms: C_13  and  O_14
REMARK   11  A    between atoms: C_15  and  O_16
REMARK                            x       y       z     vdW  Elec       q    Type
REMARK                         _______ _______ _______ _____ _____    ______ ____
ROOT
ATOM      1  C   UNL     1       4.559   3.932  17.699  0.00  0.00    +0.000 A 
ATOM      2  C   UNL     1       4.576   4.546  16.436  0.00  0.00    +0.000 A 
ATOM      3  C   UNL     1       5.593   5.443  16.101  0.00  0.00    +0.000 A 
ATOM      4  C   UNL     1       6.610   5.738  17.023  0.00  0.00    +0.000 A 
ATOM      5  C   UNL     1       6.599   5.126  18.289  0.00  0.00    +0.000 A 
ATOM      6  C   UNL     1       5.576   4.230  18.622  0.00  0.00    +0.000 A 
ENDROOT
BRANCH   4   7
ATOM      7  O   UNL     1       7.595   6.598  16.694  0.00  0.00    +0.000 OA
ATOM      8  H   UNL     1       8.516   6.317  16.598  0.00  0.00    +0.000 HD
ENDBRANCH   4   7
BRANCH   5   9
ATOM      9  O   UNL     1       7.563   5.383  19.198  0.00  0.00    +0.000 OA
ATOM     10  H   UNL     1       7.871   6.279  19.397  0.00  0.00    +0.000 HD
ENDBRANCH   5   9
BRANCH   1  11
ATOM     11  C   UNL     1       3.470   2.947  18.047  0.00  0.00    +0.000 C 
BRANCH  11  12
ATOM     12  C   UNL     1       3.155   2.907  19.556  0.00  0.00    +0.000 C 
BRANCH  12  13
ATOM     13  N   UNL     1       1.704   2.843  19.873  0.00  0.00    +0.000 NA
ATOM     14  C   UNL     1       1.001   2.325  18.680  0.00  0.00    +0.000 C 
BRANCH  13  15
ATOM     15  C   UNL     1       1.174   4.172  20.277  0.00  0.00    +0.000 C 
BRANCH  15  16
ATOM     16  C   UNL     1       2.255   5.171  20.733  0.00  0.00    +0.000 C 
BRANCH  16  17
ATOM     17  C   UNL     1       2.074   6.568  20.120  0.00  0.00    +0.000 C 
BRANCH  17  19
ATOM     18  C   UNL     1       2.456   7.955  18.031  0.00  0.00    +0.000 C 
ATOM     19  C   UNL     1       2.533   6.565  18.655  0.00  0.00    +0.000 C 
ENDBRANCH  17  19
ENDBRANCH  16  17
ENDBRANCH  15  16
ENDBRANCH  13  15
ENDBRANCH  12  13
ENDBRANCH  11  12
ENDBRANCH   1  11
TORSDOF 9
ENDMDL
