MODEL 1
REMARK VINA RESULT:      -7.4      0.000      0.000
REMARK  Name = 
REMARK  7 active torsions:
REMARK  status: ('A' for Active; 'I' for Inactive)
REMARK    1  A    between atoms: C_1  and  O_2
REMARK    2  A    between atoms: O_2  and  C_3
REMARK    3  A    between atoms: C_6  and  N_7
REMARK    4  A    between atoms: N_10  and  C_11
REMARK    5  A    between atoms: C_11  and  C_12
REMARK    6  A    between atoms: C_12  and  C_13
REMARK    7  A    between atoms: C_13  and  N_14
REMARK                            x       y       z     vdW  Elec       q    Type
REMARK                         _______ _______ _______ _____ _____    ______ ____
ROOT
ATOM      1  C   UNL     1       1.495  10.145  18.404  0.00  0.00    +0.000 C 
ENDROOT
BRANCH   1   5
ATOM      2  N   UNL     1      -0.135  11.888  21.080  0.00  0.00    +0.000 N 
ATOM      3  C   UNL     1      -0.055  10.421  21.031  0.00  0.00    +0.000 C 
ATOM      4  C   UNL     1      -0.594   9.889  19.688  0.00  0.00    +0.000 C 
ATOM      5  N   UNL     1       0.065  10.485  18.497  0.00  0.00    +0.000 NA
ATOM      6  C   UNL     1      -0.125  11.956  18.585  0.00  0.00    +0.000 C 
ATOM      7  C   UNL     1       0.369  12.614  19.901  0.00  0.00    +0.000 C 
BRANCH   2  11
ATOM      8  C   UNL     1      -2.423  13.880  24.010  0.00  0.00    +0.000 A 
ATOM      9  C   UNL     1      -1.224  14.422  23.558  0.00  0.00    +0.000 A 
ATOM     10  C   UNL     1      -0.480  13.766  22.570  0.00  0.00    +0.000 A 
ATOM     11  C   UNL     1      -0.897  12.544  22.025  0.00  0.00    +0.000 A 
ATOM     12  C   UNL     1      -2.102  12.014  22.509  0.00  0.00    +0.000 A 
ATOM     13  C   UNL     1      -2.856  12.666  23.488  0.00  0.00    +0.000 A 
BRANCH   8  15
ATOM     14  C   UNL     1      -2.392  15.766  25.421  0.00  0.00    +0.000 C 
ATOM     15  O   UNL     1      -3.066  14.592  24.983  0.00  0.00    +0.000 OA
ENDBRANCH   8  15
ENDBRANCH   2  11
ENDBRANCH   1   5
BRANCH   1  16
ATOM     16  C   UNL     1       1.776   8.791  17.741  0.00  0.00    +0.000 C 
BRANCH  16  17
ATOM     17  C   UNL     1       3.148   8.248  18.135  0.00  0.00    +0.000 C 
BRANCH  17  18
ATOM     18  N   UNL     1       3.137   6.798  18.374  0.00  0.00    +0.000 N 
ATOM     19  C   UNL     1       3.856   5.916  17.565  0.00  0.00    +0.000 A 
ATOM     20  S   UNL     1       4.951   6.317  16.361  0.00  0.00    +0.000 S 
ATOM     21  N   UNL     1       3.633   4.588  17.771  0.00  0.00    +0.000 N 
ATOM     22  C   UNL     1       2.779   4.075  18.730  0.00  0.00    +0.000 A 
ATOM     23  N   UNL     1       2.618   2.737  18.742  0.00  0.00    +0.000 NA
ATOM     24  C   UNL     1       1.787   2.235  19.685  0.00  0.00    +0.000 A 
ATOM     25  C   UNL     1       1.134   3.011  20.630  0.00  0.00    +0.000 A 
ATOM     26  C   UNL     1       1.324   4.390  20.595  0.00  0.00    +0.000 A 
ATOM     27  C   UNL     1       2.154   4.931  19.611  0.00  0.00    +0.000 A 
ATOM     28  C   UNL     1       2.361   6.374  19.463  0.00  0.00    +0.000 A 
ATOM     29  O   UNL     1       1.845   7.129  20.286  0.00  0.00    +0.000 OA
ATOM     30  H   UNL     1       4.096   3.912  17.175  0.00  0.00    +0.000 HD
ENDBRANCH  17  18
ENDBRANCH  16  17
ENDBRANCH   1  16
TORSDOF 6
ENDMDL
MODEL 2
REMARK VINA RESULT:      -7.2      0.459      1.003
REMARK  Name = 
REMARK  7 active torsions:
REMARK  status: ('A' for Active; 'I' for Inactive)
REMARK    1  A    between atoms: C_1  and  O_2
REMARK    2  A    between atoms: O_2  and  C_3
REMARK    3  A    between atoms: C_6  and  N_7
REMARK    4  A    between atoms: N_10  and  C_11
REMARK    5  A    between atoms: C_11  and  C_12
REMARK    6  A    between atoms: C_12  and  C_13
REMARK    7  A    between atoms: C_13  and  N_14
REMARK                            x       y       z     vdW  Elec       q    Type
REMARK                         _______ _______ _______ _____ _____    ______ ____
ROOT
ATOM      1  C   UNL     1       1.491  10.146  18.394  0.00  0.00    +0.000 C 
ENDROOT
BRANCH   1   5
ATOM      2  N   UNL     1      -0.046  11.984  21.061  0.00  0.00    +0.000 N 
ATOM      3  C   UNL     1       0.008  10.516  21.048  0.00  0.00    +0.000 C 
ATOM      4  C   UNL     1      -0.572   9.960  19.732  0.00  0.00    +0.000 C 
ATOM      5  N   UNL     1       0.069  10.513  18.511  0.00  0.00    +0.000 NA
ATOM      6  C   UNL     1      -0.094  11.989  18.566  0.00  0.00    +0.000 C 
ATOM      7  C   UNL     1       0.443  12.671  19.852  0.00  0.00    +0.000 C 
BRANCH   2  11
ATOM      8  C   UNL     1      -2.312  14.120  23.906  0.00  0.00    +0.000 A 
ATOM      9  C   UNL     1      -2.784  12.921  23.380  0.00  0.00    +0.000 A 
ATOM     10  C   UNL     1      -2.017  12.207  22.451  0.00  0.00    +0.000 A 
ATOM     11  C   UNL     1      -0.774  12.678  22.006  0.00  0.00    +0.000 A 
ATOM     12  C   UNL     1      -0.330  13.895  22.542  0.00  0.00    +0.000 A 
ATOM     13  C   UNL     1      -1.084  14.611  23.476  0.00  0.00    +0.000 A 
BRANCH   8  15
ATOM     14  C   UNL     1      -4.406  15.135  24.273  0.00  0.00    +0.000 C 
ATOM     15  O   UNL     1      -3.141  14.744  24.795  0.00  0.00    +0.000 OA
ENDBRANCH   8  15
ENDBRANCH   2  11
ENDBRANCH   1   5
BRANCH   1  16
ATOM     16  C   UNL     1       1.731   8.760  17.781  0.00  0.00    +0.000 C 
BRANCH  16  17
ATOM     17  C   UNL     1       3.126   8.236  18.114  0.00  0.00    +0.000 C 
BRANCH  17  18
ATOM     18  N   UNL     1       3.140   6.792  18.383  0.00  0.00    +0.000 N 
ATOM     19  C   UNL     1       3.880   5.906  17.598  0.00  0.00    +0.000 A 
ATOM     20  S   UNL     1       4.977   6.302  16.393  0.00  0.00    +0.000 S 
ATOM     21  N   UNL     1       3.680   4.578  17.830  0.00  0.00    +0.000 N 
ATOM     22  C   UNL     1       2.829   4.070  18.794  0.00  0.00    +0.000 A 
ATOM     23  N   UNL     1       2.692   2.730  18.833  0.00  0.00    +0.000 NA
ATOM     24  C   UNL     1       1.863   2.232  19.781  0.00  0.00    +0.000 A 
ATOM     25  C   UNL     1       1.190   3.016  20.704  0.00  0.00    +0.000 A 
ATOM     26  C   UNL     1       1.355   4.397  20.642  0.00  0.00    +0.000 A 
ATOM     27  C   UNL     1       2.181   4.933  19.653  0.00  0.00    +0.000 A 
ATOM     28  C   UNL     1       2.363   6.376  19.475  0.00  0.00    +0.000 A 
ATOM     29  O   UNL     1       1.828   7.138  20.279  0.00  0.00    +0.000 OA
ATOM     30  H   UNL     1       4.159   3.899  17.251  0.00  0.00    +0.000 HD
ENDBRANCH  17  18
ENDBRANCH  16  17
ENDBRANCH   1  16
TORSDOF 6
ENDMDL
MODEL 3
REMARK VINA RESULT:      -7.2      4.172      9.538
REMARK  Name = 
REMARK  7 active torsions:
REMARK  status: ('A' for Active; 'I' for Inactive)
REMARK    1  A    between atoms: C_1  and  O_2
REMARK    2  A    between atoms: O_2  and  C_3
REMARK    3  A    between atoms: C_6  and  N_7
REMARK    4  A    between atoms: N_10  and  C_11
REMARK    5  A    between atoms: C_11  and  C_12
REMARK    6  A    between atoms: C_12  and  C_13
REMARK    7  A    between atoms: C_13  and  N_14
REMARK                            x       y       z     vdW  Elec       q    Type
REMARK                         _______ _______ _______ _____ _____    ______ ____
ROOT
ATOM      1  C   UNL     1      -0.764  10.471  22.109  0.00  0.00    +0.000 C 
ENDROOT
BRANCH   1   5
ATOM      2  N   UNL     1       1.277   8.417  19.995  0.00  0.00    +0.000 N 
ATOM      3  C   UNL     1       1.033   8.092  21.407  0.00  0.00    +0.000 C 
ATOM      4  C   UNL     1       1.390   9.288  22.312  0.00  0.00    +0.000 C 
ATOM      5  N   UNL     1       0.698  10.550  21.942  0.00  0.00    +0.000 NA
ATOM      6  C   UNL     1       1.055  10.844  20.531  0.00  0.00    +0.000 C 
ATOM      7  C   UNL     1       0.754   9.709  19.517  0.00  0.00    +0.000 C 
BRANCH   2  11
ATOM      8  C   UNL     1       4.015   6.256  17.623  0.00  0.00    +0.000 A 
ATOM      9  C   UNL     1       3.577   7.516  17.229  0.00  0.00    +0.000 A 
ATOM     10  C   UNL     1       2.685   8.237  18.031  0.00  0.00    +0.000 A 
ATOM     11  C   UNL     1       2.187   7.713  19.232  0.00  0.00    +0.000 A 
ATOM     12  C   UNL     1       2.634   6.435  19.598  0.00  0.00    +0.000 A 
ATOM     13  C   UNL     1       3.531   5.711  18.808  0.00  0.00    +0.000 A 
BRANCH   8  15
ATOM     14  C   UNL     1       6.256   5.890  16.995  0.00  0.00    +0.000 C 
ATOM     15  O   UNL     1       4.875   5.631  16.765  0.00  0.00    +0.000 OA
ENDBRANCH   8  15
ENDBRANCH   2  11
ENDBRANCH   1   5
BRANCH   1  16
ATOM     16  C   UNL     1      -1.352  11.566  23.008  0.00  0.00    +0.000 C 
BRANCH  16  17
ATOM     17  C   UNL     1      -1.746  12.801  22.201  0.00  0.00    +0.000 C 
BRANCH  17  18
ATOM     18  N   UNL     1      -3.082  12.683  21.600  0.00  0.00    +0.000 N 
ATOM     19  C   UNL     1      -4.243  12.749  22.374  0.00  0.00    +0.000 A 
ATOM     20  S   UNL     1      -4.349  13.140  24.001  0.00  0.00    +0.000 S 
ATOM     21  N   UNL     1      -5.412  12.454  21.738  0.00  0.00    +0.000 N 
ATOM     22  C   UNL     1      -5.516  12.129  20.398  0.00  0.00    +0.000 A 
ATOM     23  N   UNL     1      -6.740  11.787  19.953  0.00  0.00    +0.000 NA
ATOM     24  C   UNL     1      -6.844  11.474  18.640  0.00  0.00    +0.000 A 
ATOM     25  C   UNL     1      -5.780  11.515  17.752  0.00  0.00    +0.000 A 
ATOM     26  C   UNL     1      -4.527  11.877  18.241  0.00  0.00    +0.000 A 
ATOM     27  C   UNL     1      -4.394  12.173  19.598  0.00  0.00    +0.000 A 
ATOM     28  C   UNL     1      -3.102  12.502  20.209  0.00  0.00    +0.000 A 
ATOM     29  O   UNL     1      -2.116  12.596  19.481  0.00  0.00    +0.000 OA
ATOM     30  H   UNL     1      -6.273  12.442  22.271  0.00  0.00    +0.000 HD
ENDBRANCH  17  18
ENDBRANCH  16  17
ENDBRANCH   1  16
TORSDOF 6
ENDMDL
MODEL 4
REMARK VINA RESULT:      -7.1      2.152      3.366
REMARK  Name = 
REMARK  7 active torsions:
REMARK  status: ('A' for Active; 'I' for Inactive)
REMARK    1  A    between atoms: C_1  and  O_2
REMARK    2  A    between atoms: O_2  and  C_3
REMARK    3  A    between atoms: C_6  and  N_7
REMARK    4  A    between atoms: N_10  and  C_11
REMARK    5  A    between atoms: C_11  and  C_12
REMARK    6  A    between atoms: C_12  and  C_13
REMARK    7  A    between atoms: C_13  and  N_14
REMARK                            x       y       z     vdW  Elec       q    Type
REMARK                         _______ _______ _______ _____ _____    ______ ____
ROOT
ATOM      1  C   UNL     1       1.338   8.911  20.936  0.00  0.00    +0.000 C 
ENDROOT
BRANCH   1   5
ATOM      2  N   UNL     1      -0.612  11.492  22.482  0.00  0.00    +0.000 N 
ATOM      3  C   UNL     1      -0.344  10.206  23.143  0.00  0.00    +0.000 C 
ATOM      4  C   UNL     1      -0.754   9.030  22.235  0.00  0.00    +0.000 C 
ATOM      5  N   UNL     1      -0.127   9.062  20.889  0.00  0.00    +0.000 NA
ATOM      6  C   UNL     1      -0.506  10.355  20.263  0.00  0.00    +0.000 C 
ATOM      7  C   UNL     1      -0.155  11.622  21.087  0.00  0.00    +0.000 C 
BRANCH   2  11
ATOM      8  C   UNL     1      -3.328  14.312  24.050  0.00  0.00    +0.000 A 
ATOM      9  C   UNL     1      -3.731  13.004  23.801  0.00  0.00    +0.000 A 
ATOM     10  C   UNL     1      -2.819  12.067  23.300  0.00  0.00    +0.000 A 
ATOM     11  C   UNL     1      -1.491  12.414  23.013  0.00  0.00    +0.000 A 
ATOM     12  C   UNL     1      -1.117  13.743  23.260  0.00  0.00    +0.000 A 
ATOM     13  C   UNL     1      -2.017  14.682  23.768  0.00  0.00    +0.000 A 
BRANCH   8  15
ATOM     14  C   UNL     1      -3.825  16.393  25.037  0.00  0.00    +0.000 C 
ATOM     15  O   UNL     1      -4.296  15.150  24.527  0.00  0.00    +0.000 OA
ENDBRANCH   8  15
ENDBRANCH   2  11
ENDBRANCH   1   5
BRANCH   1  16
ATOM     16  C   UNL     1       1.818   7.454  20.941  0.00  0.00    +0.000 C 
BRANCH  16  17
ATOM     17  C   UNL     1       1.717   6.827  19.552  0.00  0.00    +0.000 C 
BRANCH  17  18
ATOM     18  N   UNL     1       2.928   6.084  19.176  0.00  0.00    +0.000 N 
ATOM     19  C   UNL     1       3.249   4.859  19.762  0.00  0.00    +0.000 A 
ATOM     20  S   UNL     1       2.290   3.956  20.801  0.00  0.00    +0.000 S 
ATOM     21  N   UNL     1       4.477   4.348  19.465  0.00  0.00    +0.000 N 
ATOM     22  C   UNL     1       5.391   4.945  18.616  0.00  0.00    +0.000 A 
ATOM     23  N   UNL     1       6.590   4.343  18.498  0.00  0.00    +0.000 NA
ATOM     24  C   UNL     1       7.481   4.924  17.662  0.00  0.00    +0.000 A 
ATOM     25  C   UNL     1       7.213   6.064  16.921  0.00  0.00    +0.000 A 
ATOM     26  C   UNL     1       5.963   6.662  17.061  0.00  0.00    +0.000 A 
ATOM     27  C   UNL     1       5.040   6.095  17.941  0.00  0.00    +0.000 A 
ATOM     28  C   UNL     1       3.726   6.693  18.196  0.00  0.00    +0.000 A 
ATOM     29  O   UNL     1       3.398   7.686  17.549  0.00  0.00    +0.000 OA
ATOM     30  H   UNL     1       4.772   3.485  19.906  0.00  0.00    +0.000 HD
ENDBRANCH  17  18
ENDBRANCH  16  17
ENDBRANCH   1  16
TORSDOF 6
ENDMDL
MODEL 5
REMARK VINA RESULT:      -7.0      1.264      1.472
REMARK  Name = 
REMARK  7 active torsions:
REMARK  status: ('A' for Active; 'I' for Inactive)
REMARK    1  A    between atoms: C_1  and  O_2
REMARK    2  A    between atoms: O_2  and  C_3
REMARK    3  A    between atoms: C_6  and  N_7
REMARK    4  A    between atoms: N_10  and  C_11
REMARK    5  A    between atoms: C_11  and  C_12
REMARK    6  A    between atoms: C_12  and  C_13
REMARK    7  A    between atoms: C_13  and  N_14
REMARK                            x       y       z     vdW  Elec       q    Type
REMARK                         _______ _______ _______ _____ _____    ______ ____
ROOT
ATOM      1  C   UNL     1       1.864  10.136  18.426  0.00  0.00    +0.000 C 
ENDROOT
BRANCH   1   5
ATOM      2  N   UNL     1      -0.681  11.379  20.624  0.00  0.00    +0.000 N 
ATOM      3  C   UNL     1      -0.785  10.071  19.962  0.00  0.00    +0.000 C 
ATOM      4  C   UNL     1      -0.601  10.214  18.438  0.00  0.00    +0.000 C 
ATOM      5  N   UNL     1       0.660  10.895  18.046  0.00  0.00    +0.000 NA
ATOM      6  C   UNL     1       0.652  12.232  18.694  0.00  0.00    +0.000 C 
ATOM      7  C   UNL     1       0.461  12.225  20.234  0.00  0.00    +0.000 C 
BRANCH   2  11
ATOM      8  C   UNL     1      -3.863  13.084  22.806  0.00  0.00    +0.000 A 
ATOM      9  C   UNL     1      -3.744  13.305  21.437  0.00  0.00    +0.000 A 
ATOM     10  C   UNL     1      -2.697  12.719  20.716  0.00  0.00    +0.000 A 
ATOM     11  C   UNL     1      -1.730  11.919  21.340  0.00  0.00    +0.000 A 
ATOM     12  C   UNL     1      -1.866  11.724  22.722  0.00  0.00    +0.000 A 
ATOM     13  C   UNL     1      -2.913  12.297  23.450  0.00  0.00    +0.000 A 
BRANCH   8  15
ATOM     14  C   UNL     1      -5.819  12.848  24.097  0.00  0.00    +0.000 C 
ATOM     15  O   UNL     1      -4.911  13.709  23.419  0.00  0.00    +0.000 OA
ENDBRANCH   8  15
ENDBRANCH   2  11
ENDBRANCH   1   5
BRANCH   1  16
ATOM     16  C   UNL     1       1.967   8.754  17.766  0.00  0.00    +0.000 C 
BRANCH  16  17
ATOM     17  C   UNL     1       3.330   8.115  18.019  0.00  0.00    +0.000 C 
BRANCH  17  18
ATOM     18  N   UNL     1       3.242   6.666  18.252  0.00  0.00    +0.000 N 
ATOM     19  C   UNL     1       3.901   5.750  17.431  0.00  0.00    +0.000 A 
ATOM     20  S   UNL     1       5.004   6.096  16.216  0.00  0.00    +0.000 S 
ATOM     21  N   UNL     1       3.608   4.434  17.633  0.00  0.00    +0.000 N 
ATOM     22  C   UNL     1       2.738   3.964  18.600  0.00  0.00    +0.000 A 
ATOM     23  N   UNL     1       2.503   2.638  18.608  0.00  0.00    +0.000 NA
ATOM     24  C   UNL     1       1.656   2.177  19.558  0.00  0.00    +0.000 A 
ATOM     25  C   UNL     1       1.058   2.984  20.514  0.00  0.00    +0.000 A 
ATOM     26  C   UNL     1       1.323   4.350  20.483  0.00  0.00    +0.000 A 
ATOM     27  C   UNL     1       2.170   4.849  19.492  0.00  0.00    +0.000 A 
ATOM     28  C   UNL     1       2.455   6.280  19.347  0.00  0.00    +0.000 A 
ATOM     29  O   UNL     1       1.991   7.058  20.180  0.00  0.00    +0.000 OA
ATOM     30  H   UNL     1       4.026   3.738  17.029  0.00  0.00    +0.000 HD
ENDBRANCH  17  18
ENDBRANCH  16  17
ENDBRANCH   1  16
TORSDOF 6
ENDMDL
MODEL 6
REMARK VINA RESULT:      -7.0      0.803      1.440
REMARK  Name = 
REMARK  7 active torsions:
REMARK  status: ('A' for Active; 'I' for Inactive)
REMARK    1  A    between atoms: C_1  and  O_2
REMARK    2  A    between atoms: O_2  and  C_3
REMARK    3  A    between atoms: C_6  and  N_7
REMARK    4  A    between atoms: N_10  and  C_11
REMARK    5  A    between atoms: C_11  and  C_12
REMARK    6  A    between atoms: C_12  and  C_13
REMARK    7  A    between atoms: C_13  and  N_14
REMARK                            x       y       z     vdW  Elec       q    Type
REMARK                         _______ _______ _______ _____ _____    ______ ____
ROOT
ATOM      1  C   UNL     1       0.596   9.554  18.504  0.00  0.00    +0.000 C 
ENDROOT
BRANCH   1   5
ATOM      2  N   UNL     1      -1.225  11.537  20.872  0.00  0.00    +0.000 N 
ATOM      3  C   UNL     1      -1.124  11.904  19.452  0.00  0.00    +0.000 C 
ATOM      4  C   UNL     1       0.351  11.955  19.005  0.00  0.00    +0.000 C 
ATOM      5  N   UNL     1       1.105  10.703  19.272  0.00  0.00    +0.000 NA
ATOM      6  C   UNL     1       1.015  10.445  20.733  0.00  0.00    +0.000 C 
ATOM      7  C   UNL     1      -0.423  10.381  21.311  0.00  0.00    +0.000 C 
BRANCH   2  11
ATOM      8  C   UNL     1      -2.964  14.163  23.677  0.00  0.00    +0.000 A 
ATOM      9  C   UNL     1      -3.755  13.493  22.748  0.00  0.00    +0.000 A 
ATOM     10  C   UNL     1      -3.174  12.607  21.833  0.00  0.00    +0.000 A 
ATOM     11  C   UNL     1      -1.790  12.383  21.804  0.00  0.00    +0.000 A 
ATOM     12  C   UNL     1      -1.016  13.081  22.741  0.00  0.00    +0.000 A 
ATOM     13  C   UNL     1      -1.588  13.961  23.664  0.00  0.00    +0.000 A 
BRANCH   8  15
ATOM     14  C   UNL     1      -3.381  16.397  24.296  0.00  0.00    +0.000 C 
ATOM     15  O   UNL     1      -3.626  15.013  24.517  0.00  0.00    +0.000 OA
ENDBRANCH   8  15
ENDBRANCH   2  11
ENDBRANCH   1   5
BRANCH   1  16
ATOM     16  C   UNL     1       1.659   8.853  17.648  0.00  0.00    +0.000 C 
BRANCH  16  17
ATOM     17  C   UNL     1       2.843   8.391  18.494  0.00  0.00    +0.000 C 
BRANCH  17  18
ATOM     18  N   UNL     1       2.916   6.928  18.617  0.00  0.00    +0.000 N 
ATOM     19  C   UNL     1       3.673   6.155  17.735  0.00  0.00    +0.000 A 
ATOM     20  S   UNL     1       4.731   6.711  16.559  0.00  0.00    +0.000 S 
ATOM     21  N   UNL     1       3.528   4.804  17.837  0.00  0.00    +0.000 N 
ATOM     22  C   UNL     1       2.715   4.169  18.758  0.00  0.00    +0.000 A 
ATOM     23  N   UNL     1       2.628   2.828  18.665  0.00  0.00    +0.000 NA
ATOM     24  C   UNL     1       1.837   2.207  19.571  0.00  0.00    +0.000 A 
ATOM     25  C   UNL     1       1.153   2.868  20.579  0.00  0.00    +0.000 A 
ATOM     26  C   UNL     1       1.265   4.254  20.652  0.00  0.00    +0.000 A 
ATOM     27  C   UNL     1       2.052   4.916  19.709  0.00  0.00    +0.000 A 
ATOM     28  C   UNL     1       2.177   6.377  19.673  0.00  0.00    +0.000 A 
ATOM     29  O   UNL     1       1.629   7.034  20.558  0.00  0.00    +0.000 OA
ATOM     30  H   UNL     1       4.020   4.205  17.186  0.00  0.00    +0.000 HD
ENDBRANCH  17  18
ENDBRANCH  16  17
ENDBRANCH   1  16
TORSDOF 6
ENDMDL
MODEL 7
REMARK VINA RESULT:      -7.0      0.886      1.301
REMARK  Name = 
REMARK  7 active torsions:
REMARK  status: ('A' for Active; 'I' for Inactive)
REMARK    1  A    between atoms: C_1  and  O_2
REMARK    2  A    between atoms: O_2  and  C_3
REMARK    3  A    between atoms: C_6  and  N_7
REMARK    4  A    between atoms: N_10  and  C_11
REMARK    5  A    between atoms: C_11  and  C_12
REMARK    6  A    between atoms: C_12  and  C_13
REMARK    7  A    between atoms: C_13  and  N_14
REMARK                            x       y       z     vdW  Elec       q    Type
REMARK                         _______ _______ _______ _____ _____    ______ ____
ROOT
ATOM      1  C   UNL     1       0.751   9.617  18.303  0.00  0.00    +0.000 C 
ENDROOT
BRANCH   1   5
ATOM      2  N   UNL     1      -0.986  11.876  20.480  0.00  0.00    +0.000 N 
ATOM      3  C   UNL     1      -0.599  12.245  19.111  0.00  0.00    +0.000 C 
ATOM      4  C   UNL     1       0.908  12.007  18.887  0.00  0.00    +0.000 C 
ATOM      5  N   UNL     1       1.351  10.623  19.196  0.00  0.00    +0.000 NA
ATOM      6  C   UNL     1       0.990  10.357  20.612  0.00  0.00    +0.000 C 
ATOM      7  C   UNL     1      -0.504  10.572  20.970  0.00  0.00    +0.000 C 
BRANCH   2  11
ATOM      8  C   UNL     1      -2.609  14.648  23.212  0.00  0.00    +0.000 A 
ATOM      9  C   UNL     1      -1.500  13.882  23.555  0.00  0.00    +0.000 A 
ATOM     10  C   UNL     1      -0.954  12.978  22.636  0.00  0.00    +0.000 A 
ATOM     11  C   UNL     1      -1.510  12.798  21.362  0.00  0.00    +0.000 A 
ATOM     12  C   UNL     1      -2.636  13.573  21.048  0.00  0.00    +0.000 A 
ATOM     13  C   UNL     1      -3.184  14.483  21.956  0.00  0.00    +0.000 A 
BRANCH   8  15
ATOM     14  C   UNL     1      -2.550  15.258  25.486  0.00  0.00    +0.000 C 
ATOM     15  O   UNL     1      -3.072  15.490  24.183  0.00  0.00    +0.000 OA
ENDBRANCH   8  15
ENDBRANCH   2  11
ENDBRANCH   1   5
BRANCH   1  16
ATOM     16  C   UNL     1       1.773   8.789  17.513  0.00  0.00    +0.000 C 
BRANCH  16  17
ATOM     17  C   UNL     1       2.933   8.342  18.399  0.00  0.00    +0.000 C 
BRANCH  17  18
ATOM     18  N   UNL     1       2.994   6.882  18.559  0.00  0.00    +0.000 N 
ATOM     19  C   UNL     1       3.758   6.082  17.708  0.00  0.00    +0.000 A 
ATOM     20  S   UNL     1       4.837   6.601  16.534  0.00  0.00    +0.000 S 
ATOM     21  N   UNL     1       3.601   4.734  17.841  0.00  0.00    +0.000 N 
ATOM     22  C   UNL     1       2.770   4.129  18.766  0.00  0.00    +0.000 A 
ATOM     23  N   UNL     1       2.676   2.786  18.705  0.00  0.00    +0.000 NA
ATOM     24  C   UNL     1       1.867   2.193  19.615  0.00  0.00    +0.000 A 
ATOM     25  C   UNL     1       1.173   2.884  20.596  0.00  0.00    +0.000 A 
ATOM     26  C   UNL     1       1.295   4.270  20.636  0.00  0.00    +0.000 A 
ATOM     27  C   UNL     1       2.100   4.904  19.688  0.00  0.00    +0.000 A 
ATOM     28  C   UNL     1       2.235   6.362  19.618  0.00  0.00    +0.000 A 
ATOM     29  O   UNL     1       1.680   7.045  20.478  0.00  0.00    +0.000 OA
ATOM     30  H   UNL     1       4.099   4.116  17.213  0.00  0.00    +0.000 HD
ENDBRANCH  17  18
ENDBRANCH  16  17
ENDBRANCH   1  16
TORSDOF 6
ENDMDL
MODEL 8
REMARK VINA RESULT:      -6.9      1.708      2.049
REMARK  Name = 
REMARK  7 active torsions:
REMARK  status: ('A' for Active; 'I' for Inactive)
REMARK    1  A    between atoms: C_1  and  O_2
REMARK    2  A    between atoms: O_2  and  C_3
REMARK    3  A    between atoms: C_6  and  N_7
REMARK    4  A    between atoms: N_10  and  C_11
REMARK    5  A    between atoms: C_11  and  C_12
REMARK    6  A    between atoms: C_12  and  C_13
REMARK    7  A    between atoms: C_13  and  N_14
REMARK                            x       y       z     vdW  Elec       q    Type
REMARK                         _______ _______ _______ _____ _____    ______ ____
ROOT
ATOM      1  C   UNL     1       1.485  10.164  17.859  0.00  0.00    +0.000 C 
ENDROOT
BRANCH   1   5
ATOM      2  N   UNL     1      -1.181  12.143  19.212  0.00  0.00    +0.000 N 
ATOM      3  C   UNL     1       0.124  12.719  18.858  0.00  0.00    +0.000 C 
ATOM      4  C   UNL     1       1.267  11.948  19.547  0.00  0.00    +0.000 C 
ATOM      5  N   UNL     1       1.254  10.487  19.278  0.00  0.00    +0.000 NA
ATOM      6  C   UNL     1      -0.064   9.972  19.730  0.00  0.00    +0.000 C 
ATOM      7  C   UNL     1      -1.301  10.677  19.114  0.00  0.00    +0.000 C 
BRANCH   2  11
ATOM      8  C   UNL     1      -4.103  14.358  21.297  0.00  0.00    +0.000 A 
ATOM      9  C   UNL     1      -2.766  14.742  21.330  0.00  0.00    +0.000 A 
ATOM     10  C   UNL     1      -1.804  14.014  20.618  0.00  0.00    +0.000 A 
ATOM     11  C   UNL     1      -2.144  12.875  19.876  0.00  0.00    +0.000 A 
ATOM     12  C   UNL     1      -3.496  12.502  19.872  0.00  0.00    +0.000 A 
ATOM     13  C   UNL     1      -4.465  13.227  20.572  0.00  0.00    +0.000 A 
BRANCH   8  15
ATOM     14  C   UNL     1      -5.937  14.406  22.774  0.00  0.00    +0.000 C 
ATOM     15  O   UNL     1      -4.959  15.127  22.033  0.00  0.00    +0.000 OA
ENDBRANCH   8  15
ENDBRANCH   2  11
ENDBRANCH   1   5
BRANCH   1  16
ATOM     16  C   UNL     1       1.772   8.681  17.592  0.00  0.00    +0.000 C 
BRANCH  16  17
ATOM     17  C   UNL     1       3.038   8.218  18.309  0.00  0.00    +0.000 C 
BRANCH  17  18
ATOM     18  N   UNL     1       3.077   6.763  18.509  0.00  0.00    +0.000 N 
ATOM     19  C   UNL     1       3.824   5.928  17.677  0.00  0.00    +0.000 A 
ATOM     20  S   UNL     1       4.905   6.398  16.484  0.00  0.00    +0.000 S 
ATOM     21  N   UNL     1       3.647   4.587  17.847  0.00  0.00    +0.000 N 
ATOM     22  C   UNL     1       2.812   4.020  18.791  0.00  0.00    +0.000 A 
ATOM     23  N   UNL     1       2.696   2.678  18.767  0.00  0.00    +0.000 NA
ATOM     24  C   UNL     1       1.883   2.122  19.696  0.00  0.00    +0.000 A 
ATOM     25  C   UNL     1       1.205   2.850  20.661  0.00  0.00    +0.000 A 
ATOM     26  C   UNL     1       1.348   4.235  20.663  0.00  0.00    +0.000 A 
ATOM     27  C   UNL     1       2.158   4.830  19.695  0.00  0.00    +0.000 A 
ATOM     28  C   UNL     1       2.315   6.283  19.585  0.00  0.00    +0.000 A 
ATOM     29  O   UNL     1       1.775   6.997  20.429  0.00  0.00    +0.000 OA
ATOM     30  H   UNL     1       4.132   3.944  17.233  0.00  0.00    +0.000 HD
ENDBRANCH  17  18
ENDBRANCH  16  17
ENDBRANCH   1  16
TORSDOF 6
ENDMDL
MODEL 9
REMARK VINA RESULT:      -6.9      1.044      1.344
REMARK  Name = 
REMARK  7 active torsions:
REMARK  status: ('A' for Active; 'I' for Inactive)
REMARK    1  A    between atoms: C_1  and  O_2
REMARK    2  A    between atoms: O_2  and  C_3
REMARK    3  A    between atoms: C_6  and  N_7
REMARK    4  A    between atoms: N_10  and  C_11
REMARK    5  A    between atoms: C_11  and  C_12
REMARK    6  A    between atoms: C_12  and  C_13
REMARK    7  A    between atoms: C_13  and  N_14
REMARK                            x       y       z     vdW  Elec       q    Type
REMARK                         _______ _______ _______ _____ _____    ______ ____
ROOT
ATOM      1  C   UNL     1       1.345   9.970  18.350  0.00  0.00    +0.000 C 
ENDROOT
BRANCH   1   5
ATOM      2  N   UNL     1      -0.513  12.312  20.330  0.00  0.00    +0.000 N 
ATOM      3  C   UNL     1       0.735  11.697  20.804  0.00  0.00    +0.000 C 
ATOM      4  C   UNL     1       0.657  10.161  20.710  0.00  0.00    +0.000 C 
ATOM      5  N   UNL     1       0.314   9.658  19.355  0.00  0.00    +0.000 NA
ATOM      6  C   UNL     1      -0.989  10.266  18.982  0.00  0.00    +0.000 C 
ATOM      7  C   UNL     1      -1.045  11.815  19.048  0.00  0.00    +0.000 C 
BRANCH   2  11
ATOM      8  C   UNL     1      -2.976  14.644  22.836  0.00  0.00    +0.000 A 
ATOM      9  C   UNL     1      -2.625  13.347  23.196  0.00  0.00    +0.000 A 
ATOM     10  C   UNL     1      -1.790  12.586  22.370  0.00  0.00    +0.000 A 
ATOM     11  C   UNL     1      -1.303  13.087  21.154  0.00  0.00    +0.000 A 
ATOM     12  C   UNL     1      -1.685  14.391  20.809  0.00  0.00    +0.000 A 
ATOM     13  C   UNL     1      -2.511  15.162  21.632  0.00  0.00    +0.000 A 
BRANCH   8  15
ATOM     14  C   UNL     1      -3.806  16.716  23.589  0.00  0.00    +0.000 C 
ATOM     15  O   UNL     1      -3.804  15.298  23.705  0.00  0.00    +0.000 OA
ENDBRANCH   8  15
ENDBRANCH   2  11
ENDBRANCH   1   5
BRANCH   1  16
ATOM     16  C   UNL     1       1.896   8.742  17.614  0.00  0.00    +0.000 C 
BRANCH  16  17
ATOM     17  C   UNL     1       3.149   8.198  18.296  0.00  0.00    +0.000 C 
BRANCH  17  18
ATOM     18  N   UNL     1       3.132   6.734  18.429  0.00  0.00    +0.000 N 
ATOM     19  C   UNL     1       3.841   5.909  17.554  0.00  0.00    +0.000 A 
ATOM     20  S   UNL     1       4.933   6.391  16.377  0.00  0.00    +0.000 S 
ATOM     21  N   UNL     1       3.613   4.570  17.665  0.00  0.00    +0.000 N 
ATOM     22  C   UNL     1       2.761   3.993  18.589  0.00  0.00    +0.000 A 
ATOM     23  N   UNL     1       2.593   2.660  18.505  0.00  0.00    +0.000 NA
ATOM     24  C   UNL     1       1.764   2.094  19.413  0.00  0.00    +0.000 A 
ATOM     25  C   UNL     1       1.120   2.803  20.415  0.00  0.00    +0.000 A 
ATOM     26  C   UNL     1       1.317   4.180  20.479  0.00  0.00    +0.000 A 
ATOM     27  C   UNL     1       2.144   4.787  19.533  0.00  0.00    +0.000 A 
ATOM     28  C   UNL     1       2.358   6.236  19.488  0.00  0.00    +0.000 A 
ATOM     29  O   UNL     1       1.851   6.931  20.367  0.00  0.00    +0.000 OA
ATOM     30  H   UNL     1       4.069   3.938  17.019  0.00  0.00    +0.000 HD
ENDBRANCH  17  18
ENDBRANCH  16  17
ENDBRANCH   1  16
TORSDOF 6
ENDMDL
