MODEL 1
REMARK VINA RESULT:      -8.7      0.000      0.000
REMARK  Name = 
REMARK  6 active torsions:
REMARK  status: ('A' for Active; 'I' for Inactive)
REMARK    1  A    between atoms: C_1  and  O_2
REMARK    2  A    between atoms: O_2  and  C_3
REMARK    3  A    between atoms: C_3  and  C_5
REMARK    4  A    between atoms: C_10  and  N_11
REMARK    5  A    between atoms: C_12  and  C_14
REMARK    6  A    between atoms: C_21  and  N_22
REMARK                            x       y       z     vdW  Elec       q    Type
REMARK                         _______ _______ _______ _____ _____    ______ ____
ROOT
ATOM      1  C   UNL     1       2.656   5.055  19.326  0.00  0.00    +0.000 C 
ATOM      2  C   UNL     1       1.877   4.484  18.121  0.00  0.00    +0.000 C 
ATOM      3  C   UNL     1       2.781   3.570  17.287  0.00  0.00    +0.000 C 
ATOM      4  C   UNL     1       3.266   2.395  18.144  0.00  0.00    +0.000 C 
ATOM      5  C   UNL     1       4.038   2.923  19.361  0.00  0.00    +0.000 C 
ATOM      6  C   UNL     1       3.124   3.847  20.184  0.00  0.00    +0.000 C 
ATOM      7  C   UNL     1       5.261   3.718  18.874  0.00  0.00    +0.000 C 
ATOM      8  C   UNL     1       4.824   4.923  17.996  0.00  0.00    +0.000 C 
ATOM      9  C   UNL     1       3.989   4.381  16.800  0.00  0.00    +0.000 C 
ATOM     10  C   UNL     1       3.912   5.822  18.860  0.00  0.00    +0.000 C 
ENDROOT
BRANCH   8  11
ATOM     11  N   UNL     1       5.953   5.711  17.495  0.00  0.00    +0.000 N 
ATOM     12  C   UNL     1       6.701   5.540  16.372  0.00  0.00    +0.000 A 
ATOM     13  N   UNL     1       7.602   6.492  16.290  0.00  0.00    +0.000 NA
ATOM     14  C   UNL     1       7.374   7.233  17.416  0.00  0.00    +0.000 A 
ATOM     15 CL   UNL     1       8.237   8.628  17.831  0.00  0.00    +0.000 Cl
ATOM     16  N   UNL     1       6.386   6.780  18.195  0.00  0.00    +0.000 NA
ENDBRANCH   8  11
BRANCH   1  18
ATOM     17  N   UNL     1       2.078   7.340  20.033  0.00  0.00    +0.000 N 
ATOM     18  C   UNL     1       1.749   5.990  20.132  0.00  0.00    +0.000 C 
ATOM     19  O   UNL     1       0.803   5.528  20.763  0.00  0.00    +0.000 OA
ATOM     20  H   UNL     1       2.785   7.617  19.355  0.00  0.00    +0.000 HD
BRANCH  17  26
ATOM     21  C   UNL     1       0.785   9.454  19.928  0.00  0.00    +0.000 A 
ATOM     22  C   UNL     1       0.065  10.449  20.622  0.00  0.00    +0.000 A 
ATOM     23  C   UNL     1      -0.025  10.445  22.013  0.00  0.00    +0.000 A 
ATOM     24  C   UNL     1       0.631   9.462  22.733  0.00  0.00    +0.000 A 
ATOM     25  C   UNL     1       1.348   8.474  22.068  0.00  0.00    +0.000 A 
ATOM     26  C   UNL     1       1.409   8.419  20.667  0.00  0.00    +0.000 A 
BRANCH  21  27
ATOM     27  C   UNL     1       0.770   9.612  18.436  0.00  0.00    +0.000 C 
ATOM     28  O   UNL     1       1.528   9.003  17.701  0.00  0.00    +0.000 OA
BRANCH  27  30
ATOM     29  C   UNL     1      -1.318   9.839  17.437  0.00  0.00    +0.000 C 
ATOM     30  O   UNL     1      -0.175  10.491  18.009  0.00  0.00    +0.000 OA
ENDBRANCH  27  30
ENDBRANCH  21  27
ENDBRANCH  17  26
ENDBRANCH   1  18
TORSDOF 5
ENDMDL
MODEL 2
REMARK VINA RESULT:      -8.2      2.052      3.090
REMARK  Name = 
REMARK  6 active torsions:
REMARK  status: ('A' for Active; 'I' for Inactive)
REMARK    1  A    between atoms: C_1  and  O_2
REMARK    2  A    between atoms: O_2  and  C_3
REMARK    3  A    between atoms: C_3  and  C_5
REMARK    4  A    between atoms: C_10  and  N_11
REMARK    5  A    between atoms: C_12  and  C_14
REMARK    6  A    between atoms: C_21  and  N_22
REMARK                            x       y       z     vdW  Elec       q    Type
REMARK                         _______ _______ _______ _____ _____    ______ ____
ROOT
ATOM      1  C   UNL     1       2.619   6.594  18.364  0.00  0.00    +0.000 C 
ATOM      2  C   UNL     1       1.571   5.579  17.858  0.00  0.00    +0.000 C 
ATOM      3  C   UNL     1       2.113   4.150  17.975  0.00  0.00    +0.000 C 
ATOM      4  C   UNL     1       2.421   3.829  19.442  0.00  0.00    +0.000 C 
ATOM      5  C   UNL     1       3.454   4.825  19.986  0.00  0.00    +0.000 C 
ATOM      6  C   UNL     1       2.903   6.256  19.854  0.00  0.00    +0.000 C 
ATOM      7  C   UNL     1       4.751   4.700  19.170  0.00  0.00    +0.000 C 
ATOM      8  C   UNL     1       4.493   5.015  17.670  0.00  0.00    +0.000 C 
ATOM      9  C   UNL     1       3.399   4.041  17.145  0.00  0.00    +0.000 C 
ATOM     10  C   UNL     1       3.944   6.457  17.584  0.00  0.00    +0.000 C 
ENDROOT
BRANCH   8  11
ATOM     11  N   UNL     1       5.696   4.901  16.842  0.00  0.00    +0.000 N 
ATOM     12  C   UNL     1       6.987   4.683  17.211  0.00  0.00    +0.000 A 
ATOM     13  N   UNL     1       7.749   4.626  16.143  0.00  0.00    +0.000 NA
ATOM     14  C   UNL     1       6.868   4.831  15.119  0.00  0.00    +0.000 A 
ATOM     15 CL   UNL     1       7.292   4.837  13.482  0.00  0.00    +0.000 Cl
ATOM     16  N   UNL     1       5.601   5.024  15.501  0.00  0.00    +0.000 NA
ENDBRANCH   8  11
BRANCH   1  18
ATOM     17  N   UNL     1       1.133   8.381  19.171  0.00  0.00    +0.000 N 
ATOM     18  C   UNL     1       2.075   8.018  18.212  0.00  0.00    +0.000 C 
ATOM     19  O   UNL     1       2.505   8.743  17.319  0.00  0.00    +0.000 OA
ATOM     20  H   UNL     1       0.973   7.752  19.955  0.00  0.00    +0.000 HD
BRANCH  17  26
ATOM     21  C   UNL     1       0.412  10.356  20.488  0.00  0.00    +0.000 A 
ATOM     22  C   UNL     1      -0.186  11.633  20.495  0.00  0.00    +0.000 A 
ATOM     23  C   UNL     1      -0.737  12.184  19.339  0.00  0.00    +0.000 A 
ATOM     24  C   UNL     1      -0.725  11.452  18.165  0.00  0.00    +0.000 A 
ATOM     25  C   UNL     1      -0.141  10.190  18.138  0.00  0.00    +0.000 A 
ATOM     26  C   UNL     1       0.472   9.633  19.271  0.00  0.00    +0.000 A 
BRANCH  21  27
ATOM     27  C   UNL     1       0.957   9.926  21.818  0.00  0.00    +0.000 C 
ATOM     28  O   UNL     1       1.864   9.117  21.929  0.00  0.00    +0.000 OA
BRANCH  27  30
ATOM     29  C   UNL     1      -0.784   9.789  23.355  0.00  0.00    +0.000 C 
ATOM     30  O   UNL     1       0.340  10.536  22.864  0.00  0.00    +0.000 OA
ENDBRANCH  27  30
ENDBRANCH  21  27
ENDBRANCH  17  26
ENDBRANCH   1  18
TORSDOF 5
ENDMDL
MODEL 3
REMARK VINA RESULT:      -8.1      3.404      6.952
REMARK  Name = 
REMARK  6 active torsions:
REMARK  status: ('A' for Active; 'I' for Inactive)
REMARK    1  A    between atoms: C_1  and  O_2
REMARK    2  A    between atoms: O_2  and  C_3
REMARK    3  A    between atoms: C_3  and  C_5
REMARK    4  A    between atoms: C_10  and  N_11
REMARK    5  A    between atoms: C_12  and  C_14
REMARK    6  A    between atoms: C_21  and  N_22
REMARK                            x       y       z     vdW  Elec       q    Type
REMARK                         _______ _______ _______ _____ _____    ______ ____
ROOT
ATOM      1  C   UNL     1       3.104   3.416  18.702  0.00  0.00    +0.000 C 
ATOM      2  C   UNL     1       3.769   2.856  19.977  0.00  0.00    +0.000 C 
ATOM      3  C   UNL     1       2.873   3.098  21.197  0.00  0.00    +0.000 C 
ATOM      4  C   UNL     1       1.529   2.386  21.004  0.00  0.00    +0.000 C 
ATOM      5  C   UNL     1       0.840   2.911  19.737  0.00  0.00    +0.000 C 
ATOM      6  C   UNL     1       1.753   2.670  18.522  0.00  0.00    +0.000 C 
ATOM      7  C   UNL     1       0.582   4.419  19.892  0.00  0.00    +0.000 C 
ATOM      8  C   UNL     1       1.917   5.190  20.092  0.00  0.00    +0.000 C 
ATOM      9  C   UNL     1       2.637   4.608  21.343  0.00  0.00    +0.000 C 
ATOM     10  C   UNL     1       2.800   4.922  18.853  0.00  0.00    +0.000 C 
ENDROOT
BRANCH   8  11
ATOM     11  N   UNL     1       1.730   6.633  20.255  0.00  0.00    +0.000 N 
ATOM     12  C   UNL     1       2.093   7.655  19.434  0.00  0.00    +0.000 A 
ATOM     13  N   UNL     1       1.709   8.798  19.952  0.00  0.00    +0.000 NA
ATOM     14  C   UNL     1       1.113   8.425  21.124  0.00  0.00    +0.000 A 
ATOM     15 CL   UNL     1       0.397   9.501  22.216  0.00  0.00    +0.000 Cl
ATOM     16  N   UNL     1       1.119   7.109  21.361  0.00  0.00    +0.000 NA
ENDBRANCH   8  11
BRANCH   1  18
ATOM     17  N   UNL     1       4.457   4.363  16.877  0.00  0.00    +0.000 N 
ATOM     18  C   UNL     1       4.025   3.194  17.498  0.00  0.00    +0.000 C 
ATOM     19  O   UNL     1       4.350   2.052  17.181  0.00  0.00    +0.000 OA
ATOM     20  H   UNL     1       4.249   5.253  17.325  0.00  0.00    +0.000 HD
BRANCH  17  26
ATOM     21  C   UNL     1       6.552   5.139  15.799  0.00  0.00    +0.000 A 
ATOM     22  C   UNL     1       7.392   5.114  14.667  0.00  0.00    +0.000 A 
ATOM     23  C   UNL     1       7.020   4.449  13.500  0.00  0.00    +0.000 A 
ATOM     24  C   UNL     1       5.787   3.825  13.437  0.00  0.00    +0.000 A 
ATOM     25  C   UNL     1       4.943   3.840  14.543  0.00  0.00    +0.000 A 
ATOM     26  C   UNL     1       5.314   4.452  15.750  0.00  0.00    +0.000 A 
BRANCH  21  27
ATOM     27  C   UNL     1       7.115   5.896  16.966  0.00  0.00    +0.000 C 
ATOM     28  O   UNL     1       7.677   6.972  16.845  0.00  0.00    +0.000 OA
BRANCH  27  30
ATOM     29  C   UNL     1       7.761   5.771  19.197  0.00  0.00    +0.000 C 
ATOM     30  O   UNL     1       6.923   5.258  18.151  0.00  0.00    +0.000 OA
ENDBRANCH  27  30
ENDBRANCH  21  27
ENDBRANCH  17  26
ENDBRANCH   1  18
TORSDOF 5
ENDMDL
MODEL 4
REMARK VINA RESULT:      -7.8      3.235      6.857
REMARK  Name = 
REMARK  6 active torsions:
REMARK  status: ('A' for Active; 'I' for Inactive)
REMARK    1  A    between atoms: C_1  and  O_2
REMARK    2  A    between atoms: O_2  and  C_3
REMARK    3  A    between atoms: C_3  and  C_5
REMARK    4  A    between atoms: C_10  and  N_11
REMARK    5  A    between atoms: C_12  and  C_14
REMARK    6  A    between atoms: C_21  and  N_22
REMARK                            x       y       z     vdW  Elec       q    Type
REMARK                         _______ _______ _______ _____ _____    ______ ____
ROOT
ATOM      1  C   UNL     1       3.103   3.453  18.747  0.00  0.00    +0.000 C 
ATOM      2  C   UNL     1       3.790   2.972  20.042  0.00  0.00    +0.000 C 
ATOM      3  C   UNL     1       2.901   3.260  21.258  0.00  0.00    +0.000 C 
ATOM      4  C   UNL     1       1.569   2.515  21.116  0.00  0.00    +0.000 C 
ATOM      5  C   UNL     1       0.858   2.960  19.831  0.00  0.00    +0.000 C 
ATOM      6  C   UNL     1       1.764   2.674  18.621  0.00  0.00    +0.000 C 
ATOM      7  C   UNL     1       0.574   4.470  19.910  0.00  0.00    +0.000 C 
ATOM      8  C   UNL     1       1.896   5.274  20.057  0.00  0.00    +0.000 C 
ATOM      9  C   UNL     1       2.638   4.771  21.327  0.00  0.00    +0.000 C 
ATOM     10  C   UNL     1       2.771   4.959  18.823  0.00  0.00    +0.000 C 
ENDROOT
BRANCH   8  11
ATOM     11  N   UNL     1       1.683   6.720  20.147  0.00  0.00    +0.000 N 
ATOM     12  C   UNL     1       1.291   7.476  21.208  0.00  0.00    +0.000 A 
ATOM     13  N   UNL     1       1.250   8.741  20.861  0.00  0.00    +0.000 NA
ATOM     14  C   UNL     1       1.620   8.715  19.545  0.00  0.00    +0.000 A 
ATOM     15 CL   UNL     1       1.770  10.088  18.568  0.00  0.00    +0.000 Cl
ATOM     16  N   UNL     1       1.876   7.495  19.059  0.00  0.00    +0.000 NA
ENDBRANCH   8  11
BRANCH   1  18
ATOM     17  N   UNL     1       4.409   4.328  16.854  0.00  0.00    +0.000 N 
ATOM     18  C   UNL     1       4.016   3.185  17.547  0.00  0.00    +0.000 C 
ATOM     19  O   UNL     1       4.366   2.036  17.291  0.00  0.00    +0.000 OA
ATOM     20  H   UNL     1       4.183   5.237  17.253  0.00  0.00    +0.000 HD
BRANCH  17  26
ATOM     21  C   UNL     1       6.554   4.928  15.762  0.00  0.00    +0.000 A 
ATOM     22  C   UNL     1       7.367   4.863  14.612  0.00  0.00    +0.000 A 
ATOM     23  C   UNL     1       6.908   4.287  13.429  0.00  0.00    +0.000 A 
ATOM     24  C   UNL     1       5.617   3.795  13.369  0.00  0.00    +0.000 A 
ATOM     25  C   UNL     1       4.798   3.852  14.491  0.00  0.00    +0.000 A 
ATOM     26  C   UNL     1       5.251   4.374  15.713  0.00  0.00    +0.000 A 
BRANCH  21  27
ATOM     27  C   UNL     1       7.213   5.575  16.945  0.00  0.00    +0.000 C 
ATOM     28  O   UNL     1       7.232   5.063  18.051  0.00  0.00    +0.000 OA
BRANCH  27  30
ATOM     29  C   UNL     1       7.402   7.811  17.558  0.00  0.00    +0.000 C 
ATOM     30  O   UNL     1       7.781   6.773  16.642  0.00  0.00    +0.000 OA
ENDBRANCH  27  30
ENDBRANCH  21  27
ENDBRANCH  17  26
ENDBRANCH   1  18
TORSDOF 5
ENDMDL
MODEL 5
REMARK VINA RESULT:      -7.8      1.228      1.408
REMARK  Name = 
REMARK  6 active torsions:
REMARK  status: ('A' for Active; 'I' for Inactive)
REMARK    1  A    between atoms: C_1  and  O_2
REMARK    2  A    between atoms: O_2  and  C_3
REMARK    3  A    between atoms: C_3  and  C_5
REMARK    4  A    between atoms: C_10  and  N_11
REMARK    5  A    between atoms: C_12  and  C_14
REMARK    6  A    between atoms: C_21  and  N_22
REMARK                            x       y       z     vdW  Elec       q    Type
REMARK                         _______ _______ _______ _____ _____    ______ ____
ROOT
ATOM      1  C   UNL     1       2.370   4.751  19.473  0.00  0.00    +0.000 C 
ATOM      2  C   UNL     1       1.445   3.918  18.559  0.00  0.00    +0.000 C 
ATOM      3  C   UNL     1       2.253   2.850  17.814  0.00  0.00    +0.000 C 
ATOM      4  C   UNL     1       2.914   1.901  18.820  0.00  0.00    +0.000 C 
ATOM      5  C   UNL     1       3.836   2.695  19.755  0.00  0.00    +0.000 C 
ATOM      6  C   UNL     1       3.015   3.769  20.490  0.00  0.00    +0.000 C 
ATOM      7  C   UNL     1       4.935   3.374  18.921  0.00  0.00    +0.000 C 
ATOM      8  C   UNL     1       4.317   4.349  17.881  0.00  0.00    +0.000 C 
ATOM      9  C   UNL     1       3.337   3.545  16.978  0.00  0.00    +0.000 C 
ATOM     10  C   UNL     1       3.506   5.408  18.660  0.00  0.00    +0.000 C 
ENDROOT
BRANCH   8  11
ATOM     11  N   UNL     1       5.321   5.017  17.050  0.00  0.00    +0.000 N 
ATOM     12  C   UNL     1       6.026   6.155  17.287  0.00  0.00    +0.000 A 
ATOM     13  N   UNL     1       6.844   6.387  16.286  0.00  0.00    +0.000 NA
ATOM     14  C   UNL     1       6.592   5.349  15.432  0.00  0.00    +0.000 A 
ATOM     15 CL   UNL     1       7.389   5.112  13.958  0.00  0.00    +0.000 Cl
ATOM     16  N   UNL     1       5.652   4.495  15.850  0.00  0.00    +0.000 NA
ENDBRANCH   8  11
BRANCH   1  18
ATOM     17  N   UNL     1       2.065   7.122  20.057  0.00  0.00    +0.000 N 
ATOM     18  C   UNL     1       1.553   5.833  20.187  0.00  0.00    +0.000 C 
ATOM     19  O   UNL     1       0.520   5.528  20.777  0.00  0.00    +0.000 OA
ATOM     20  H   UNL     1       2.838   7.273  19.413  0.00  0.00    +0.000 HD
BRANCH  17  26
ATOM     21  C   UNL     1       1.007   9.350  19.794  0.00  0.00    +0.000 A 
ATOM     22  C   UNL     1       0.395  10.461  20.410  0.00  0.00    +0.000 A 
ATOM     23  C   UNL     1       0.298  10.561  21.797  0.00  0.00    +0.000 A 
ATOM     24  C   UNL     1       0.840   9.566  22.590  0.00  0.00    +0.000 A 
ATOM     25  C   UNL     1       1.450   8.463  22.002  0.00  0.00    +0.000 A 
ATOM     26  C   UNL     1       1.512   8.307  20.609  0.00  0.00    +0.000 A 
BRANCH  21  27
ATOM     27  C   UNL     1       1.017   9.407  18.295  0.00  0.00    +0.000 C 
ATOM     28  O   UNL     1       1.730   8.690  17.613  0.00  0.00    +0.000 OA
BRANCH  27  30
ATOM     29  C   UNL     1      -1.144   9.773  17.517  0.00  0.00    +0.000 C 
ATOM     30  O   UNL     1       0.150  10.327  17.796  0.00  0.00    +0.000 OA
ENDBRANCH  27  30
ENDBRANCH  21  27
ENDBRANCH  17  26
ENDBRANCH   1  18
TORSDOF 5
ENDMDL
MODEL 6
REMARK VINA RESULT:      -7.7      3.579      8.111
REMARK  Name = 
REMARK  6 active torsions:
REMARK  status: ('A' for Active; 'I' for Inactive)
REMARK    1  A    between atoms: C_1  and  O_2
REMARK    2  A    between atoms: O_2  and  C_3
REMARK    3  A    between atoms: C_3  and  C_5
REMARK    4  A    between atoms: C_10  and  N_11
REMARK    5  A    between atoms: C_12  and  C_14
REMARK    6  A    between atoms: C_21  and  N_22
REMARK                            x       y       z     vdW  Elec       q    Type
REMARK                         _______ _______ _______ _____ _____    ______ ____
ROOT
ATOM      1  C   UNL     1       1.253   9.704  18.700  0.00  0.00    +0.000 C 
ATOM      2  C   UNL     1       1.933  11.090  18.712  0.00  0.00    +0.000 C 
ATOM      3  C   UNL     1       0.989  12.142  19.306  0.00  0.00    +0.000 C 
ATOM      4  C   UNL     1       0.638  11.767  20.751  0.00  0.00    +0.000 C 
ATOM      5  C   UNL     1      -0.033  10.388  20.782  0.00  0.00    +0.000 C 
ATOM      6  C   UNL     1       0.919   9.343  20.174  0.00  0.00    +0.000 C 
ATOM      7  C   UNL     1      -1.329  10.439  19.955  0.00  0.00    +0.000 C 
ATOM      8  C   UNL     1      -1.027  10.817  18.478  0.00  0.00    +0.000 C 
ATOM      9  C   UNL     1      -0.291  12.188  18.462  0.00  0.00    +0.000 C 
ATOM     10  C   UNL     1      -0.072   9.744  17.908  0.00  0.00    +0.000 C 
ENDROOT
BRANCH   8  11
ATOM     11  N   UNL     1      -2.230  10.891  17.645  0.00  0.00    +0.000 N 
ATOM     12  C   UNL     1      -3.428  11.481  17.900  0.00  0.00    +0.000 A 
ATOM     13  N   UNL     1      -4.225  11.332  16.867  0.00  0.00    +0.000 NA
ATOM     14  C   UNL     1      -3.463  10.617  15.986  0.00  0.00    +0.000 A 
ATOM     15 CL   UNL     1      -3.974  10.148  14.444  0.00  0.00    +0.000 Cl
ATOM     16  N   UNL     1      -2.239  10.307  16.428  0.00  0.00    +0.000 NA
ENDBRANCH   8  11
BRANCH   1  18
ATOM     17  N   UNL     1       2.357   7.508  18.825  0.00  0.00    +0.000 N 
ATOM     18  C   UNL     1       2.196   8.671  18.075  0.00  0.00    +0.000 C 
ATOM     19  O   UNL     1       2.708   8.894  16.981  0.00  0.00    +0.000 OA
ATOM     20  H   UNL     1       1.760   7.370  19.638  0.00  0.00    +0.000 HD
BRANCH  17  26
ATOM     21  C   UNL     1       2.928   5.103  19.026  0.00  0.00    +0.000 A 
ATOM     22  C   UNL     1       3.715   4.021  18.580  0.00  0.00    +0.000 A 
ATOM     23  C   UNL     1       4.728   4.199  17.639  0.00  0.00    +0.000 A 
ATOM     24  C   UNL     1       4.991   5.468  17.154  0.00  0.00    +0.000 A 
ATOM     25  C   UNL     1       4.227   6.548  17.584  0.00  0.00    +0.000 A 
ATOM     26  C   UNL     1       3.164   6.391  18.486  0.00  0.00    +0.000 A 
BRANCH  21  27
ATOM     27  C   UNL     1       1.882   4.726  20.034  0.00  0.00    +0.000 C 
ATOM     28  O   UNL     1       1.388   5.533  20.804  0.00  0.00    +0.000 OA
BRANCH  27  30
ATOM     29  C   UNL     1       1.343   2.841  21.285  0.00  0.00    +0.000 C 
ATOM     30  O   UNL     1       1.550   3.409  19.983  0.00  0.00    +0.000 OA
ENDBRANCH  27  30
ENDBRANCH  21  27
ENDBRANCH  17  26
ENDBRANCH   1  18
TORSDOF 5
ENDMDL
MODEL 7
REMARK VINA RESULT:      -7.7      3.376      7.128
REMARK  Name = 
REMARK  6 active torsions:
REMARK  status: ('A' for Active; 'I' for Inactive)
REMARK    1  A    between atoms: C_1  and  O_2
REMARK    2  A    between atoms: O_2  and  C_3
REMARK    3  A    between atoms: C_3  and  C_5
REMARK    4  A    between atoms: C_10  and  N_11
REMARK    5  A    between atoms: C_12  and  C_14
REMARK    6  A    between atoms: C_21  and  N_22
REMARK                            x       y       z     vdW  Elec       q    Type
REMARK                         _______ _______ _______ _____ _____    ______ ____
ROOT
ATOM      1  C   UNL     1       3.551   3.334  17.970  0.00  0.00    +0.000 C 
ATOM      2  C   UNL     1       4.184   2.815  19.279  0.00  0.00    +0.000 C 
ATOM      3  C   UNL     1       3.239   3.056  20.462  0.00  0.00    +0.000 C 
ATOM      4  C   UNL     1       1.922   2.306  20.236  0.00  0.00    +0.000 C 
ATOM      5  C   UNL     1       1.264   2.789  18.936  0.00  0.00    +0.000 C 
ATOM      6  C   UNL     1       2.226   2.550  17.758  0.00  0.00    +0.000 C 
ATOM      7  C   UNL     1       0.964   4.292  19.052  0.00  0.00    +0.000 C 
ATOM      8  C   UNL     1       2.270   5.101  19.284  0.00  0.00    +0.000 C 
ATOM      9  C   UNL     1       2.960   4.561  20.570  0.00  0.00    +0.000 C 
ATOM     10  C   UNL     1       3.203   4.834  18.081  0.00  0.00    +0.000 C 
ENDROOT
BRANCH   8  11
ATOM     11  N   UNL     1       2.040   6.542  19.413  0.00  0.00    +0.000 N 
ATOM     12  C   UNL     1       1.668   7.268  20.501  0.00  0.00    +0.000 A 
ATOM     13  N   UNL     1       1.601   8.541  20.183  0.00  0.00    +0.000 NA
ATOM     14  C   UNL     1       1.934   8.548  18.857  0.00  0.00    +0.000 A 
ATOM     15 CL   UNL     1       2.038   9.944  17.908  0.00  0.00    +0.000 Cl
ATOM     16  N   UNL     1       2.193   7.344  18.338  0.00  0.00    +0.000 NA
ENDBRANCH   8  11
BRANCH   1  18
ATOM     17  N   UNL     1       4.663   4.211  15.958  0.00  0.00    +0.000 N 
ATOM     18  C   UNL     1       4.519   3.114  16.804  0.00  0.00    +0.000 C 
ATOM     19  O   UNL     1       5.117   2.046  16.701  0.00  0.00    +0.000 OA
ATOM     20  H   UNL     1       4.238   5.093  16.234  0.00  0.00    +0.000 HD
BRANCH  17  26
ATOM     21  C   UNL     1       6.804   4.818  14.862  0.00  0.00    +0.000 A 
ATOM     22  C   UNL     1       7.603   4.783  13.701  0.00  0.00    +0.000 A 
ATOM     23  C   UNL     1       7.122   4.257  12.503  0.00  0.00    +0.000 A 
ATOM     24  C   UNL     1       5.822   3.787  12.441  0.00  0.00    +0.000 A 
ATOM     25  C   UNL     1       5.017   3.815  13.575  0.00  0.00    +0.000 A 
ATOM     26  C   UNL     1       5.492   4.286  14.809  0.00  0.00    +0.000 A 
BRANCH  21  27
ATOM     27  C   UNL     1       7.486   5.413  16.060  0.00  0.00    +0.000 C 
ATOM     28  O   UNL     1       7.623   6.615  16.211  0.00  0.00    +0.000 OA
BRANCH  27  30
ATOM     29  C   UNL     1       7.553   4.775  18.296  0.00  0.00    +0.000 C 
ATOM     30  O   UNL     1       7.918   4.473  16.941  0.00  0.00    +0.000 OA
ENDBRANCH  27  30
ENDBRANCH  21  27
ENDBRANCH  17  26
ENDBRANCH   1  18
TORSDOF 5
ENDMDL
MODEL 8
REMARK VINA RESULT:      -7.7      2.206      2.781
REMARK  Name = 
REMARK  6 active torsions:
REMARK  status: ('A' for Active; 'I' for Inactive)
REMARK    1  A    between atoms: C_1  and  O_2
REMARK    2  A    between atoms: O_2  and  C_3
REMARK    3  A    between atoms: C_3  and  C_5
REMARK    4  A    between atoms: C_10  and  N_11
REMARK    5  A    between atoms: C_12  and  C_14
REMARK    6  A    between atoms: C_21  and  N_22
REMARK                            x       y       z     vdW  Elec       q    Type
REMARK                         _______ _______ _______ _____ _____    ______ ____
ROOT
ATOM      1  C   UNL     1       2.417   7.134  18.414  0.00  0.00    +0.000 C 
ATOM      2  C   UNL     1       1.339   6.223  17.788  0.00  0.00    +0.000 C 
ATOM      3  C   UNL     1       1.720   4.748  17.964  0.00  0.00    +0.000 C 
ATOM      4  C   UNL     1       1.826   4.412  19.455  0.00  0.00    +0.000 C 
ATOM      5  C   UNL     1       2.883   5.307  20.117  0.00  0.00    +0.000 C 
ATOM      6  C   UNL     1       2.495   6.783  19.926  0.00  0.00    +0.000 C 
ATOM      7  C   UNL     1       4.247   5.048  19.454  0.00  0.00    +0.000 C 
ATOM      8  C   UNL     1       4.194   5.373  17.935  0.00  0.00    +0.000 C 
ATOM      9  C   UNL     1       3.076   4.506  17.287  0.00  0.00    +0.000 C 
ATOM     10  C   UNL     1       3.803   6.860  17.791  0.00  0.00    +0.000 C 
ENDROOT
BRANCH   8  11
ATOM     11  N   UNL     1       5.466   5.134  17.250  0.00  0.00    +0.000 N 
ATOM     12  C   UNL     1       6.664   4.738  17.757  0.00  0.00    +0.000 A 
ATOM     13  N   UNL     1       7.540   4.620  16.786  0.00  0.00    +0.000 NA
ATOM     14  C   UNL     1       6.824   4.974  15.677  0.00  0.00    +0.000 A 
ATOM     15 CL   UNL     1       7.445   4.984  14.103  0.00  0.00    +0.000 Cl
ATOM     16  N   UNL     1       5.553   5.316  15.916  0.00  0.00    +0.000 NA
ENDBRANCH   8  11
BRANCH   1  18
ATOM     17  N   UNL     1       1.256   9.148  19.220  0.00  0.00    +0.000 N 
ATOM     18  C   UNL     1       2.038   8.603  18.204  0.00  0.00    +0.000 C 
ATOM     19  O   UNL     1       2.452   9.206  17.217  0.00  0.00    +0.000 OA
ATOM     20  H   UNL     1       1.107   8.599  20.063  0.00  0.00    +0.000 HD
BRANCH  17  26
ATOM     21  C   UNL     1      -0.445  10.865  18.660  0.00  0.00    +0.000 A 
ATOM     22  C   UNL     1      -0.914  12.183  18.837  0.00  0.00    +0.000 A 
ATOM     23  C   UNL     1      -0.202  13.113  19.591  0.00  0.00    +0.000 A 
ATOM     24  C   UNL     1       1.008  12.748  20.155  0.00  0.00    +0.000 A 
ATOM     25  C   UNL     1       1.489  11.454  19.990  0.00  0.00    +0.000 A 
ATOM     26  C   UNL     1       0.767  10.479  19.284  0.00  0.00    +0.000 A 
BRANCH  21  27
ATOM     27  C   UNL     1      -1.342  10.000  17.824  0.00  0.00    +0.000 C 
ATOM     28  O   UNL     1      -0.926   9.304  16.913  0.00  0.00    +0.000 OA
BRANCH  27  30
ATOM     29  C   UNL     1      -3.540  10.169  17.080  0.00  0.00    +0.000 C 
ATOM     30  O   UNL     1      -2.646  10.075  18.200  0.00  0.00    +0.000 OA
ENDBRANCH  27  30
ENDBRANCH  21  27
ENDBRANCH  17  26
ENDBRANCH   1  18
TORSDOF 5
ENDMDL
MODEL 9
REMARK VINA RESULT:      -7.6      3.894      8.313
REMARK  Name = 
REMARK  6 active torsions:
REMARK  status: ('A' for Active; 'I' for Inactive)
REMARK    1  A    between atoms: C_1  and  O_2
REMARK    2  A    between atoms: O_2  and  C_3
REMARK    3  A    between atoms: C_3  and  C_5
REMARK    4  A    between atoms: C_10  and  N_11
REMARK    5  A    between atoms: C_12  and  C_14
REMARK    6  A    between atoms: C_21  and  N_22
REMARK                            x       y       z     vdW  Elec       q    Type
REMARK                         _______ _______ _______ _____ _____    ______ ____
ROOT
ATOM      1  C   UNL     1       1.125   9.971  18.743  0.00  0.00    +0.000 C 
ATOM      2  C   UNL     1       1.828  11.344  18.720  0.00  0.00    +0.000 C 
ATOM      3  C   UNL     1       0.923  12.418  19.335  0.00  0.00    +0.000 C 
ATOM      4  C   UNL     1       0.612  12.063  20.793  0.00  0.00    +0.000 C 
ATOM      5  C   UNL     1      -0.081  10.695  20.859  0.00  0.00    +0.000 C 
ATOM      6  C   UNL     1       0.834   9.629  20.231  0.00  0.00    +0.000 C 
ATOM      7  C   UNL     1      -1.401  10.761  20.074  0.00  0.00    +0.000 C 
ATOM      8  C   UNL     1      -1.142  11.121  18.585  0.00  0.00    +0.000 C 
ATOM      9  C   UNL     1      -0.384  12.478  18.533  0.00  0.00    +0.000 C 
ATOM     10  C   UNL     1      -0.224  10.027  17.995  0.00  0.00    +0.000 C 
ENDROOT
BRANCH   8  11
ATOM     11  N   UNL     1      -2.370  11.208  17.791  0.00  0.00    +0.000 N 
ATOM     12  C   UNL     1      -2.577  10.920  16.478  0.00  0.00    +0.000 A 
ATOM     13  N   UNL     1      -3.840  11.114  16.176  0.00  0.00    +0.000 NA
ATOM     14  C   UNL     1      -4.381  11.543  17.356  0.00  0.00    +0.000 A 
ATOM     15 CL   UNL     1      -6.013  11.927  17.574  0.00  0.00    +0.000 Cl
ATOM     16  N   UNL     1      -3.512  11.635  18.369  0.00  0.00    +0.000 NA
ENDBRANCH   8  11
BRANCH   1  18
ATOM     17  N   UNL     1       2.214   7.767  18.865  0.00  0.00    +0.000 N 
ATOM     18  C   UNL     1       2.029   8.916  18.098  0.00  0.00    +0.000 C 
ATOM     19  O   UNL     1       2.492   9.111  16.978  0.00  0.00    +0.000 OA
ATOM     20  H   UNL     1       1.654   7.653  19.707  0.00  0.00    +0.000 HD
BRANCH  17  26
ATOM     21  C   UNL     1       2.762   5.357  19.076  0.00  0.00    +0.000 A 
ATOM     22  C   UNL     1       3.520   4.261  18.617  0.00  0.00    +0.000 A 
ATOM     23  C   UNL     1       4.503   4.414  17.642  0.00  0.00    +0.000 A 
ATOM     24  C   UNL     1       4.765   5.673  17.132  0.00  0.00    +0.000 A 
ATOM     25  C   UNL     1       4.030   6.768  17.574  0.00  0.00    +0.000 A 
ATOM     26  C   UNL     1       2.995   6.636  18.513  0.00  0.00    +0.000 A 
BRANCH  21  27
ATOM     27  C   UNL     1       1.745   5.007  20.123  0.00  0.00    +0.000 C 
ATOM     28  O   UNL     1       1.364   5.803  20.965  0.00  0.00    +0.000 OA
BRANCH  27  30
ATOM     29  C   UNL     1       1.337   3.026  21.271  0.00  0.00    +0.000 C 
ATOM     30  O   UNL     1       1.301   3.727  20.019  0.00  0.00    +0.000 OA
ENDBRANCH  27  30
ENDBRANCH  21  27
ENDBRANCH  17  26
ENDBRANCH   1  18
TORSDOF 5
ENDMDL
