MODEL 1
REMARK VINA RESULT:      -8.3      0.000      0.000
REMARK  Name = 
REMARK  6 active torsions:
REMARK  status: ('A' for Active; 'I' for Inactive)
REMARK    1  A    between atoms: C_1  and  O_2
REMARK    2  A    between atoms: O_2  and  C_3
REMARK    3  A    between atoms: C_6  and  C_7
REMARK    4  A    between atoms: N_8  and  N_9
REMARK    5  A    between atoms: C_10  and  C_12
REMARK    6  A    between atoms: C_14  and  C_15
REMARK                            x       y       z     vdW  Elec       q    Type
REMARK                         _______ _______ _______ _____ _____    ______ ____
ROOT
ATOM      1  C   UNL     1       1.378   8.531  20.196  0.00  0.00    +0.000 A 
ATOM      2  C   UNL     1       2.025   8.152  18.985  0.00  0.00    +0.000 A 
ATOM      3  C   UNL     1       2.503   6.869  19.177  0.00  0.00    +0.000 A 
ATOM      4  N   UNL     1       2.141   6.570  20.468  0.00  0.00    +0.000 N 
ATOM      5  N   UNL     1       1.447   7.536  21.103  0.00  0.00    +0.000 NA
ATOM      6  H   UNL     1       2.364   5.726  20.983  0.00  0.00    +0.000 HD
ENDROOT
BRANCH   3   7
ATOM      7  C   UNL     1       3.298   5.972  18.332  0.00  0.00    +0.000 A 
ATOM      8  C   UNL     1       2.828   4.694  18.013  0.00  0.00    +0.000 A 
ATOM      9  C   UNL     1       3.518   3.881  17.104  0.00  0.00    +0.000 A 
ATOM     10  C   UNL     1       4.705   4.324  16.499  0.00  0.00    +0.000 A 
ATOM     11  C   UNL     1       5.368   3.556  15.526  0.00  0.00    +0.000 A 
ATOM     12  C   UNL     1       6.549   4.012  14.939  0.00  0.00    +0.000 A 
ATOM     13  C   UNL     1       7.100   5.224  15.343  0.00  0.00    +0.000 A 
ATOM     14  C   UNL     1       6.450   5.999  16.304  0.00  0.00    +0.000 A 
ATOM     15  C   UNL     1       5.234   5.578  16.872  0.00  0.00    +0.000 A 
ATOM     16  C   UNL     1       4.525   6.384  17.784  0.00  0.00    +0.000 A 
ENDBRANCH   3   7
BRANCH   1  18
ATOM     17  N   UNL     1       0.515  10.060  21.829  0.00  0.00    +0.000 N 
ATOM     18  C   UNL     1       0.721   9.821  20.474  0.00  0.00    +0.000 C 
ATOM     19  O   UNL     1       0.401  10.587  19.567  0.00  0.00    +0.000 OA
ATOM     20  H   UNL     1       0.828   9.353  22.488  0.00  0.00    +0.000 HD
BRANCH  17  22
ATOM     21  C   UNL     1      -1.226  11.124  22.836  0.00  0.00    +0.000 C 
ATOM     22  N   UNL     1      -0.079  11.219  22.240  0.00  0.00    +0.000 NA
BRANCH  21  26
ATOM     23  C   UNL     1      -3.275  14.629  24.229  0.00  0.00    +0.000 A 
ATOM     24  C   UNL     1      -3.937  13.404  24.157  0.00  0.00    +0.000 A 
ATOM     25  C   UNL     1      -3.270  12.260  23.714  0.00  0.00    +0.000 A 
ATOM     26  C   UNL     1      -1.930  12.338  23.319  0.00  0.00    +0.000 A 
ATOM     27  C   UNL     1      -1.266  13.566  23.372  0.00  0.00    +0.000 A 
ATOM     28  C   UNL     1      -1.938  14.712  23.827  0.00  0.00    +0.000 A 
BRANCH  23  30
ATOM     29  C   UNL     1      -5.068  16.112  23.775  0.00  0.00    +0.000 C 
ATOM     30  O   UNL     1      -4.045  15.675  24.660  0.00  0.00    +0.000 OA
ENDBRANCH  23  30
ENDBRANCH  21  26
ENDBRANCH  17  22
ENDBRANCH   1  18
TORSDOF 5
ENDMDL
MODEL 2
REMARK VINA RESULT:      -8.0      2.161      3.835
REMARK  Name = 
REMARK  6 active torsions:
REMARK  status: ('A' for Active; 'I' for Inactive)
REMARK    1  A    between atoms: C_1  and  O_2
REMARK    2  A    between atoms: O_2  and  C_3
REMARK    3  A    between atoms: C_6  and  C_7
REMARK    4  A    between atoms: N_8  and  N_9
REMARK    5  A    between atoms: C_10  and  C_12
REMARK    6  A    between atoms: C_14  and  C_15
REMARK                            x       y       z     vdW  Elec       q    Type
REMARK                         _______ _______ _______ _____ _____    ______ ____
ROOT
ATOM      1  C   UNL     1       3.176   5.420  19.258  0.00  0.00    +0.000 A 
ATOM      2  C   UNL     1       3.508   5.835  17.936  0.00  0.00    +0.000 A 
ATOM      3  C   UNL     1       4.468   4.955  17.476  0.00  0.00    +0.000 A 
ATOM      4  N   UNL     1       4.668   4.098  18.530  0.00  0.00    +0.000 N 
ATOM      5  N   UNL     1       3.895   4.335  19.610  0.00  0.00    +0.000 NA
ATOM      6  H   UNL     1       5.341   3.342  18.582  0.00  0.00    +0.000 HD
ENDROOT
BRANCH   3   7
ATOM      7  C   UNL     1       5.239   4.895  16.229  0.00  0.00    +0.000 A 
ATOM      8  C   UNL     1       6.536   5.415  16.168  0.00  0.00    +0.000 A 
ATOM      9  C   UNL     1       7.325   5.247  15.022  0.00  0.00    +0.000 A 
ATOM     10  C   UNL     1       6.830   4.560  13.903  0.00  0.00    +0.000 A 
ATOM     11  C   UNL     1       7.634   4.312  12.776  0.00  0.00    +0.000 A 
ATOM     12  C   UNL     1       7.122   3.632  11.670  0.00  0.00    +0.000 A 
ATOM     13  C   UNL     1       5.793   3.222  11.663  0.00  0.00    +0.000 A 
ATOM     14  C   UNL     1       4.985   3.457  12.777  0.00  0.00    +0.000 A 
ATOM     15  C   UNL     1       5.496   4.099  13.918  0.00  0.00    +0.000 A 
ATOM     16  C   UNL     1       4.719   4.273  15.080  0.00  0.00    +0.000 A 
ENDBRANCH   3   7
BRANCH   1  18
ATOM     17  N   UNL     1       2.272   7.449  20.160  0.00  0.00    +0.000 N 
ATOM     18  C   UNL     1       2.202   6.059  20.161  0.00  0.00    +0.000 C 
ATOM     19  O   UNL     1       1.416   5.394  20.832  0.00  0.00    +0.000 OA
ATOM     20  H   UNL     1       2.961   7.889  19.558  0.00  0.00    +0.000 HD
BRANCH  17  22
ATOM     21  C   UNL     1       0.920   9.259  20.435  0.00  0.00    +0.000 C 
ATOM     22  N   UNL     1       1.426   8.180  20.945  0.00  0.00    +0.000 NA
BRANCH  21  26
ATOM     23  C   UNL     1      -1.786  11.686  22.717  0.00  0.00    +0.000 A 
ATOM     24  C   UNL     1      -1.185  10.567  23.290  0.00  0.00    +0.000 A 
ATOM     25  C   UNL     1      -0.296   9.780  22.553  0.00  0.00    +0.000 A 
ATOM     26  C   UNL     1      -0.014  10.102  21.221  0.00  0.00    +0.000 A 
ATOM     27  C   UNL     1      -0.626  11.213  20.635  0.00  0.00    +0.000 A 
ATOM     28  C   UNL     1      -1.513  12.006  21.383  0.00  0.00    +0.000 A 
BRANCH  23  30
ATOM     29  C   UNL     1      -3.705  13.066  22.898  0.00  0.00    +0.000 C 
ATOM     30  O   UNL     1      -2.650  12.359  23.537  0.00  0.00    +0.000 OA
ENDBRANCH  23  30
ENDBRANCH  21  26
ENDBRANCH  17  22
ENDBRANCH   1  18
TORSDOF 5
ENDMDL
MODEL 3
REMARK VINA RESULT:      -8.0      0.991      1.130
REMARK  Name = 
REMARK  6 active torsions:
REMARK  status: ('A' for Active; 'I' for Inactive)
REMARK    1  A    between atoms: C_1  and  O_2
REMARK    2  A    between atoms: O_2  and  C_3
REMARK    3  A    between atoms: C_6  and  C_7
REMARK    4  A    between atoms: N_8  and  N_9
REMARK    5  A    between atoms: C_10  and  C_12
REMARK    6  A    between atoms: C_14  and  C_15
REMARK                            x       y       z     vdW  Elec       q    Type
REMARK                         _______ _______ _______ _____ _____    ______ ____
ROOT
ATOM      1  C   UNL     1       0.916   9.210  20.455  0.00  0.00    +0.000 A 
ATOM      2  C   UNL     1       1.524   8.690  19.276  0.00  0.00    +0.000 A 
ATOM      3  C   UNL     1       2.126   7.499  19.636  0.00  0.00    +0.000 A 
ATOM      4  N   UNL     1       1.868   7.389  20.981  0.00  0.00    +0.000 N 
ATOM      5  N   UNL     1       1.127   8.388  21.501  0.00  0.00    +0.000 NA
ATOM      6  H   UNL     1       2.195   6.662  21.606  0.00  0.00    +0.000 HD
ENDROOT
BRANCH   3   7
ATOM      7  C   UNL     1       2.949   6.541  18.890  0.00  0.00    +0.000 A 
ATOM      8  C   UNL     1       2.949   5.185  19.234  0.00  0.00    +0.000 A 
ATOM      9  C   UNL     1       3.630   4.245  18.448  0.00  0.00    +0.000 A 
ATOM     10  C   UNL     1       4.338   4.642  17.303  0.00  0.00    +0.000 A 
ATOM     11  C   UNL     1       4.960   3.705  16.460  0.00  0.00    +0.000 A 
ATOM     12  C   UNL     1       5.664   4.119  15.328  0.00  0.00    +0.000 A 
ATOM     13  C   UNL     1       5.784   5.477  15.045  0.00  0.00    +0.000 A 
ATOM     14  C   UNL     1       5.167   6.417  15.872  0.00  0.00    +0.000 A 
ATOM     15  C   UNL     1       4.415   6.016  16.990  0.00  0.00    +0.000 A 
ATOM     16  C   UNL     1       3.720   6.947  17.787  0.00  0.00    +0.000 A 
ENDBRANCH   3   7
BRANCH   1  18
ATOM     17  N   UNL     1      -0.560  10.583  21.754  0.00  0.00    +0.000 N 
ATOM     18  C   UNL     1       0.162  10.472  20.569  0.00  0.00    +0.000 C 
ATOM     19  O   UNL     1       0.194  11.322  19.682  0.00  0.00    +0.000 OA
ATOM     20  H   UNL     1      -0.504   9.816  22.417  0.00  0.00    +0.000 HD
BRANCH  17  22
ATOM     21  C   UNL     1      -1.988  11.730  23.103  0.00  0.00    +0.000 C 
ATOM     22  N   UNL     1      -1.304  11.702  22.004  0.00  0.00    +0.000 NA
BRANCH  21  26
ATOM     23  C   UNL     1      -4.385  15.150  24.094  0.00  0.00    +0.000 A 
ATOM     24  C   UNL     1      -4.972  14.009  23.549  0.00  0.00    +0.000 A 
ATOM     25  C   UNL     1      -4.197  12.891  23.235  0.00  0.00    +0.000 A 
ATOM     26  C   UNL     1      -2.814  12.914  23.449  0.00  0.00    +0.000 A 
ATOM     27  C   UNL     1      -2.217  14.061  23.979  0.00  0.00    +0.000 A 
ATOM     28  C   UNL     1      -3.003  15.180  24.301  0.00  0.00    +0.000 A 
BRANCH  23  30
ATOM     29  C   UNL     1      -6.516  16.109  23.693  0.00  0.00    +0.000 C 
ATOM     30  O   UNL     1      -5.251  16.181  24.338  0.00  0.00    +0.000 OA
ENDBRANCH  23  30
ENDBRANCH  21  26
ENDBRANCH  17  22
ENDBRANCH   1  18
TORSDOF 5
ENDMDL
MODEL 4
REMARK VINA RESULT:      -7.9      0.842      1.273
REMARK  Name = 
REMARK  6 active torsions:
REMARK  status: ('A' for Active; 'I' for Inactive)
REMARK    1  A    between atoms: C_1  and  O_2
REMARK    2  A    between atoms: O_2  and  C_3
REMARK    3  A    between atoms: C_6  and  C_7
REMARK    4  A    between atoms: N_8  and  N_9
REMARK    5  A    between atoms: C_10  and  C_12
REMARK    6  A    between atoms: C_14  and  C_15
REMARK                            x       y       z     vdW  Elec       q    Type
REMARK                         _______ _______ _______ _____ _____    ______ ____
ROOT
ATOM      1  C   UNL     1       1.382   8.154  20.750  0.00  0.00    +0.000 A 
ATOM      2  C   UNL     1       2.221   7.938  19.619  0.00  0.00    +0.000 A 
ATOM      3  C   UNL     1       2.512   6.587  19.595  0.00  0.00    +0.000 A 
ATOM      4  N   UNL     1       1.864   6.089  20.699  0.00  0.00    +0.000 N 
ATOM      5  N   UNL     1       1.159   6.997  21.404  0.00  0.00    +0.000 NA
ATOM      6  H   UNL     1       1.887   5.134  21.039  0.00  0.00    +0.000 HD
ENDROOT
BRANCH   3   7
ATOM      7  C   UNL     1       3.366   5.773  18.723  0.00  0.00    +0.000 A 
ATOM      8  C   UNL     1       3.479   4.394  18.926  0.00  0.00    +0.000 A 
ATOM      9  C   UNL     1       4.188   3.591  18.022  0.00  0.00    +0.000 A 
ATOM     10  C   UNL     1       4.810   4.152  16.896  0.00  0.00    +0.000 A 
ATOM     11  C   UNL     1       5.457   3.353  15.937  0.00  0.00    +0.000 A 
ATOM     12  C   UNL     1       6.074   3.929  14.826  0.00  0.00    +0.000 A 
ATOM     13  C   UNL     1       6.081   5.313  14.678  0.00  0.00    +0.000 A 
ATOM     14  C   UNL     1       5.439   6.118  15.620  0.00  0.00    +0.000 A 
ATOM     15  C   UNL     1       4.772   5.552  16.721  0.00  0.00    +0.000 A 
ATOM     16  C   UNL     1       4.051   6.343  17.637  0.00  0.00    +0.000 A 
ENDBRANCH   3   7
BRANCH   1  18
ATOM     17  N   UNL     1       0.441   9.453  22.531  0.00  0.00    +0.000 N 
ATOM     18  C   UNL     1       0.820   9.443  21.193  0.00  0.00    +0.000 C 
ATOM     19  O   UNL     1       0.715  10.396  20.423  0.00  0.00    +0.000 OA
ATOM     20  H   UNL     1       0.582   8.605  23.071  0.00  0.00    +0.000 HD
BRANCH  17  22
ATOM     21  C   UNL     1      -1.213  11.015  22.601  0.00  0.00    +0.000 C 
ATOM     22  N   UNL     1      -0.092  10.583  23.086  0.00  0.00    +0.000 NA
BRANCH  21  26
ATOM     23  C   UNL     1      -3.068  14.535  24.211  0.00  0.00    +0.000 A 
ATOM     24  C   UNL     1      -1.754  14.577  23.748  0.00  0.00    +0.000 A 
ATOM     25  C   UNL     1      -1.151  13.436  23.215  0.00  0.00    +0.000 A 
ATOM     26  C   UNL     1      -1.859  12.230  23.156  0.00  0.00    +0.000 A 
ATOM     27  C   UNL     1      -3.170  12.177  23.634  0.00  0.00    +0.000 A 
ATOM     28  C   UNL     1      -3.776  13.330  24.162  0.00  0.00    +0.000 A 
BRANCH  23  30
ATOM     29  C   UNL     1      -2.572  16.553  25.351  0.00  0.00    +0.000 C 
ATOM     30  O   UNL     1      -3.535  15.713  24.727  0.00  0.00    +0.000 OA
ENDBRANCH  23  30
ENDBRANCH  21  26
ENDBRANCH  17  22
ENDBRANCH   1  18
TORSDOF 5
ENDMDL
MODEL 5
REMARK VINA RESULT:      -7.8      0.898      1.268
REMARK  Name = 
REMARK  6 active torsions:
REMARK  status: ('A' for Active; 'I' for Inactive)
REMARK    1  A    between atoms: C_1  and  O_2
REMARK    2  A    between atoms: O_2  and  C_3
REMARK    3  A    between atoms: C_6  and  C_7
REMARK    4  A    between atoms: N_8  and  N_9
REMARK    5  A    between atoms: C_10  and  C_12
REMARK    6  A    between atoms: C_14  and  C_15
REMARK                            x       y       z     vdW  Elec       q    Type
REMARK                         _______ _______ _______ _____ _____    ______ ____
ROOT
ATOM      1  C   UNL     1       1.048   8.990  20.273  0.00  0.00    +0.000 A 
ATOM      2  C   UNL     1       1.682   8.491  19.099  0.00  0.00    +0.000 A 
ATOM      3  C   UNL     1       2.309   7.313  19.459  0.00  0.00    +0.000 A 
ATOM      4  N   UNL     1       2.040   7.190  20.801  0.00  0.00    +0.000 N 
ATOM      5  N   UNL     1       1.269   8.168  21.318  0.00  0.00    +0.000 NA
ATOM      6  H   UNL     1       2.379   6.468  21.426  0.00  0.00    +0.000 HD
ENDROOT
BRANCH   3   7
ATOM      7  C   UNL     1       3.164   6.380  18.718  0.00  0.00    +0.000 A 
ATOM      8  C   UNL     1       3.254   5.038  19.104  0.00  0.00    +0.000 A 
ATOM      9  C   UNL     1       3.965   4.114  18.327  0.00  0.00    +0.000 A 
ATOM     10  C   UNL     1       4.613   4.512  17.147  0.00  0.00    +0.000 A 
ATOM     11  C   UNL     1       5.263   3.585  16.314  0.00  0.00    +0.000 A 
ATOM     12  C   UNL     1       5.906   4.001  15.148  0.00  0.00    +0.000 A 
ATOM     13  C   UNL     1       5.936   5.352  14.818  0.00  0.00    +0.000 A 
ATOM     14  C   UNL     1       5.292   6.283  15.634  0.00  0.00    +0.000 A 
ATOM     15  C   UNL     1       4.599   5.877  16.788  0.00  0.00    +0.000 A 
ATOM     16  C   UNL     1       3.876   6.792  17.578  0.00  0.00    +0.000 A 
ENDBRANCH   3   7
BRANCH   1  18
ATOM     17  N   UNL     1      -0.463  10.325  21.570  0.00  0.00    +0.000 N 
ATOM     18  C   UNL     1       0.261  10.231  20.386  0.00  0.00    +0.000 C 
ATOM     19  O   UNL     1       0.272  11.081  19.497  0.00  0.00    +0.000 OA
ATOM     20  H   UNL     1      -0.388   9.561  22.234  0.00  0.00    +0.000 HD
BRANCH  17  22
ATOM     21  C   UNL     1      -1.558  11.663  23.050  0.00  0.00    +0.000 C 
ATOM     22  N   UNL     1      -1.236  11.424  21.818  0.00  0.00    +0.000 NA
BRANCH  21  26
ATOM     23  C   UNL     1      -3.949  15.078  24.072  0.00  0.00    +0.000 A 
ATOM     24  C   UNL     1      -2.557  15.152  24.110  0.00  0.00    +0.000 A 
ATOM     25  C   UNL     1      -1.776  14.045  23.769  0.00  0.00    +0.000 A 
ATOM     26  C   UNL     1      -2.388  12.842  23.400  0.00  0.00    +0.000 A 
ATOM     27  C   UNL     1      -3.782  12.757  23.376  0.00  0.00    +0.000 A 
ATOM     28  C   UNL     1      -4.563  13.874  23.712  0.00  0.00    +0.000 A 
BRANCH  23  30
ATOM     29  C   UNL     1      -4.043  17.445  23.974  0.00  0.00    +0.000 C 
ATOM     30  O   UNL     1      -4.596  16.223  24.448  0.00  0.00    +0.000 OA
ENDBRANCH  23  30
ENDBRANCH  21  26
ENDBRANCH  17  22
ENDBRANCH   1  18
TORSDOF 5
ENDMDL
MODEL 6
REMARK VINA RESULT:      -7.6      1.930      2.948
REMARK  Name = 
REMARK  6 active torsions:
REMARK  status: ('A' for Active; 'I' for Inactive)
REMARK    1  A    between atoms: C_1  and  O_2
REMARK    2  A    between atoms: O_2  and  C_3
REMARK    3  A    between atoms: C_6  and  C_7
REMARK    4  A    between atoms: N_8  and  N_9
REMARK    5  A    between atoms: C_10  and  C_12
REMARK    6  A    between atoms: C_14  and  C_15
REMARK                            x       y       z     vdW  Elec       q    Type
REMARK                         _______ _______ _______ _____ _____    ______ ____
ROOT
ATOM      1  C   UNL     1       1.470   9.904  18.851  0.00  0.00    +0.000 A 
ATOM      2  C   UNL     1       1.740   8.609  19.381  0.00  0.00    +0.000 A 
ATOM      3  C   UNL     1       2.369   7.896  18.378  0.00  0.00    +0.000 A 
ATOM      4  N   UNL     1       2.418   8.777  17.324  0.00  0.00    +0.000 N 
ATOM      5  N   UNL     1       1.906   9.997  17.579  0.00  0.00    +0.000 NA
ATOM      6  H   UNL     1       2.769   8.591  16.392  0.00  0.00    +0.000 HD
ENDROOT
BRANCH   3   7
ATOM      7  C   UNL     1       2.833   6.507  18.292  0.00  0.00    +0.000 A 
ATOM      8  C   UNL     1       4.201   6.216  18.244  0.00  0.00    +0.000 A 
ATOM      9  C   UNL     1       4.656   4.891  18.293  0.00  0.00    +0.000 A 
ATOM     10  C   UNL     1       3.750   3.823  18.380  0.00  0.00    +0.000 A 
ATOM     11  C   UNL     1       4.189   2.493  18.510  0.00  0.00    +0.000 A 
ATOM     12  C   UNL     1       3.274   1.443  18.590  0.00  0.00    +0.000 A 
ATOM     13  C   UNL     1       1.910   1.706  18.507  0.00  0.00    +0.000 A 
ATOM     14  C   UNL     1       1.460   3.021  18.383  0.00  0.00    +0.000 A 
ATOM     15  C   UNL     1       2.366   4.096  18.348  0.00  0.00    +0.000 A 
ATOM     16  C   UNL     1       1.926   5.434  18.303  0.00  0.00    +0.000 A 
ENDBRANCH   3   7
BRANCH   1  18
ATOM     17  N   UNL     1       0.820  10.894  20.936  0.00  0.00    +0.000 N 
ATOM     18  C   UNL     1       0.800  11.015  19.550  0.00  0.00    +0.000 C 
ATOM     19  O   UNL     1       0.285  11.945  18.931  0.00  0.00    +0.000 OA
ATOM     20  H   UNL     1       1.281  10.082  21.334  0.00  0.00    +0.000 HD
BRANCH  17  22
ATOM     21  C   UNL     1      -0.987  11.664  22.085  0.00  0.00    +0.000 C 
ATOM     22  N   UNL     1       0.241  11.853  21.718  0.00  0.00    +0.000 NA
BRANCH  21  26
ATOM     23  C   UNL     1      -2.984  14.538  24.571  0.00  0.00    +0.000 A 
ATOM     24  C   UNL     1      -1.700  14.790  24.089  0.00  0.00    +0.000 A 
ATOM     25  C   UNL     1      -1.052  13.861  23.272  0.00  0.00    +0.000 A 
ATOM     26  C   UNL     1      -1.681  12.656  22.943  0.00  0.00    +0.000 A 
ATOM     27  C   UNL     1      -2.961  12.390  23.437  0.00  0.00    +0.000 A 
ATOM     28  C   UNL     1      -3.613  13.331  24.251  0.00  0.00    +0.000 A 
BRANCH  23  30
ATOM     29  C   UNL     1      -2.838  16.776  25.338  0.00  0.00    +0.000 C 
ATOM     30  O   UNL     1      -3.499  15.517  25.375  0.00  0.00    +0.000 OA
ENDBRANCH  23  30
ENDBRANCH  21  26
ENDBRANCH  17  22
ENDBRANCH   1  18
TORSDOF 5
ENDMDL
MODEL 7
REMARK VINA RESULT:      -7.6      1.937      3.224
REMARK  Name = 
REMARK  6 active torsions:
REMARK  status: ('A' for Active; 'I' for Inactive)
REMARK    1  A    between atoms: C_1  and  O_2
REMARK    2  A    between atoms: O_2  and  C_3
REMARK    3  A    between atoms: C_6  and  C_7
REMARK    4  A    between atoms: N_8  and  N_9
REMARK    5  A    between atoms: C_10  and  C_12
REMARK    6  A    between atoms: C_14  and  C_15
REMARK                            x       y       z     vdW  Elec       q    Type
REMARK                         _______ _______ _______ _____ _____    ______ ____
ROOT
ATOM      1  C   UNL     1       0.550  10.137  21.591  0.00  0.00    +0.000 A 
ATOM      2  C   UNL     1       0.626   9.323  20.424  0.00  0.00    +0.000 A 
ATOM      3  C   UNL     1       1.417   8.238  20.752  0.00  0.00    +0.000 A 
ATOM      4  N   UNL     1       1.778   8.471  22.057  0.00  0.00    +0.000 N 
ATOM      5  N   UNL     1       1.260   9.592  22.599  0.00  0.00    +0.000 NA
ATOM      6  H   UNL     1       2.402   7.910  22.626  0.00  0.00    +0.000 HD
ENDROOT
BRANCH   3   7
ATOM      7  C   UNL     1       1.909   7.099  19.969  0.00  0.00    +0.000 A 
ATOM      8  C   UNL     1       2.500   7.300  18.717  0.00  0.00    +0.000 A 
ATOM      9  C   UNL     1       3.088   6.234  18.021  0.00  0.00    +0.000 A 
ATOM     10  C   UNL     1       3.090   4.938  18.558  0.00  0.00    +0.000 A 
ATOM     11  C   UNL     1       3.744   3.873  17.913  0.00  0.00    +0.000 A 
ATOM     12  C   UNL     1       3.730   2.590  18.460  0.00  0.00    +0.000 A 
ATOM     13  C   UNL     1       3.034   2.348  19.640  0.00  0.00    +0.000 A 
ATOM     14  C   UNL     1       2.385   3.396  20.294  0.00  0.00    +0.000 A 
ATOM     15  C   UNL     1       2.427   4.705  19.782  0.00  0.00    +0.000 A 
ATOM     16  C   UNL     1       1.846   5.788  20.470  0.00  0.00    +0.000 A 
ENDBRANCH   3   7
BRANCH   1  18
ATOM     17  N   UNL     1      -0.832  11.553  22.945  0.00  0.00    +0.000 N 
ATOM     18  C   UNL     1      -0.178  11.412  21.725  0.00  0.00    +0.000 C 
ATOM     19  O   UNL     1      -0.181  12.248  20.823  0.00  0.00    +0.000 OA
ATOM     20  H   UNL     1      -0.752  10.796  23.616  0.00  0.00    +0.000 HD
BRANCH  17  22
ATOM     21  C   UNL     1      -2.834  12.584  23.269  0.00  0.00    +0.000 C 
ATOM     22  N   UNL     1      -1.544  12.687  23.216  0.00  0.00    +0.000 NA
BRANCH  21  26
ATOM     23  C   UNL     1      -5.264  16.013  24.141  0.00  0.00    +0.000 A 
ATOM     24  C   UNL     1      -3.965  15.923  24.636  0.00  0.00    +0.000 A 
ATOM     25  C   UNL     1      -3.168  14.813  24.346  0.00  0.00    +0.000 A 
ATOM     26  C   UNL     1      -3.677  13.769  23.566  0.00  0.00    +0.000 A 
ATOM     27  C   UNL     1      -4.985  13.845  23.081  0.00  0.00    +0.000 A 
ATOM     28  C   UNL     1      -5.779  14.967  23.368  0.00  0.00    +0.000 A 
BRANCH  23  30
ATOM     29  C   UNL     1      -6.674  17.804  23.489  0.00  0.00    +0.000 C 
ATOM     30  O   UNL     1      -5.945  17.140  24.513  0.00  0.00    +0.000 OA
ENDBRANCH  23  30
ENDBRANCH  21  26
ENDBRANCH  17  22
ENDBRANCH   1  18
TORSDOF 5
ENDMDL
MODEL 8
REMARK VINA RESULT:      -7.5      2.119      2.966
REMARK  Name = 
REMARK  6 active torsions:
REMARK  status: ('A' for Active; 'I' for Inactive)
REMARK    1  A    between atoms: C_1  and  O_2
REMARK    2  A    between atoms: O_2  and  C_3
REMARK    3  A    between atoms: C_6  and  C_7
REMARK    4  A    between atoms: N_8  and  N_9
REMARK    5  A    between atoms: C_10  and  C_12
REMARK    6  A    between atoms: C_14  and  C_15
REMARK                            x       y       z     vdW  Elec       q    Type
REMARK                         _______ _______ _______ _____ _____    ______ ____
ROOT
ATOM      1  C   UNL     1       0.970  10.255  19.530  0.00  0.00    +0.000 A 
ATOM      2  C   UNL     1       1.462   8.935  19.742  0.00  0.00    +0.000 A 
ATOM      3  C   UNL     1       1.951   8.497  18.526  0.00  0.00    +0.000 A 
ATOM      4  N   UNL     1       1.709   9.546  17.673  0.00  0.00    +0.000 N 
ATOM      5  N   UNL     1       1.139  10.625  18.245  0.00  0.00    +0.000 NA
ATOM      6  H   UNL     1       1.889   9.573  16.676  0.00  0.00    +0.000 HD
ENDROOT
BRANCH   3   7
ATOM      7  C   UNL     1       2.522   7.217  18.092  0.00  0.00    +0.000 A 
ATOM      8  C   UNL     1       3.823   7.157  17.580  0.00  0.00    +0.000 A 
ATOM      9  C   UNL     1       4.422   5.925  17.285  0.00  0.00    +0.000 A 
ATOM     10  C   UNL     1       3.729   4.721  17.486  0.00  0.00    +0.000 A 
ATOM     11  C   UNL     1       4.341   3.473  17.271  0.00  0.00    +0.000 A 
ATOM     12  C   UNL     1       3.634   2.287  17.472  0.00  0.00    +0.000 A 
ATOM     13  C   UNL     1       2.298   2.334  17.857  0.00  0.00    +0.000 A 
ATOM     14  C   UNL     1       1.679   3.566  18.078  0.00  0.00    +0.000 A 
ATOM     15  C   UNL     1       2.389   4.770  17.926  0.00  0.00    +0.000 A 
ATOM     16  C   UNL     1       1.804   6.017  18.223  0.00  0.00    +0.000 A 
ENDBRANCH   3   7
BRANCH   1  18
ATOM     17  N   UNL     1      -0.611  11.994  20.007  0.00  0.00    +0.000 N 
ATOM     18  C   UNL     1       0.342  11.130  20.537  0.00  0.00    +0.000 C 
ATOM     19  O   UNL     1       0.657  11.071  21.725  0.00  0.00    +0.000 OA
ATOM     20  H   UNL     1      -0.790  11.947  19.009  0.00  0.00    +0.000 HD
BRANCH  17  22
ATOM     21  C   UNL     1      -2.523  12.601  21.080  0.00  0.00    +0.000 C 
ATOM     22  N   UNL     1      -1.281  12.862  20.822  0.00  0.00    +0.000 NA
BRANCH  21  26
ATOM     23  C   UNL     1      -4.807  15.186  23.634  0.00  0.00    +0.000 A 
ATOM     24  C   UNL     1      -4.018  15.716  22.615  0.00  0.00    +0.000 A 
ATOM     25  C   UNL     1      -3.282  14.877  21.775  0.00  0.00    +0.000 A 
ATOM     26  C   UNL     1      -3.316  13.491  21.964  0.00  0.00    +0.000 A 
ATOM     27  C   UNL     1      -4.092  12.955  22.994  0.00  0.00    +0.000 A 
ATOM     28  C   UNL     1      -4.838  13.802  23.831  0.00  0.00    +0.000 A 
BRANCH  23  30
ATOM     29  C   UNL     1      -4.648  17.068  25.067  0.00  0.00    +0.000 C 
ATOM     30  O   UNL     1      -5.462  16.115  24.396  0.00  0.00    +0.000 OA
ENDBRANCH  23  30
ENDBRANCH  21  26
ENDBRANCH  17  22
ENDBRANCH   1  18
TORSDOF 5
ENDMDL
MODEL 9
REMARK VINA RESULT:      -7.5      1.478      2.608
REMARK  Name = 
REMARK  6 active torsions:
REMARK  status: ('A' for Active; 'I' for Inactive)
REMARK    1  A    between atoms: C_1  and  O_2
REMARK    2  A    between atoms: O_2  and  C_3
REMARK    3  A    between atoms: C_6  and  C_7
REMARK    4  A    between atoms: N_8  and  N_9
REMARK    5  A    between atoms: C_10  and  C_12
REMARK    6  A    between atoms: C_14  and  C_15
REMARK                            x       y       z     vdW  Elec       q    Type
REMARK                         _______ _______ _______ _____ _____    ______ ____
ROOT
ATOM      1  C   UNL     1       0.196   9.957  21.699  0.00  0.00    +0.000 A 
ATOM      2  C   UNL     1       0.266   8.983  20.661  0.00  0.00    +0.000 A 
ATOM      3  C   UNL     1       1.336   8.162  20.963  0.00  0.00    +0.000 A 
ATOM      4  N   UNL     1       1.845   8.692  22.123  0.00  0.00    +0.000 N 
ATOM      5  N   UNL     1       1.174   9.758  22.604  0.00  0.00    +0.000 NA
ATOM      6  H   UNL     1       2.671   8.382  22.623  0.00  0.00    +0.000 HD
ENDROOT
BRANCH   3   7
ATOM      7  C   UNL     1       1.945   7.030  20.255  0.00  0.00    +0.000 A 
ATOM      8  C   UNL     1       1.602   5.716  20.589  0.00  0.00    +0.000 A 
ATOM      9  C   UNL     1       2.080   4.635  19.834  0.00  0.00    +0.000 A 
ATOM     10  C   UNL     1       2.923   4.845  18.731  0.00  0.00    +0.000 A 
ATOM     11  C   UNL     1       3.347   3.781  17.916  0.00  0.00    +0.000 A 
ATOM     12  C   UNL     1       4.189   4.008  16.826  0.00  0.00    +0.000 A 
ATOM     13  C   UNL     1       4.644   5.296  16.560  0.00  0.00    +0.000 A 
ATOM     14  C   UNL     1       4.227   6.362  17.359  0.00  0.00    +0.000 A 
ATOM     15  C   UNL     1       3.342   6.159  18.432  0.00  0.00    +0.000 A 
ATOM     16  C   UNL     1       2.848   7.233  19.198  0.00  0.00    +0.000 A 
ENDBRANCH   3   7
BRANCH   1  18
ATOM     17  N   UNL     1      -1.382  11.144  23.059  0.00  0.00    +0.000 N 
ATOM     18  C   UNL     1      -0.781  11.055  21.807  0.00  0.00    +0.000 C 
ATOM     19  O   UNL     1      -1.014  11.803  20.859  0.00  0.00    +0.000 OA
ATOM     20  H   UNL     1      -1.104  10.473  23.767  0.00  0.00    +0.000 HD
BRANCH  17  22
ATOM     21  C   UNL     1      -1.870  13.256  23.752  0.00  0.00    +0.000 C 
ATOM     22  N   UNL     1      -2.306  12.119  23.310  0.00  0.00    +0.000 NA
BRANCH  21  26
ATOM     23  C   UNL     1      -4.597  16.466  24.575  0.00  0.00    +0.000 A 
ATOM     24  C   UNL     1      -5.009  15.362  23.832  0.00  0.00    +0.000 A 
ATOM     25  C   UNL     1      -4.127  14.311  23.571  0.00  0.00    +0.000 A 
ATOM     26  C   UNL     1      -2.811  14.367  24.041  0.00  0.00    +0.000 A 
ATOM     27  C   UNL     1      -2.386  15.479  24.772  0.00  0.00    +0.000 A 
ATOM     28  C   UNL     1      -3.280  16.530  25.039  0.00  0.00    +0.000 A 
BRANCH  23  30
ATOM     29  C   UNL     1      -5.273  18.428  25.722  0.00  0.00    +0.000 C 
ATOM     30  O   UNL     1      -5.550  17.434  24.743  0.00  0.00    +0.000 OA
ENDBRANCH  23  30
ENDBRANCH  21  26
ENDBRANCH  17  22
ENDBRANCH   1  18
TORSDOF 5
ENDMDL
