MODEL 1
REMARK VINA RESULT:      -8.5      0.000      0.000
REMARK  Name = 
REMARK  6 active torsions:
REMARK  status: ('A' for Active; 'I' for Inactive)
REMARK    1  A    between atoms: C_2  and  C_3
REMARK    2  A    between atoms: C_6  and  N_7
REMARK    3  A    between atoms: C_9  and  C_10
REMARK    4  A    between atoms: C_13  and  C_14
REMARK    5  A    between atoms: C_14  and  O_16
REMARK    6  A    between atoms: C_20  and  C_21
REMARK                            x       y       z     vdW  Elec       q    Type
REMARK                         _______ _______ _______ _____ _____    ______ ____
ROOT
ATOM      1  N   UNL     1       2.670   6.668  19.189  0.00  0.00    +0.000 N 
ATOM      2  N   UNL     1       3.182   6.662  17.924  0.00  0.00    +0.000 NA
ATOM      3  C   UNL     1       4.012   5.671  17.844  0.00  0.00    +0.000 C 
ATOM      4  C   UNL     1       4.139   4.850  19.089  0.00  0.00    +0.000 C 
ATOM      5  C   UNL     1       3.216   5.609  20.046  0.00  0.00    +0.000 C 
ENDROOT
BRANCH   1   9
ATOM      6  C   UNL     1       0.548  10.125  20.361  0.00  0.00    +0.000 A 
ATOM      7  C   UNL     1       0.945   9.945  19.036  0.00  0.00    +0.000 A 
ATOM      8  C   UNL     1       1.652   8.797  18.674  0.00  0.00    +0.000 A 
ATOM      9  C   UNL     1       1.957   7.787  19.603  0.00  0.00    +0.000 A 
ATOM     10  C   UNL     1       1.526   7.971  20.919  0.00  0.00    +0.000 A 
ATOM     11  C   UNL     1       0.843   9.136  21.303  0.00  0.00    +0.000 A 
ATOM     12 CL   UNL     1       0.408   9.299  22.970  0.00  0.00    +0.000 Cl
BRANCH   6  14
ATOM     13  N   UNL     1      -0.703  12.295  21.030  0.00  0.00    +0.000 NA
ATOM     14  C   UNL     1      -0.153  11.323  20.714  0.00  0.00    +0.000 C 
ENDBRANCH   6  14
ENDBRANCH   1   9
BRANCH   3  15
ATOM     15  C   UNL     1       4.777   5.340  16.620  0.00  0.00    +0.000 A 
ATOM     16  C   UNL     1       5.064   4.000  16.342  0.00  0.00    +0.000 A 
ATOM     17  C   UNL     1       5.782   3.659  15.194  0.00  0.00    +0.000 A 
ATOM     18  C   UNL     1       6.225   4.653  14.314  0.00  0.00    +0.000 A 
ATOM     19  C   UNL     1       5.926   5.996  14.580  0.00  0.00    +0.000 A 
ATOM     20  C   UNL     1       5.208   6.337  15.734  0.00  0.00    +0.000 A 
BRANCH  18  21
ATOM     21  C   UNL     1       6.952   4.226  13.090  0.00  0.00    +0.000 C 
ATOM     22  O   UNL     1       7.790   4.927  12.547  0.00  0.00    +0.000 OA
BRANCH  21  23
ATOM     23  O   UNL     1       6.585   3.018  12.615  0.00  0.00    +0.000 OA
ATOM     24  H   UNL     1       5.712   2.699  12.906  0.00  0.00    +0.000 HD
ENDBRANCH  21  23
ENDBRANCH  18  21
ENDBRANCH   3  15
BRANCH   5  25
ATOM     25  C   UNL     1       2.093   4.756  20.679  0.00  0.00    +0.000 C 
ATOM     26  C   UNL     1       1.207   4.007  19.681  0.00  0.00    +0.000 C 
ATOM     27  C   UNL     1       0.484   2.967  20.521  0.00  0.00    +0.000 C 
ATOM     28  C   UNL     1       1.425   2.622  21.667  0.00  0.00    +0.000 C 
ATOM     29  C   UNL     1       2.559   3.647  21.634  0.00  0.00    +0.000 C 
ENDBRANCH   5  25
TORSDOF 6
ENDMDL
MODEL 2
REMARK VINA RESULT:      -8.5      0.243      1.115
REMARK  Name = 
REMARK  6 active torsions:
REMARK  status: ('A' for Active; 'I' for Inactive)
REMARK    1  A    between atoms: C_2  and  C_3
REMARK    2  A    between atoms: C_6  and  N_7
REMARK    3  A    between atoms: C_9  and  C_10
REMARK    4  A    between atoms: C_13  and  C_14
REMARK    5  A    between atoms: C_14  and  O_16
REMARK    6  A    between atoms: C_20  and  C_21
REMARK                            x       y       z     vdW  Elec       q    Type
REMARK                         _______ _______ _______ _____ _____    ______ ____
ROOT
ATOM      1  N   UNL     1       2.664   6.690  19.206  0.00  0.00    +0.000 N 
ATOM      2  N   UNL     1       3.196   6.695  17.950  0.00  0.00    +0.000 NA
ATOM      3  C   UNL     1       4.031   5.707  17.875  0.00  0.00    +0.000 C 
ATOM      4  C   UNL     1       4.139   4.876  19.115  0.00  0.00    +0.000 C 
ATOM      5  C   UNL     1       3.199   5.625  20.063  0.00  0.00    +0.000 C 
ENDROOT
BRANCH   1   9
ATOM      6  C   UNL     1       0.514  10.131  20.372  0.00  0.00    +0.000 A 
ATOM      7  C   UNL     1       0.927   9.961  19.051  0.00  0.00    +0.000 A 
ATOM      8  C   UNL     1       1.643   8.817  18.691  0.00  0.00    +0.000 A 
ATOM      9  C   UNL     1       1.941   7.803  19.618  0.00  0.00    +0.000 A 
ATOM     10  C   UNL     1       1.494   7.979  20.929  0.00  0.00    +0.000 A 
ATOM     11  C   UNL     1       0.803   9.138  21.312  0.00  0.00    +0.000 A 
ATOM     12 CL   UNL     1       0.347   9.290  22.974  0.00  0.00    +0.000 Cl
BRANCH   6  14
ATOM     13  N   UNL     1      -0.778  12.278  21.038  0.00  0.00    +0.000 NA
ATOM     14  C   UNL     1      -0.195  11.325  20.724  0.00  0.00    +0.000 C 
ENDBRANCH   6  14
ENDBRANCH   1   9
BRANCH   3  15
ATOM     15  C   UNL     1       4.817   5.389  16.661  0.00  0.00    +0.000 A 
ATOM     16  C   UNL     1       5.174   6.427  15.795  0.00  0.00    +0.000 A 
ATOM     17  C   UNL     1       5.917   6.156  14.643  0.00  0.00    +0.000 A 
ATOM     18  C   UNL     1       6.306   4.845  14.343  0.00  0.00    +0.000 A 
ATOM     19  C   UNL     1       5.963   3.805  15.217  0.00  0.00    +0.000 A 
ATOM     20  C   UNL     1       5.216   4.078  16.369  0.00  0.00    +0.000 A 
BRANCH  18  21
ATOM     21  C   UNL     1       7.126   4.625  13.123  0.00  0.00    +0.000 C 
ATOM     22  O   UNL     1       6.941   3.684  12.370  0.00  0.00    +0.000 OA
BRANCH  21  23
ATOM     23  O   UNL     1       8.108   5.531  12.940  0.00  0.00    +0.000 OA
ATOM     24  H   UNL     1       8.974   5.168  12.683  0.00  0.00    +0.000 HD
ENDBRANCH  21  23
ENDBRANCH  18  21
ENDBRANCH   3  15
BRANCH   5  25
ATOM     25  C   UNL     1       2.067   4.764  20.670  0.00  0.00    +0.000 C 
ATOM     26  C   UNL     1       1.209   4.010  19.651  0.00  0.00    +0.000 C 
ATOM     27  C   UNL     1       0.474   2.964  20.474  0.00  0.00    +0.000 C 
ATOM     28  C   UNL     1       1.392   2.625  21.641  0.00  0.00    +0.000 C 
ATOM     29  C   UNL     1       2.518   3.657  21.634  0.00  0.00    +0.000 C 
ENDBRANCH   5  25
TORSDOF 6
ENDMDL
MODEL 3
REMARK VINA RESULT:      -8.2      1.023      1.743
REMARK  Name = 
REMARK  6 active torsions:
REMARK  status: ('A' for Active; 'I' for Inactive)
REMARK    1  A    between atoms: C_2  and  C_3
REMARK    2  A    between atoms: C_6  and  N_7
REMARK    3  A    between atoms: C_9  and  C_10
REMARK    4  A    between atoms: C_13  and  C_14
REMARK    5  A    between atoms: C_14  and  O_16
REMARK    6  A    between atoms: C_20  and  C_21
REMARK                            x       y       z     vdW  Elec       q    Type
REMARK                         _______ _______ _______ _____ _____    ______ ____
ROOT
ATOM      1  N   UNL     1       2.654   6.603  19.325  0.00  0.00    +0.000 N 
ATOM      2  N   UNL     1       3.187   6.651  18.070  0.00  0.00    +0.000 NA
ATOM      3  C   UNL     1       4.009   5.657  17.957  0.00  0.00    +0.000 C 
ATOM      4  C   UNL     1       4.106   4.776  19.164  0.00  0.00    +0.000 C 
ATOM      5  C   UNL     1       3.174   5.499  20.140  0.00  0.00    +0.000 C 
ENDROOT
BRANCH   1   9
ATOM      6  C   UNL     1       0.448   9.894  20.783  0.00  0.00    +0.000 A 
ATOM      7  C   UNL     1       0.725   8.801  21.604  0.00  0.00    +0.000 A 
ATOM      8  C   UNL     1       1.451   7.721  21.097  0.00  0.00    +0.000 A 
ATOM      9  C   UNL     1       1.944   7.709  19.780  0.00  0.00    +0.000 A 
ATOM     10  C   UNL     1       1.680   8.825  18.983  0.00  0.00    +0.000 A 
ATOM     11  C   UNL     1       0.924   9.902  19.470  0.00  0.00    +0.000 A 
ATOM     12 CL   UNL     1       0.597  11.209  18.384  0.00  0.00    +0.000 Cl
BRANCH   6  14
ATOM     13  N   UNL     1      -0.935  11.848  21.781  0.00  0.00    +0.000 NA
ATOM     14  C   UNL     1      -0.322  10.978  21.317  0.00  0.00    +0.000 C 
ENDBRANCH   6  14
ENDBRANCH   1   9
BRANCH   3  15
ATOM     15  C   UNL     1       4.792   5.376  16.732  0.00  0.00    +0.000 A 
ATOM     16  C   UNL     1       5.132   6.439  15.888  0.00  0.00    +0.000 A 
ATOM     17  C   UNL     1       5.873   6.204  14.727  0.00  0.00    +0.000 A 
ATOM     18  C   UNL     1       6.276   4.905  14.395  0.00  0.00    +0.000 A 
ATOM     19  C   UNL     1       5.951   3.840  15.246  0.00  0.00    +0.000 A 
ATOM     20  C   UNL     1       5.206   4.077  16.408  0.00  0.00    +0.000 A 
BRANCH  18  21
ATOM     21  C   UNL     1       7.093   4.723  13.166  0.00  0.00    +0.000 C 
ATOM     22  O   UNL     1       6.876   3.833  12.361  0.00  0.00    +0.000 OA
BRANCH  21  23
ATOM     23  O   UNL     1       8.108   5.601  13.036  0.00  0.00    +0.000 OA
ATOM     24  H   UNL     1       7.938   6.357  12.446  0.00  0.00    +0.000 HD
ENDBRANCH  21  23
ENDBRANCH  18  21
ENDBRANCH   3  15
BRANCH   5  25
ATOM     25  C   UNL     1       2.031   4.629  20.712  0.00  0.00    +0.000 C 
ATOM     26  C   UNL     1       1.215   3.862  19.668  0.00  0.00    +0.000 C 
ATOM     27  C   UNL     1       0.463   2.813  20.470  0.00  0.00    +0.000 C 
ATOM     28  C   UNL     1       1.344   2.487  21.669  0.00  0.00    +0.000 C 
ATOM     29  C   UNL     1       2.460   3.530  21.695  0.00  0.00    +0.000 C 
ENDBRANCH   5  25
TORSDOF 6
ENDMDL
MODEL 4
REMARK VINA RESULT:      -8.2      0.986      1.339
REMARK  Name = 
REMARK  6 active torsions:
REMARK  status: ('A' for Active; 'I' for Inactive)
REMARK    1  A    between atoms: C_2  and  C_3
REMARK    2  A    between atoms: C_6  and  N_7
REMARK    3  A    between atoms: C_9  and  C_10
REMARK    4  A    between atoms: C_13  and  C_14
REMARK    5  A    between atoms: C_14  and  O_16
REMARK    6  A    between atoms: C_20  and  C_21
REMARK                            x       y       z     vdW  Elec       q    Type
REMARK                         _______ _______ _______ _____ _____    ______ ____
ROOT
ATOM      1  N   UNL     1       2.657   6.607  19.338  0.00  0.00    +0.000 N 
ATOM      2  N   UNL     1       3.179   6.652  18.077  0.00  0.00    +0.000 NA
ATOM      3  C   UNL     1       3.993   5.652  17.956  0.00  0.00    +0.000 C 
ATOM      4  C   UNL     1       4.097   4.771  19.161  0.00  0.00    +0.000 C 
ATOM      5  C   UNL     1       3.179   5.499  20.147  0.00  0.00    +0.000 C 
ENDROOT
BRANCH   1   9
ATOM      6  C   UNL     1       0.490   9.912  20.822  0.00  0.00    +0.000 A 
ATOM      7  C   UNL     1       0.827   8.846  21.656  0.00  0.00    +0.000 A 
ATOM      8  C   UNL     1       1.538   7.760  21.140  0.00  0.00    +0.000 A 
ATOM      9  C   UNL     1       1.959   7.717  19.800  0.00  0.00    +0.000 A 
ATOM     10  C   UNL     1       1.638   8.806  18.988  0.00  0.00    +0.000 A 
ATOM     11  C   UNL     1       0.895   9.888  19.485  0.00  0.00    +0.000 A 
ATOM     12 CL   UNL     1       0.492  11.160  18.383  0.00  0.00    +0.000 Cl
BRANCH   6  14
ATOM     13  N   UNL     1      -0.847  11.892  21.829  0.00  0.00    +0.000 NA
ATOM     14  C   UNL     1      -0.263  11.002  21.367  0.00  0.00    +0.000 C 
ENDBRANCH   6  14
ENDBRANCH   1   9
BRANCH   3  15
ATOM     15  C   UNL     1       4.763   5.367  16.723  0.00  0.00    +0.000 A 
ATOM     16  C   UNL     1       5.139   4.049  16.450  0.00  0.00    +0.000 A 
ATOM     17  C   UNL     1       5.864   3.750  15.294  0.00  0.00    +0.000 A 
ATOM     18  C   UNL     1       6.223   4.767  14.401  0.00  0.00    +0.000 A 
ATOM     19  C   UNL     1       5.833   6.088  14.663  0.00  0.00    +0.000 A 
ATOM     20  C   UNL     1       5.110   6.385  15.825  0.00  0.00    +0.000 A 
BRANCH  18  21
ATOM     21  C   UNL     1       6.962   4.383  13.169  0.00  0.00    +0.000 C 
ATOM     22  O   UNL     1       7.813   5.097  12.666  0.00  0.00    +0.000 OA
BRANCH  21  23
ATOM     23  O   UNL     1       6.589   3.199  12.642  0.00  0.00    +0.000 OA
ATOM     24  H   UNL     1       5.981   2.668  13.185  0.00  0.00    +0.000 HD
ENDBRANCH  21  23
ENDBRANCH  18  21
ENDBRANCH   3  15
BRANCH   5  25
ATOM     25  C   UNL     1       2.037   4.636  20.730  0.00  0.00    +0.000 C 
ATOM     26  C   UNL     1       1.202   3.880  19.694  0.00  0.00    +0.000 C 
ATOM     27  C   UNL     1       0.451   2.833  20.502  0.00  0.00    +0.000 C 
ATOM     28  C   UNL     1       1.345   2.496  21.688  0.00  0.00    +0.000 C 
ATOM     29  C   UNL     1       2.469   3.531  21.704  0.00  0.00    +0.000 C 
ENDBRANCH   5  25
TORSDOF 6
ENDMDL
MODEL 5
REMARK VINA RESULT:      -7.8      3.217      6.405
REMARK  Name = 
REMARK  6 active torsions:
REMARK  status: ('A' for Active; 'I' for Inactive)
REMARK    1  A    between atoms: C_2  and  C_3
REMARK    2  A    between atoms: C_6  and  N_7
REMARK    3  A    between atoms: C_9  and  C_10
REMARK    4  A    between atoms: C_13  and  C_14
REMARK    5  A    between atoms: C_14  and  O_16
REMARK    6  A    between atoms: C_20  and  C_21
REMARK                            x       y       z     vdW  Elec       q    Type
REMARK                         _______ _______ _______ _____ _____    ______ ____
ROOT
ATOM      1  N   UNL     1       0.559  10.532  20.078  0.00  0.00    +0.000 N 
ATOM      2  N   UNL     1       0.999   9.251  20.244  0.00  0.00    +0.000 NA
ATOM      3  C   UNL     1       1.684   8.934  19.191  0.00  0.00    +0.000 C 
ATOM      4  C   UNL     1       1.808  10.020  18.167  0.00  0.00    +0.000 C 
ATOM      5  C   UNL     1       0.957  11.126  18.796  0.00  0.00    +0.000 C 
ENDROOT
BRANCH   1   9
ATOM      6  C   UNL     1      -2.375  11.894  22.791  0.00  0.00    +0.000 A 
ATOM      7  C   UNL     1      -1.342  11.059  23.216  0.00  0.00    +0.000 A 
ATOM      8  C   UNL     1      -0.387  10.616  22.299  0.00  0.00    +0.000 A 
ATOM      9  C   UNL     1      -0.413  11.010  20.950  0.00  0.00    +0.000 A 
ATOM     10  C   UNL     1      -1.438  11.870  20.549  0.00  0.00    +0.000 A 
ATOM     11  C   UNL     1      -2.423  12.296  21.454  0.00  0.00    +0.000 A 
ATOM     12 CL   UNL     1      -3.688  13.308  20.846  0.00  0.00    +0.000 Cl
BRANCH   6  14
ATOM     13  N   UNL     1      -4.177  12.632  24.503  0.00  0.00    +0.000 NA
ATOM     14  C   UNL     1      -3.358  12.314  23.744  0.00  0.00    +0.000 C 
ENDBRANCH   6  14
ENDBRANCH   1   9
BRANCH   3  15
ATOM     15  C   UNL     1       2.322   7.613  18.996  0.00  0.00    +0.000 A 
ATOM     16  C   UNL     1       3.093   7.396  17.849  0.00  0.00    +0.000 A 
ATOM     17  C   UNL     1       3.709   6.160  17.640  0.00  0.00    +0.000 A 
ATOM     18  C   UNL     1       3.557   5.126  18.572  0.00  0.00    +0.000 A 
ATOM     19  C   UNL     1       2.798   5.345  19.730  0.00  0.00    +0.000 A 
ATOM     20  C   UNL     1       2.179   6.584  19.936  0.00  0.00    +0.000 A 
BRANCH  18  21
ATOM     21  C   UNL     1       4.266   3.846  18.313  0.00  0.00    +0.000 C 
ATOM     22  O   UNL     1       3.884   3.042  17.479  0.00  0.00    +0.000 OA
BRANCH  21  23
ATOM     23  O   UNL     1       5.343   3.636  19.097  0.00  0.00    +0.000 OA
ATOM     24  H   UNL     1       5.155   3.485  20.040  0.00  0.00    +0.000 HD
ENDBRANCH  21  23
ENDBRANCH  18  21
ENDBRANCH   3  15
BRANCH   5  25
ATOM     25  C   UNL     1       1.689  12.473  18.999  0.00  0.00    +0.000 C 
ATOM     26  C   UNL     1       2.892  12.701  18.080  0.00  0.00    +0.000 C 
ATOM     27  C   UNL     1       3.170  14.192  18.182  0.00  0.00    +0.000 C 
ATOM     28  C   UNL     1       1.826  14.853  18.459  0.00  0.00    +0.000 C 
ATOM     29  C   UNL     1       0.838  13.732  18.778  0.00  0.00    +0.000 C 
ENDBRANCH   5  25
TORSDOF 6
ENDMDL
MODEL 6
REMARK VINA RESULT:      -7.6      3.336      6.322
REMARK  Name = 
REMARK  6 active torsions:
REMARK  status: ('A' for Active; 'I' for Inactive)
REMARK    1  A    between atoms: C_2  and  C_3
REMARK    2  A    between atoms: C_6  and  N_7
REMARK    3  A    between atoms: C_9  and  C_10
REMARK    4  A    between atoms: C_13  and  C_14
REMARK    5  A    between atoms: C_14  and  O_16
REMARK    6  A    between atoms: C_20  and  C_21
REMARK                            x       y       z     vdW  Elec       q    Type
REMARK                         _______ _______ _______ _____ _____    ______ ____
ROOT
ATOM      1  N   UNL     1       0.538  10.460  20.008  0.00  0.00    +0.000 N 
ATOM      2  N   UNL     1       1.021   9.204  20.236  0.00  0.00    +0.000 NA
ATOM      3  C   UNL     1       1.673   8.839  19.178  0.00  0.00    +0.000 C 
ATOM      4  C   UNL     1       1.726   9.859  18.084  0.00  0.00    +0.000 C 
ATOM      5  C   UNL     1       0.868  10.981  18.677  0.00  0.00    +0.000 C 
ENDROOT
BRANCH   1   9
ATOM      6  C   UNL     1      -2.330  11.912  22.745  0.00  0.00    +0.000 A 
ATOM      7  C   UNL     1      -1.282  11.097  23.174  0.00  0.00    +0.000 A 
ATOM      8  C   UNL     1      -0.350  10.623  22.249  0.00  0.00    +0.000 A 
ATOM      9  C   UNL     1      -0.413  10.967  20.887  0.00  0.00    +0.000 A 
ATOM     10  C   UNL     1      -1.452  11.808  20.482  0.00  0.00    +0.000 A 
ATOM     11  C   UNL     1      -2.414  12.264  21.396  0.00  0.00    +0.000 A 
ATOM     12 CL   UNL     1      -3.699  13.249  20.784  0.00  0.00    +0.000 Cl
BRANCH   6  14
ATOM     13  N   UNL     1      -4.091  12.724  24.465  0.00  0.00    +0.000 NA
ATOM     14  C   UNL     1      -3.289  12.364  23.708  0.00  0.00    +0.000 C 
ENDBRANCH   6  14
ENDBRANCH   1   9
BRANCH   3  15
ATOM     15  C   UNL     1       2.341   7.525  19.040  0.00  0.00    +0.000 A 
ATOM     16  C   UNL     1       2.148   6.560  20.034  0.00  0.00    +0.000 A 
ATOM     17  C   UNL     1       2.765   5.311  19.930  0.00  0.00    +0.000 A 
ATOM     18  C   UNL     1       3.584   5.015  18.834  0.00  0.00    +0.000 A 
ATOM     19  C   UNL     1       3.767   5.974  17.828  0.00  0.00    +0.000 A 
ATOM     20  C   UNL     1       3.151   7.226  17.936  0.00  0.00    +0.000 A 
BRANCH  18  21
ATOM     21  C   UNL     1       4.183   3.657  18.759  0.00  0.00    +0.000 C 
ATOM     22  O   UNL     1       3.527   2.665  18.484  0.00  0.00    +0.000 OA
BRANCH  21  23
ATOM     23  O   UNL     1       5.499   3.610  19.051  0.00  0.00    +0.000 OA
ATOM     24  H   UNL     1       5.901   2.723  19.042  0.00  0.00    +0.000 HD
ENDBRANCH  21  23
ENDBRANCH  18  21
ENDBRANCH   3  15
BRANCH   5  25
ATOM     25  C   UNL     1       1.568  12.357  18.764  0.00  0.00    +0.000 C 
ATOM     26  C   UNL     1       0.694  13.555  18.385  0.00  0.00    +0.000 C 
ATOM     27  C   UNL     1       1.446  14.760  18.926  0.00  0.00    +0.000 C 
ATOM     28  C   UNL     1       2.208  14.267  20.149  0.00  0.00    +0.000 C 
ATOM     29  C   UNL     1       2.107  12.742  20.150  0.00  0.00    +0.000 C 
ENDBRANCH   5  25
TORSDOF 6
ENDMDL
MODEL 7
REMARK VINA RESULT:      -7.5      4.020      6.454
REMARK  Name = 
REMARK  6 active torsions:
REMARK  status: ('A' for Active; 'I' for Inactive)
REMARK    1  A    between atoms: C_2  and  C_3
REMARK    2  A    between atoms: C_6  and  N_7
REMARK    3  A    between atoms: C_9  and  C_10
REMARK    4  A    between atoms: C_13  and  C_14
REMARK    5  A    between atoms: C_14  and  O_16
REMARK    6  A    between atoms: C_20  and  C_21
REMARK                            x       y       z     vdW  Elec       q    Type
REMARK                         _______ _______ _______ _____ _____    ______ ____
ROOT
ATOM      1  N   UNL     1       0.925  11.377  18.588  0.00  0.00    +0.000 N 
ATOM      2  N   UNL     1       1.952  10.487  18.461  0.00  0.00    +0.000 NA
ATOM      3  C   UNL     1       1.476   9.305  18.697  0.00  0.00    +0.000 C 
ATOM      4  C   UNL     1       0.010   9.263  18.996  0.00  0.00    +0.000 C 
ATOM      5  C   UNL     1      -0.348  10.751  18.965  0.00  0.00    +0.000 C 
ENDROOT
BRANCH   1   9
ATOM      6  C   UNL     1       1.750  15.514  18.747  0.00  0.00    +0.000 A 
ATOM      7  C   UNL     1       0.543  15.008  19.228  0.00  0.00    +0.000 A 
ATOM      8  C   UNL     1       0.290  13.636  19.159  0.00  0.00    +0.000 A 
ATOM      9  C   UNL     1       1.233  12.731  18.641  0.00  0.00    +0.000 A 
ATOM     10  C   UNL     1       2.447  13.254  18.191  0.00  0.00    +0.000 A 
ATOM     11  C   UNL     1       2.701  14.634  18.224  0.00  0.00    +0.000 A 
ATOM     12 CL   UNL     1       4.209  15.190  17.584  0.00  0.00    +0.000 Cl
BRANCH   6  14
ATOM     13  N   UNL     1       2.182  18.068  18.875  0.00  0.00    +0.000 NA
ATOM     14  C   UNL     1       1.975  16.928  18.804  0.00  0.00    +0.000 C 
ENDBRANCH   6  14
ENDBRANCH   1   9
BRANCH   3  15
ATOM     15  C   UNL     1       2.293   8.071  18.661  0.00  0.00    +0.000 A 
ATOM     16  C   UNL     1       3.164   7.867  17.587  0.00  0.00    +0.000 A 
ATOM     17  C   UNL     1       3.948   6.712  17.527  0.00  0.00    +0.000 A 
ATOM     18  C   UNL     1       3.866   5.747  18.539  0.00  0.00    +0.000 A 
ATOM     19  C   UNL     1       3.005   5.956  19.625  0.00  0.00    +0.000 A 
ATOM     20  C   UNL     1       2.217   7.113  19.681  0.00  0.00    +0.000 A 
BRANCH  18  21
ATOM     21  C   UNL     1       4.751   4.558  18.440  0.00  0.00    +0.000 C 
ATOM     22  O   UNL     1       5.591   4.294  19.284  0.00  0.00    +0.000 OA
BRANCH  21  23
ATOM     23  O   UNL     1       4.570   3.818  17.327  0.00  0.00    +0.000 OA
ATOM     24  H   UNL     1       4.545   2.854  17.462  0.00  0.00    +0.000 HD
ENDBRANCH  21  23
ENDBRANCH  18  21
ENDBRANCH   3  15
BRANCH   5  25
ATOM     25  C   UNL     1      -1.478  11.127  17.979  0.00  0.00    +0.000 C 
ATOM     26  C   UNL     1      -1.949   9.991  17.069  0.00  0.00    +0.000 C 
ATOM     27  C   UNL     1      -3.279  10.475  16.514  0.00  0.00    +0.000 C 
ATOM     28  C   UNL     1      -3.877  11.380  17.583  0.00  0.00    +0.000 C 
ATOM     29  C   UNL     1      -2.782  11.624  18.621  0.00  0.00    +0.000 C 
ENDBRANCH   5  25
TORSDOF 6
ENDMDL
MODEL 8
REMARK VINA RESULT:      -7.4      3.432      6.462
REMARK  Name = 
REMARK  6 active torsions:
REMARK  status: ('A' for Active; 'I' for Inactive)
REMARK    1  A    between atoms: C_2  and  C_3
REMARK    2  A    between atoms: C_6  and  N_7
REMARK    3  A    between atoms: C_9  and  C_10
REMARK    4  A    between atoms: C_13  and  C_14
REMARK    5  A    between atoms: C_14  and  O_16
REMARK    6  A    between atoms: C_20  and  C_21
REMARK                            x       y       z     vdW  Elec       q    Type
REMARK                         _______ _______ _______ _____ _____    ______ ____
ROOT
ATOM      1  N   UNL     1       0.344  10.719  20.122  0.00  0.00    +0.000 N 
ATOM      2  N   UNL     1       0.837   9.466  20.344  0.00  0.00    +0.000 NA
ATOM      3  C   UNL     1       1.521   9.125  19.298  0.00  0.00    +0.000 C 
ATOM      4  C   UNL     1       1.591  10.163  18.222  0.00  0.00    +0.000 C 
ATOM      5  C   UNL     1       0.703  11.265  18.808  0.00  0.00    +0.000 C 
ENDROOT
BRANCH   1   9
ATOM      6  C   UNL     1      -2.611  12.096  22.805  0.00  0.00    +0.000 A 
ATOM      7  C   UNL     1      -1.549  11.312  23.254  0.00  0.00    +0.000 A 
ATOM      8  C   UNL     1      -0.587  10.863  22.346  0.00  0.00    +0.000 A 
ATOM      9  C   UNL     1      -0.636  11.201  20.983  0.00  0.00    +0.000 A 
ATOM     10  C   UNL     1      -1.691  12.011  20.558  0.00  0.00    +0.000 A 
ATOM     11  C   UNL     1      -2.682  12.442  21.453  0.00  0.00    +0.000 A 
ATOM     12 CL   UNL     1      -3.983  13.388  20.816  0.00  0.00    +0.000 Cl
BRANCH   6  14
ATOM     13  N   UNL     1      -4.418  12.839  24.509  0.00  0.00    +0.000 NA
ATOM     14  C   UNL     1      -3.600  12.523  23.749  0.00  0.00    +0.000 C 
ENDBRANCH   6  14
ENDBRANCH   1   9
BRANCH   3  15
ATOM     15  C   UNL     1       2.210   7.822  19.159  0.00  0.00    +0.000 A 
ATOM     16  C   UNL     1       2.028   6.851  20.149  0.00  0.00    +0.000 A 
ATOM     17  C   UNL     1       2.663   5.612  20.043  0.00  0.00    +0.000 A 
ATOM     18  C   UNL     1       3.491   5.331  18.949  0.00  0.00    +0.000 A 
ATOM     19  C   UNL     1       3.662   6.296  17.946  0.00  0.00    +0.000 A 
ATOM     20  C   UNL     1       3.027   7.539  18.056  0.00  0.00    +0.000 A 
BRANCH  18  21
ATOM     21  C   UNL     1       4.110   3.982  18.872  0.00  0.00    +0.000 C 
ATOM     22  O   UNL     1       5.317   3.813  18.899  0.00  0.00    +0.000 OA
BRANCH  21  23
ATOM     23  O   UNL     1       3.228   2.971  18.738  0.00  0.00    +0.000 OA
ATOM     24  H   UNL     1       2.708   2.971  17.916  0.00  0.00    +0.000 HD
ENDBRANCH  21  23
ENDBRANCH  18  21
ENDBRANCH   3  15
BRANCH   5  25
ATOM     25  C   UNL     1       1.383  12.648  18.935  0.00  0.00    +0.000 C 
ATOM     26  C   UNL     1       2.024  12.933  20.296  0.00  0.00    +0.000 C 
ATOM     27  C   UNL     1       2.939  14.120  20.043  0.00  0.00    +0.000 C 
ATOM     28  C   UNL     1       3.387  14.005  18.592  0.00  0.00    +0.000 C 
ATOM     29  C   UNL     1       2.527  12.919  17.947  0.00  0.00    +0.000 C 
ENDBRANCH   5  25
TORSDOF 6
ENDMDL
MODEL 9
REMARK VINA RESULT:      -7.3      3.947      6.363
REMARK  Name = 
REMARK  6 active torsions:
REMARK  status: ('A' for Active; 'I' for Inactive)
REMARK    1  A    between atoms: C_2  and  C_3
REMARK    2  A    between atoms: C_6  and  N_7
REMARK    3  A    between atoms: C_9  and  C_10
REMARK    4  A    between atoms: C_13  and  C_14
REMARK    5  A    between atoms: C_14  and  O_16
REMARK    6  A    between atoms: C_20  and  C_21
REMARK                            x       y       z     vdW  Elec       q    Type
REMARK                         _______ _______ _______ _____ _____    ______ ____
ROOT
ATOM      1  N   UNL     1       0.851  11.340  18.543  0.00  0.00    +0.000 N 
ATOM      2  N   UNL     1       1.902  10.476  18.439  0.00  0.00    +0.000 NA
ATOM      3  C   UNL     1       1.449   9.283  18.659  0.00  0.00    +0.000 C 
ATOM      4  C   UNL     1      -0.023   9.203  18.920  0.00  0.00    +0.000 C 
ATOM      5  C   UNL     1      -0.416  10.683  18.884  0.00  0.00    +0.000 C 
ENDROOT
BRANCH   1   9
ATOM      6  C   UNL     1       1.789  15.451  18.754  0.00  0.00    +0.000 A 
ATOM      7  C   UNL     1       2.741  14.522  18.336  0.00  0.00    +0.000 A 
ATOM      8  C   UNL     1       2.410  13.166  18.280  0.00  0.00    +0.000 A 
ATOM      9  C   UNL     1       1.123  12.702  18.608  0.00  0.00    +0.000 A 
ATOM     10  C   UNL     1       0.176  13.651  18.996  0.00  0.00    +0.000 A 
ATOM     11  C   UNL     1       0.506  15.012  19.088  0.00  0.00    +0.000 A 
ATOM     12 CL   UNL     1      -0.721  16.100  19.641  0.00  0.00    +0.000 Cl
BRANCH   6  14
ATOM     13  N   UNL     1       2.443  17.955  18.918  0.00  0.00    +0.000 NA
ATOM     14  C   UNL     1       2.161  16.833  18.829  0.00  0.00    +0.000 C 
ENDBRANCH   6  14
ENDBRANCH   1   9
BRANCH   3  15
ATOM     15  C   UNL     1       2.297   8.069  18.640  0.00  0.00    +0.000 A 
ATOM     16  C   UNL     1       3.199   7.890  17.586  0.00  0.00    +0.000 A 
ATOM     17  C   UNL     1       4.012   6.755  17.543  0.00  0.00    +0.000 A 
ATOM     18  C   UNL     1       3.930   5.786  18.551  0.00  0.00    +0.000 A 
ATOM     19  C   UNL     1       3.039   5.970  19.617  0.00  0.00    +0.000 A 
ATOM     20  C   UNL     1       2.221   7.107  19.656  0.00  0.00    +0.000 A 
BRANCH  18  21
ATOM     21  C   UNL     1       4.847   4.619  18.471  0.00  0.00    +0.000 C 
ATOM     22  O   UNL     1       5.784   4.468  19.236  0.00  0.00    +0.000 OA
BRANCH  21  23
ATOM     23  O   UNL     1       4.575   3.763  17.465  0.00  0.00    +0.000 OA
ATOM     24  H   UNL     1       5.236   3.727  16.752  0.00  0.00    +0.000 HD
ENDBRANCH  21  23
ENDBRANCH  18  21
ENDBRANCH   3  15
BRANCH   5  25
ATOM     25  C   UNL     1      -1.529  11.034  17.871  0.00  0.00    +0.000 C 
ATOM     26  C   UNL     1      -1.970   9.881  16.966  0.00  0.00    +0.000 C 
ATOM     27  C   UNL     1      -3.293  10.344  16.378  0.00  0.00    +0.000 C 
ATOM     28  C   UNL     1      -3.922  11.256  17.423  0.00  0.00    +0.000 C 
ATOM     29  C   UNL     1      -2.851  11.525  18.479  0.00  0.00    +0.000 C 
ENDBRANCH   5  25
TORSDOF 6
ENDMDL
