MODEL 1
REMARK VINA RESULT:      -8.4      0.000      0.000
REMARK  Name = 
REMARK  7 active torsions:
REMARK  status: ('A' for Active; 'I' for Inactive)
REMARK    1  A    between atoms: N_1  and  C_2
REMARK    2  A    between atoms: C_4  and  N_5
REMARK    3  A    between atoms: N_5  and  S_6
REMARK    4  A    between atoms: S_6  and  C_9
REMARK    5  A    between atoms: C_16  and  N_17
REMARK    6  A    between atoms: C_19  and  C_20
REMARK    7  A    between atoms: C_20  and  O_22
REMARK                            x       y       z     vdW  Elec       q    Type
REMARK                         _______ _______ _______ _____ _____    ______ ____
ROOT
ATOM      1  C   UNL     1       7.430   6.319  18.320  0.00  0.00    +0.000 A 
ATOM      2  C   UNL     1       6.633   5.561  19.185  0.00  0.00    +0.000 A 
ATOM      3  C   UNL     1       5.792   4.566  18.683  0.00  0.00    +0.000 A 
ATOM      4  C   UNL     1       5.780   4.280  17.322  0.00  0.00    +0.000 A 
ATOM      5  C   UNL     1       6.635   4.976  16.456  0.00  0.00    +0.000 A 
ATOM      6  C   UNL     1       7.474   5.977  16.965  0.00  0.00    +0.000 A 
ENDROOT
BRANCH   5   7
ATOM      7  N   UNL     1       6.650   4.639  15.077  0.00  0.00    +0.000 N 
ATOM      8  C   UNL     1       5.864   3.712  14.418  0.00  0.00    +0.000 A 
ATOM      9  C   UNL     1       6.215   3.747  13.081  0.00  0.00    +0.000 A 
ATOM     10  C   UNL     1       7.249   4.704  13.037  0.00  0.00    +0.000 A 
ATOM     11  N   UNL     1       7.504   5.252  14.224  0.00  0.00    +0.000 NA
BRANCH   9  12
ATOM     12  C   UNL     1       5.688   3.003  11.957  0.00  0.00    +0.000 C 
ATOM     13  O   UNL     1       4.625   3.278  11.418  0.00  0.00    +0.000 OA
BRANCH  12  14
ATOM     14  O   UNL     1       6.445   1.958  11.536  0.00  0.00    +0.000 OA
ATOM     15  H   UNL     1       5.950   1.128  11.445  0.00  0.00    +0.000 HD
ENDBRANCH  12  14
ENDBRANCH   9  12
ENDBRANCH   5   7
BRANCH   1  16
ATOM     16  N   UNL     1       8.351   7.246  18.826  0.00  0.00    +0.000 N 
ATOM     17  H   UNL     1       8.502   7.158  19.829  0.00  0.00    +0.000 HD
ATOM     18  H   UNL     1       8.159   8.208  18.565  0.00  0.00    +0.000 HD
ENDBRANCH   1  16
BRANCH   3  19
ATOM     19  N   UNL     1       5.018   3.762  19.554  0.00  0.00    +0.000 N 
ATOM     20  H   UNL     1       5.391   3.498  20.463  0.00  0.00    +0.000 HD
BRANCH  19  21
ATOM     21  S   UNL     1       3.347   3.684  19.413  0.00  0.00    +0.000 S 
ATOM     22  O   UNL     1       3.081   3.055  18.138  0.00  0.00    +0.000 OA
ATOM     23  O   UNL     1       2.796   3.147  20.638  0.00  0.00    +0.000 OA
BRANCH  21  24
ATOM     24  C   UNL     1       2.866   5.386  19.260  0.00  0.00    +0.000 A 
ATOM     25  C   UNL     1       2.336   6.036  20.379  0.00  0.00    +0.000 A 
ATOM     26  C   UNL     1       1.933   7.366  20.278  0.00  0.00    +0.000 A 
ATOM     27  C   UNL     1       2.069   8.044  19.065  0.00  0.00    +0.000 A 
ATOM     28  C   UNL     1       2.621   7.400  17.955  0.00  0.00    +0.000 A 
ATOM     29  C   UNL     1       3.026   6.066  18.050  0.00  0.00    +0.000 A 
ENDBRANCH  21  24
ENDBRANCH  19  21
ENDBRANCH   3  19
TORSDOF 7
ENDMDL
MODEL 2
REMARK VINA RESULT:      -8.1      3.397      6.915
REMARK  Name = 
REMARK  7 active torsions:
REMARK  status: ('A' for Active; 'I' for Inactive)
REMARK    1  A    between atoms: N_1  and  C_2
REMARK    2  A    between atoms: C_4  and  N_5
REMARK    3  A    between atoms: N_5  and  S_6
REMARK    4  A    between atoms: S_6  and  C_9
REMARK    5  A    between atoms: C_16  and  N_17
REMARK    6  A    between atoms: C_19  and  C_20
REMARK    7  A    between atoms: C_20  and  O_22
REMARK                            x       y       z     vdW  Elec       q    Type
REMARK                         _______ _______ _______ _____ _____    ______ ____
ROOT
ATOM      1  C   UNL     1       1.785   2.971  18.216  0.00  0.00    +0.000 A 
ATOM      2  C   UNL     1       3.015   2.689  17.610  0.00  0.00    +0.000 A 
ATOM      3  C   UNL     1       3.919   3.716  17.333  0.00  0.00    +0.000 A 
ATOM      4  C   UNL     1       3.630   5.024  17.708  0.00  0.00    +0.000 A 
ATOM      5  C   UNL     1       2.439   5.306  18.390  0.00  0.00    +0.000 A 
ATOM      6  C   UNL     1       1.532   4.272  18.662  0.00  0.00    +0.000 A 
ENDROOT
BRANCH   5   7
ATOM      7  N   UNL     1       2.180   6.636  18.813  0.00  0.00    +0.000 N 
ATOM      8  C   UNL     1       2.054   7.770  18.030  0.00  0.00    +0.000 A 
ATOM      9  C   UNL     1       1.779   8.829  18.877  0.00  0.00    +0.000 A 
ATOM     10  C   UNL     1       1.794   8.240  20.157  0.00  0.00    +0.000 A 
ATOM     11  N   UNL     1       2.018   6.927  20.125  0.00  0.00    +0.000 NA
BRANCH   9  12
ATOM     12  C   UNL     1       1.532  10.223  18.578  0.00  0.00    +0.000 C 
ATOM     13  O   UNL     1       0.887  10.956  19.314  0.00  0.00    +0.000 OA
BRANCH  12  14
ATOM     14  O   UNL     1       2.055  10.676  17.410  0.00  0.00    +0.000 OA
ATOM     15  H   UNL     1       2.647  11.439  17.516  0.00  0.00    +0.000 HD
ENDBRANCH  12  14
ENDBRANCH   9  12
ENDBRANCH   5   7
BRANCH   1  16
ATOM     16  N   UNL     1       0.919   1.935  18.590  0.00  0.00    +0.000 N 
ATOM     17  H   UNL     1       1.044   1.087  18.041  0.00  0.00    +0.000 HD
ATOM     18  H   UNL     1      -0.059   2.205  18.634  0.00  0.00    +0.000 HD
ENDBRANCH   1  16
BRANCH   3  19
ATOM     19  N   UNL     1       5.184   3.434  16.763  0.00  0.00    +0.000 N 
ATOM     20  H   UNL     1       5.481   2.468  16.644  0.00  0.00    +0.000 HD
BRANCH  19  21
ATOM     21  S   UNL     1       5.970   4.553  15.790  0.00  0.00    +0.000 S 
ATOM     22  O   UNL     1       6.964   3.811  15.047  0.00  0.00    +0.000 OA
ATOM     23  O   UNL     1       4.980   5.361  15.110  0.00  0.00    +0.000 OA
BRANCH  21  24
ATOM     24  C   UNL     1       6.845   5.569  16.953  0.00  0.00    +0.000 A 
ATOM     25  C   UNL     1       7.356   4.975  18.112  0.00  0.00    +0.000 A 
ATOM     26  C   UNL     1       8.029   5.756  19.049  0.00  0.00    +0.000 A 
ATOM     27  C   UNL     1       8.199   7.122  18.822  0.00  0.00    +0.000 A 
ATOM     28  C   UNL     1       7.709   7.710  17.653  0.00  0.00    +0.000 A 
ATOM     29  C   UNL     1       7.032   6.933  16.710  0.00  0.00    +0.000 A 
ENDBRANCH  21  24
ENDBRANCH  19  21
ENDBRANCH   3  19
TORSDOF 7
ENDMDL
MODEL 3
REMARK VINA RESULT:      -7.9      0.300      1.196
REMARK  Name = 
REMARK  7 active torsions:
REMARK  status: ('A' for Active; 'I' for Inactive)
REMARK    1  A    between atoms: N_1  and  C_2
REMARK    2  A    between atoms: C_4  and  N_5
REMARK    3  A    between atoms: N_5  and  S_6
REMARK    4  A    between atoms: S_6  and  C_9
REMARK    5  A    between atoms: C_16  and  N_17
REMARK    6  A    between atoms: C_19  and  C_20
REMARK    7  A    between atoms: C_20  and  O_22
REMARK                            x       y       z     vdW  Elec       q    Type
REMARK                         _______ _______ _______ _____ _____    ______ ____
ROOT
ATOM      1  C   UNL     1       7.336   6.627  17.952  0.00  0.00    +0.000 A 
ATOM      2  C   UNL     1       6.639   5.856  18.889  0.00  0.00    +0.000 A 
ATOM      3  C   UNL     1       5.882   4.757  18.479  0.00  0.00    +0.000 A 
ATOM      4  C   UNL     1       5.859   4.384  17.139  0.00  0.00    +0.000 A 
ATOM      5  C   UNL     1       6.619   5.099  16.203  0.00  0.00    +0.000 A 
ATOM      6  C   UNL     1       7.374   6.204  16.621  0.00  0.00    +0.000 A 
ENDROOT
BRANCH   5   7
ATOM      7  N   UNL     1       6.627   4.676  14.848  0.00  0.00    +0.000 N 
ATOM      8  C   UNL     1       5.817   3.730  14.246  0.00  0.00    +0.000 A 
ATOM      9  C   UNL     1       6.171   3.673  12.910  0.00  0.00    +0.000 A 
ATOM     10  C   UNL     1       7.228   4.598  12.809  0.00  0.00    +0.000 A 
ATOM     11  N   UNL     1       7.496   5.213  13.960  0.00  0.00    +0.000 NA
BRANCH   9  12
ATOM     12  C   UNL     1       5.625   2.873  11.834  0.00  0.00    +0.000 C 
ATOM     13  O   UNL     1       6.248   1.967  11.298  0.00  0.00    +0.000 OA
BRANCH  12  14
ATOM     14  O   UNL     1       4.369   3.199  11.437  0.00  0.00    +0.000 OA
ATOM     15  H   UNL     1       4.334   3.642  10.574  0.00  0.00    +0.000 HD
ENDBRANCH  12  14
ENDBRANCH   9  12
ENDBRANCH   5   7
BRANCH   1  16
ATOM     16  N   UNL     1       8.180   7.666  18.368  0.00  0.00    +0.000 N 
ATOM     17  H   UNL     1       7.872   8.584  18.056  0.00  0.00    +0.000 HD
ATOM     18  H   UNL     1       9.162   7.514  18.156  0.00  0.00    +0.000 HD
ENDBRANCH   1  16
BRANCH   3  19
ATOM     19  N   UNL     1       5.213   3.943  19.425  0.00  0.00    +0.000 N 
ATOM     20  H   UNL     1       5.635   3.774  20.335  0.00  0.00    +0.000 HD
BRANCH  19  21
ATOM     21  S   UNL     1       3.554   3.702  19.346  0.00  0.00    +0.000 S 
ATOM     22  O   UNL     1       3.292   3.134  18.042  0.00  0.00    +0.000 OA
ATOM     23  O   UNL     1       3.119   3.032  20.552  0.00  0.00    +0.000 OA
BRANCH  21  24
ATOM     24  C   UNL     1       2.898   5.351  19.332  0.00  0.00    +0.000 A 
ATOM     25  C   UNL     1       2.992   6.101  18.154  0.00  0.00    +0.000 A 
ATOM     26  C   UNL     1       2.502   7.405  18.125  0.00  0.00    +0.000 A 
ATOM     27  C   UNL     1       1.911   7.952  19.265  0.00  0.00    +0.000 A 
ATOM     28  C   UNL     1       1.797   7.194  20.433  0.00  0.00    +0.000 A 
ATOM     29  C   UNL     1       2.287   5.886  20.470  0.00  0.00    +0.000 A 
ENDBRANCH  21  24
ENDBRANCH  19  21
ENDBRANCH   3  19
TORSDOF 7
ENDMDL
MODEL 4
REMARK VINA RESULT:      -7.9      3.291      6.962
REMARK  Name = 
REMARK  7 active torsions:
REMARK  status: ('A' for Active; 'I' for Inactive)
REMARK    1  A    between atoms: N_1  and  C_2
REMARK    2  A    between atoms: C_4  and  N_5
REMARK    3  A    between atoms: N_5  and  S_6
REMARK    4  A    between atoms: S_6  and  C_9
REMARK    5  A    between atoms: C_16  and  N_17
REMARK    6  A    between atoms: C_19  and  C_20
REMARK    7  A    between atoms: C_20  and  O_22
REMARK                            x       y       z     vdW  Elec       q    Type
REMARK                         _______ _______ _______ _____ _____    ______ ____
ROOT
ATOM      1  C   UNL     1       2.233   3.451  20.936  0.00  0.00    +0.000 A 
ATOM      2  C   UNL     1       3.273   3.038  20.096  0.00  0.00    +0.000 A 
ATOM      3  C   UNL     1       3.817   3.917  19.158  0.00  0.00    +0.000 A 
ATOM      4  C   UNL     1       3.369   5.231  19.088  0.00  0.00    +0.000 A 
ATOM      5  C   UNL     1       2.386   5.681  19.980  0.00  0.00    +0.000 A 
ATOM      6  C   UNL     1       1.840   4.793  20.917  0.00  0.00    +0.000 A 
ENDROOT
BRANCH   5   7
ATOM      7  N   UNL     1       1.974   7.039  19.931  0.00  0.00    +0.000 N 
ATOM      8  C   UNL     1       2.070   7.921  18.870  0.00  0.00    +0.000 A 
ATOM      9  C   UNL     1       1.518   9.121  19.279  0.00  0.00    +0.000 A 
ATOM     10  C   UNL     1       1.147   8.875  20.616  0.00  0.00    +0.000 A 
ATOM     11  N   UNL     1       1.403   7.628  21.008  0.00  0.00    +0.000 NA
BRANCH   9  12
ATOM     12  C   UNL     1       1.341  10.362  18.555  0.00  0.00    +0.000 C 
ATOM     13  O   UNL     1       0.687  11.298  18.991  0.00  0.00    +0.000 OA
BRANCH  12  14
ATOM     14  O   UNL     1       1.942  10.425  17.340  0.00  0.00    +0.000 OA
ATOM     15  H   UNL     1       1.705   9.691  16.748  0.00  0.00    +0.000 HD
ENDBRANCH  12  14
ENDBRANCH   9  12
ENDBRANCH   5   7
BRANCH   1  16
ATOM     16  N   UNL     1       1.755   2.609  21.949  0.00  0.00    +0.000 N 
ATOM     17  H   UNL     1       1.698   1.633  21.668  0.00  0.00    +0.000 HD
ATOM     18  H   UNL     1       0.886   2.921  22.374  0.00  0.00    +0.000 HD
ENDBRANCH   1  16
BRANCH   3  19
ATOM     19  N   UNL     1       4.901   3.521  18.337  0.00  0.00    +0.000 N 
ATOM     20  H   UNL     1       5.228   2.558  18.361  0.00  0.00    +0.000 HD
BRANCH  19  21
ATOM     21  S   UNL     1       5.305   4.384  16.955  0.00  0.00    +0.000 S 
ATOM     22  O   UNL     1       6.056   3.473  16.119  0.00  0.00    +0.000 OA
ATOM     23  O   UNL     1       4.123   5.052  16.455  0.00  0.00    +0.000 OA
BRANCH  21  24
ATOM     24  C   UNL     1       6.451   5.602  17.550  0.00  0.00    +0.000 A 
ATOM     25  C   UNL     1       7.257   5.285  18.649  0.00  0.00    +0.000 A 
ATOM     26  C   UNL     1       8.150   6.232  19.146  0.00  0.00    +0.000 A 
ATOM     27  C   UNL     1       8.242   7.487  18.541  0.00  0.00    +0.000 A 
ATOM     28  C   UNL     1       7.453   7.793  17.429  0.00  0.00    +0.000 A 
ATOM     29  C   UNL     1       6.555   6.848  16.926  0.00  0.00    +0.000 A 
ENDBRANCH  21  24
ENDBRANCH  19  21
ENDBRANCH   3  19
TORSDOF 7
ENDMDL
MODEL 5
REMARK VINA RESULT:      -7.9      3.492      6.923
REMARK  Name = 
REMARK  7 active torsions:
REMARK  status: ('A' for Active; 'I' for Inactive)
REMARK    1  A    between atoms: N_1  and  C_2
REMARK    2  A    between atoms: C_4  and  N_5
REMARK    3  A    between atoms: N_5  and  S_6
REMARK    4  A    between atoms: S_6  and  C_9
REMARK    5  A    between atoms: C_16  and  N_17
REMARK    6  A    between atoms: C_19  and  C_20
REMARK    7  A    between atoms: C_20  and  O_22
REMARK                            x       y       z     vdW  Elec       q    Type
REMARK                         _______ _______ _______ _____ _____    ______ ____
ROOT
ATOM      1  C   UNL     1       2.723   3.266  18.447  0.00  0.00    +0.000 A 
ATOM      2  C   UNL     1       4.105   3.120  18.605  0.00  0.00    +0.000 A 
ATOM      3  C   UNL     1       4.909   4.231  18.867  0.00  0.00    +0.000 A 
ATOM      4  C   UNL     1       4.335   5.487  19.030  0.00  0.00    +0.000 A 
ATOM      5  C   UNL     1       2.943   5.633  18.956  0.00  0.00    +0.000 A 
ATOM      6  C   UNL     1       2.141   4.514  18.689  0.00  0.00    +0.000 A 
ENDROOT
BRANCH   5   7
ATOM      7  N   UNL     1       2.366   6.911  19.175  0.00  0.00    +0.000 N 
ATOM      8  C   UNL     1       2.243   7.955  18.276  0.00  0.00    +0.000 A 
ATOM      9  C   UNL     1       1.594   8.988  18.929  0.00  0.00    +0.000 A 
ATOM     10  C   UNL     1       1.398   8.485  20.230  0.00  0.00    +0.000 A 
ATOM     11  N   UNL     1       1.844   7.238  20.380  0.00  0.00    +0.000 NA
BRANCH   9  12
ATOM     12  C   UNL     1       1.193  10.292  18.445  0.00  0.00    +0.000 C 
ATOM     13  O   UNL     1       0.183  10.862  18.832  0.00  0.00    +0.000 OA
BRANCH  12  14
ATOM     14  O   UNL     1       2.008  10.850  17.514  0.00  0.00    +0.000 OA
ATOM     15  H   UNL     1       2.200  10.266  16.762  0.00  0.00    +0.000 HD
ENDBRANCH  12  14
ENDBRANCH   9  12
ENDBRANCH   5   7
BRANCH   1  16
ATOM     16  N   UNL     1       1.899   2.143  18.288  0.00  0.00    +0.000 N 
ATOM     17  H   UNL     1       0.919   2.379  18.147  0.00  0.00    +0.000 HD
ATOM     18  H   UNL     1       2.009   1.441  19.014  0.00  0.00    +0.000 HD
ENDBRANCH   1  16
BRANCH   3  19
ATOM     19  N   UNL     1       6.302   4.086  19.075  0.00  0.00    +0.000 N 
ATOM     20  H   UNL     1       6.656   3.273  19.574  0.00  0.00    +0.000 HD
BRANCH  19  21
ATOM     21  S   UNL     1       7.415   4.869  18.093  0.00  0.00    +0.000 S 
ATOM     22  O   UNL     1       7.501   6.226  18.587  0.00  0.00    +0.000 OA
ATOM     23  O   UNL     1       8.597   4.043  17.972  0.00  0.00    +0.000 OA
BRANCH  21  24
ATOM     24  C   UNL     1       6.597   4.942  16.520  0.00  0.00    +0.000 A 
ATOM     25  C   UNL     1       6.667   3.829  15.674  0.00  0.00    +0.000 A 
ATOM     26  C   UNL     1       6.049   3.871  14.426  0.00  0.00    +0.000 A 
ATOM     27  C   UNL     1       5.357   5.017  14.030  0.00  0.00    +0.000 A 
ATOM     28  C   UNL     1       5.268   6.118  14.885  0.00  0.00    +0.000 A 
ATOM     29  C   UNL     1       5.886   6.083  16.138  0.00  0.00    +0.000 A 
ENDBRANCH  21  24
ENDBRANCH  19  21
ENDBRANCH   3  19
TORSDOF 7
ENDMDL
MODEL 6
REMARK VINA RESULT:      -7.9      2.679      4.093
REMARK  Name = 
REMARK  7 active torsions:
REMARK  status: ('A' for Active; 'I' for Inactive)
REMARK    1  A    between atoms: N_1  and  C_2
REMARK    2  A    between atoms: C_4  and  N_5
REMARK    3  A    between atoms: N_5  and  S_6
REMARK    4  A    between atoms: S_6  and  C_9
REMARK    5  A    between atoms: C_16  and  N_17
REMARK    6  A    between atoms: C_19  and  C_20
REMARK    7  A    between atoms: C_20  and  O_22
REMARK                            x       y       z     vdW  Elec       q    Type
REMARK                         _______ _______ _______ _____ _____    ______ ____
ROOT
ATOM      1  C   UNL     1       2.615   7.922  18.163  0.00  0.00    +0.000 A 
ATOM      2  C   UNL     1       2.307   7.277  19.366  0.00  0.00    +0.000 A 
ATOM      3  C   UNL     1       2.936   6.079  19.708  0.00  0.00    +0.000 A 
ATOM      4  C   UNL     1       3.918   5.543  18.882  0.00  0.00    +0.000 A 
ATOM      5  C   UNL     1       4.294   6.222  17.715  0.00  0.00    +0.000 A 
ATOM      6  C   UNL     1       3.656   7.423  17.374  0.00  0.00    +0.000 A 
ENDROOT
BRANCH   5   7
ATOM      7  N   UNL     1       5.334   5.690  16.907  0.00  0.00    +0.000 N 
ATOM      8  C   UNL     1       5.405   5.652  15.527  0.00  0.00    +0.000 A 
ATOM      9  C   UNL     1       6.611   5.065  15.191  0.00  0.00    +0.000 A 
ATOM     10  C   UNL     1       7.184   4.750  16.439  0.00  0.00    +0.000 A 
ATOM     11  N   UNL     1       6.432   5.135  17.470  0.00  0.00    +0.000 NA
BRANCH   9  12
ATOM     12  C   UNL     1       7.193   4.806  13.891  0.00  0.00    +0.000 C 
ATOM     13  O   UNL     1       8.062   5.513  13.400  0.00  0.00    +0.000 OA
BRANCH  12  14
ATOM     14  O   UNL     1       6.705   3.725  13.232  0.00  0.00    +0.000 OA
ATOM     15  H   UNL     1       5.734   3.677  13.226  0.00  0.00    +0.000 HD
ENDBRANCH  12  14
ENDBRANCH   9  12
ENDBRANCH   5   7
BRANCH   1  16
ATOM     16  N   UNL     1       2.065   9.176  17.863  0.00  0.00    +0.000 N 
ATOM     17  H   UNL     1       1.971   9.345  16.864  0.00  0.00    +0.000 HD
ATOM     18  H   UNL     1       2.525   9.953  18.327  0.00  0.00    +0.000 HD
ENDBRANCH   1  16
BRANCH   3  19
ATOM     19  N   UNL     1       2.665   5.445  20.945  0.00  0.00    +0.000 N 
ATOM     20  H   UNL     1       2.690   5.986  21.806  0.00  0.00    +0.000 HD
BRANCH  19  21
ATOM     21  S   UNL     1       1.785   4.018  21.017  0.00  0.00    +0.000 S 
ATOM     22  O   UNL     1       2.035   3.458  22.326  0.00  0.00    +0.000 OA
ATOM     23  O   UNL     1       0.435   4.275  20.563  0.00  0.00    +0.000 OA
BRANCH  21  24
ATOM     24  C   UNL     1       2.601   2.970  19.841  0.00  0.00    +0.000 A 
ATOM     25  C   UNL     1       1.996   2.758  18.597  0.00  0.00    +0.000 A 
ATOM     26  C   UNL     1       2.609   1.923  17.665  0.00  0.00    +0.000 A 
ATOM     27  C   UNL     1       3.825   1.311  17.972  0.00  0.00    +0.000 A 
ATOM     28  C   UNL     1       4.439   1.541  19.205  0.00  0.00    +0.000 A 
ATOM     29  C   UNL     1       3.830   2.377  20.145  0.00  0.00    +0.000 A 
ENDBRANCH  21  24
ENDBRANCH  19  21
ENDBRANCH   3  19
TORSDOF 7
ENDMDL
MODEL 7
REMARK VINA RESULT:      -7.9      2.419      7.161
REMARK  Name = 
REMARK  7 active torsions:
REMARK  status: ('A' for Active; 'I' for Inactive)
REMARK    1  A    between atoms: N_1  and  C_2
REMARK    2  A    between atoms: C_4  and  N_5
REMARK    3  A    between atoms: N_5  and  S_6
REMARK    4  A    between atoms: S_6  and  C_9
REMARK    5  A    between atoms: C_16  and  N_17
REMARK    6  A    between atoms: C_19  and  C_20
REMARK    7  A    between atoms: C_20  and  O_22
REMARK                            x       y       z     vdW  Elec       q    Type
REMARK                         _______ _______ _______ _____ _____    ______ ____
ROOT
ATOM      1  C   UNL     1       7.504   5.771  18.746  0.00  0.00    +0.000 A 
ATOM      2  C   UNL     1       7.668   5.225  17.468  0.00  0.00    +0.000 A 
ATOM      3  C   UNL     1       6.666   4.436  16.902  0.00  0.00    +0.000 A 
ATOM      4  C   UNL     1       5.469   4.230  17.579  0.00  0.00    +0.000 A 
ATOM      5  C   UNL     1       5.259   4.840  18.824  0.00  0.00    +0.000 A 
ATOM      6  C   UNL     1       6.271   5.628  19.390  0.00  0.00    +0.000 A 
ENDROOT
BRANCH   5   7
ATOM      7  N   UNL     1       4.013   4.664  19.481  0.00  0.00    +0.000 N 
ATOM      8  C   UNL     1       3.372   3.478  19.789  0.00  0.00    +0.000 A 
ATOM      9  C   UNL     1       2.201   3.800  20.450  0.00  0.00    +0.000 A 
ATOM     10  C   UNL     1       2.206   5.209  20.463  0.00  0.00    +0.000 A 
ATOM     11  N   UNL     1       3.294   5.732  19.898  0.00  0.00    +0.000 NA
BRANCH   9  12
ATOM     12  C   UNL     1       1.179   2.941  21.010  0.00  0.00    +0.000 C 
ATOM     13  O   UNL     1       1.216   2.529  22.161  0.00  0.00    +0.000 OA
BRANCH  12  14
ATOM     14  O   UNL     1       0.168   2.605  20.170  0.00  0.00    +0.000 OA
ATOM     15  H   UNL     1      -0.048   1.658  20.178  0.00  0.00    +0.000 HD
ENDBRANCH  12  14
ENDBRANCH   9  12
ENDBRANCH   5   7
BRANCH   1  16
ATOM     16  N   UNL     1       8.459   6.648  19.277  0.00  0.00    +0.000 N 
ATOM     17  H   UNL     1       8.450   6.686  20.294  0.00  0.00    +0.000 HD
ATOM     18  H   UNL     1       8.439   7.579  18.872  0.00  0.00    +0.000 HD
ENDBRANCH   1  16
BRANCH   3  19
ATOM     19  N   UNL     1       6.804   3.919  15.590  0.00  0.00    +0.000 N 
ATOM     20  H   UNL     1       6.622   2.933  15.414  0.00  0.00    +0.000 HD
BRANCH  19  21
ATOM     21  S   UNL     1       6.712   4.920  14.246  0.00  0.00    +0.000 S 
ATOM     22  O   UNL     1       5.608   5.820  14.491  0.00  0.00    +0.000 OA
ATOM     23  O   UNL     1       8.035   5.426  13.946  0.00  0.00    +0.000 OA
BRANCH  21  24
ATOM     24  C   UNL     1       6.206   3.821  12.948  0.00  0.00    +0.000 A 
ATOM     25  C   UNL     1       4.854   3.786  12.588  0.00  0.00    +0.000 A 
ATOM     26  C   UNL     1       4.429   2.917  11.585  0.00  0.00    +0.000 A 
ATOM     27  C   UNL     1       5.354   2.095  10.939  0.00  0.00    +0.000 A 
ATOM     28  C   UNL     1       6.706   2.148  11.283  0.00  0.00    +0.000 A 
ATOM     29  C   UNL     1       7.139   3.017  12.289  0.00  0.00    +0.000 A 
ENDBRANCH  21  24
ENDBRANCH  19  21
ENDBRANCH   3  19
TORSDOF 7
ENDMDL
MODEL 8
REMARK VINA RESULT:      -7.8      3.157      7.863
REMARK  Name = 
REMARK  7 active torsions:
REMARK  status: ('A' for Active; 'I' for Inactive)
REMARK    1  A    between atoms: N_1  and  C_2
REMARK    2  A    between atoms: C_4  and  N_5
REMARK    3  A    between atoms: N_5  and  S_6
REMARK    4  A    between atoms: S_6  and  C_9
REMARK    5  A    between atoms: C_16  and  N_17
REMARK    6  A    between atoms: C_19  and  C_20
REMARK    7  A    between atoms: C_20  and  O_22
REMARK                            x       y       z     vdW  Elec       q    Type
REMARK                         _______ _______ _______ _____ _____    ______ ____
ROOT
ATOM      1  C   UNL     1       2.620   2.857  18.307  0.00  0.00    +0.000 A 
ATOM      2  C   UNL     1       3.847   2.889  17.634  0.00  0.00    +0.000 A 
ATOM      3  C   UNL     1       4.520   4.098  17.447  0.00  0.00    +0.000 A 
ATOM      4  C   UNL     1       4.006   5.275  17.979  0.00  0.00    +0.000 A 
ATOM      5  C   UNL     1       2.821   5.243  18.726  0.00  0.00    +0.000 A 
ATOM      6  C   UNL     1       2.146   4.028  18.906  0.00  0.00    +0.000 A 
ENDROOT
BRANCH   5   7
ATOM      7  N   UNL     1       2.334   6.444  19.306  0.00  0.00    +0.000 N 
ATOM      8  C   UNL     1       1.850   6.636  20.588  0.00  0.00    +0.000 A 
ATOM      9  C   UNL     1       1.516   7.972  20.708  0.00  0.00    +0.000 A 
ATOM     10  C   UNL     1       1.801   8.500  19.433  0.00  0.00    +0.000 A 
ATOM     11  N   UNL     1       2.304   7.595  18.595  0.00  0.00    +0.000 NA
BRANCH   9  12
ATOM     12  C   UNL     1       0.992   8.705  21.841  0.00  0.00    +0.000 C 
ATOM     13  O   UNL     1      -0.205   8.851  22.042  0.00  0.00    +0.000 OA
BRANCH  12  14
ATOM     14  O   UNL     1       1.919   9.240  22.675  0.00  0.00    +0.000 OA
ATOM     15  H   UNL     1       1.539   9.785  23.384  0.00  0.00    +0.000 HD
ENDBRANCH  12  14
ENDBRANCH   9  12
ENDBRANCH   5   7
BRANCH   1  16
ATOM     16  N   UNL     1       1.991   1.637  18.588  0.00  0.00    +0.000 N 
ATOM     17  H   UNL     1       1.370   1.680  19.393  0.00  0.00    +0.000 HD
ATOM     18  H   UNL     1       2.627   0.847  18.654  0.00  0.00    +0.000 HD
ENDBRANCH   1  16
BRANCH   3  19
ATOM     19  N   UNL     1       5.784   4.133  16.810  0.00  0.00    +0.000 N 
ATOM     20  H   UNL     1       6.270   3.263  16.603  0.00  0.00    +0.000 HD
BRANCH  19  21
ATOM     21  S   UNL     1       6.262   5.458  15.898  0.00  0.00    +0.000 S 
ATOM     22  O   UNL     1       5.112   6.332  15.827  0.00  0.00    +0.000 OA
ATOM     23  O   UNL     1       7.533   5.938  16.396  0.00  0.00    +0.000 OA
BRANCH  21  24
ATOM     24  C   UNL     1       6.496   4.779  14.275  0.00  0.00    +0.000 A 
ATOM     25  C   UNL     1       7.560   5.250  13.497  0.00  0.00    +0.000 A 
ATOM     26  C   UNL     1       7.751   4.746  12.212  0.00  0.00    +0.000 A 
ATOM     27  C   UNL     1       6.889   3.769  11.712  0.00  0.00    +0.000 A 
ATOM     28  C   UNL     1       5.841   3.284  12.498  0.00  0.00    +0.000 A 
ATOM     29  C   UNL     1       5.643   3.785  13.787  0.00  0.00    +0.000 A 
ENDBRANCH  21  24
ENDBRANCH  19  21
ENDBRANCH   3  19
TORSDOF 7
ENDMDL
MODEL 9
REMARK VINA RESULT:      -7.8      3.464      7.474
REMARK  Name = 
REMARK  7 active torsions:
REMARK  status: ('A' for Active; 'I' for Inactive)
REMARK    1  A    between atoms: N_1  and  C_2
REMARK    2  A    between atoms: C_4  and  N_5
REMARK    3  A    between atoms: N_5  and  S_6
REMARK    4  A    between atoms: S_6  and  C_9
REMARK    5  A    between atoms: C_16  and  N_17
REMARK    6  A    between atoms: C_19  and  C_20
REMARK    7  A    between atoms: C_20  and  O_22
REMARK                            x       y       z     vdW  Elec       q    Type
REMARK                         _______ _______ _______ _____ _____    ______ ____
ROOT
ATOM      1  C   UNL     1       2.842   3.537  18.294  0.00  0.00    +0.000 A 
ATOM      2  C   UNL     1       4.223   3.430  18.491  0.00  0.00    +0.000 A 
ATOM      3  C   UNL     1       4.954   4.515  18.980  0.00  0.00    +0.000 A 
ATOM      4  C   UNL     1       4.306   5.694  19.331  0.00  0.00    +0.000 A 
ATOM      5  C   UNL     1       2.913   5.785  19.217  0.00  0.00    +0.000 A 
ATOM      6  C   UNL     1       2.184   4.694  18.721  0.00  0.00    +0.000 A 
ENDROOT
BRANCH   5   7
ATOM      7  N   UNL     1       2.259   6.976  19.626  0.00  0.00    +0.000 N 
ATOM      8  C   UNL     1       1.674   7.250  20.850  0.00  0.00    +0.000 A 
ATOM      9  C   UNL     1       1.186   8.543  20.795  0.00  0.00    +0.000 A 
ATOM     10  C   UNL     1       1.495   8.957  19.484  0.00  0.00    +0.000 A 
ATOM     11  N   UNL     1       2.149   8.031  18.785  0.00  0.00    +0.000 NA
BRANCH   9  12
ATOM     12  C   UNL     1       0.512   9.329  21.806  0.00  0.00    +0.000 C 
ATOM     13  O   UNL     1       0.943  10.399  22.213  0.00  0.00    +0.000 OA
BRANCH  12  14
ATOM     14  O   UNL     1      -0.639   8.799  22.293  0.00  0.00    +0.000 OA
ATOM     15  H   UNL     1      -1.266   8.527  21.603  0.00  0.00    +0.000 HD
ENDBRANCH  12  14
ENDBRANCH   9  12
ENDBRANCH   5   7
BRANCH   1  16
ATOM     16  N   UNL     1       2.088   2.422  17.903  0.00  0.00    +0.000 N 
ATOM     17  H   UNL     1       2.641   1.705  17.438  0.00  0.00    +0.000 HD
ATOM     18  H   UNL     1       1.255   2.650  17.369  0.00  0.00    +0.000 HD
ENDBRANCH   1  16
BRANCH   3  19
ATOM     19  N   UNL     1       6.344   4.401  19.227  0.00  0.00    +0.000 N 
ATOM     20  H   UNL     1       6.689   3.668  19.843  0.00  0.00    +0.000 HD
BRANCH  19  21
ATOM     21  S   UNL     1       7.472   5.032  18.157  0.00  0.00    +0.000 S 
ATOM     22  O   UNL     1       7.649   6.418  18.532  0.00  0.00    +0.000 OA
ATOM     23  O   UNL     1       8.602   4.132  18.080  0.00  0.00    +0.000 OA
BRANCH  21  24
ATOM     24  C   UNL     1       6.617   5.022  16.602  0.00  0.00    +0.000 A 
ATOM     25  C   UNL     1       6.741   3.900  15.776  0.00  0.00    +0.000 A 
ATOM     26  C   UNL     1       6.094   3.877  14.542  0.00  0.00    +0.000 A 
ATOM     27  C   UNL     1       5.321   4.968  14.140  0.00  0.00    +0.000 A 
ATOM     28  C   UNL     1       5.181   6.078  14.977  0.00  0.00    +0.000 A 
ATOM     29  C   UNL     1       5.826   6.108  16.216  0.00  0.00    +0.000 A 
ENDBRANCH  21  24
ENDBRANCH  19  21
ENDBRANCH   3  19
TORSDOF 7
ENDMDL
