MODEL 1
REMARK VINA RESULT:      -8.0      0.000      0.000
REMARK  Name = 
REMARK  5 active torsions:
REMARK  status: ('A' for Active; 'I' for Inactive)
REMARK    1  A    between atoms: C_1  and  C_2
REMARK    2  A    between atoms: C_2  and  C_3
REMARK    3  A    between atoms: C_3  and  C_4
REMARK    4  A    between atoms: C_3  and  C_10
REMARK    5  A    between atoms: C_11  and  O_12
REMARK                            x       y       z     vdW  Elec       q    Type
REMARK                         _______ _______ _______ _____ _____    ______ ____
ROOT
ATOM      1  C   UNL     1       4.945   5.816  17.795  0.00  0.00    +0.000 A 
ATOM      2  C   UNL     1       4.970   4.659  18.490  0.00  0.00    +0.000 A 
ATOM      3  C   UNL     1       3.878   4.258  19.360  0.00  0.00    +0.000 A 
ATOM      4  C   UNL     1       2.794   5.040  19.439  0.00  0.00    +0.000 A 
ATOM      5  O   UNL     1       2.736   6.279  18.768  0.00  0.00    +0.000 OA
ATOM      6  C   UNL     1       3.774   6.724  18.002  0.00  0.00    +0.000 A 
ATOM      7  O   UNL     1       3.731   7.839  17.492  0.00  0.00    +0.000 OA
ATOM      8  C   UNL     1       1.537   4.690  20.190  0.00  0.00    +0.000 C 
ATOM      9  C   UNL     1       0.835   3.441  19.642  0.00  0.00    +0.000 C 
ATOM     10  C   UNL     1       1.508   2.108  19.985  0.00  0.00    +0.000 C 
ATOM     11  C   UNL     1       2.936   1.932  19.468  0.00  0.00    +0.000 C 
ATOM     12  C   UNL     1       3.922   2.930  20.079  0.00  0.00    +0.000 C 
ENDROOT
BRANCH   2  13
ATOM     13  O   UNL     1       5.982   3.730  18.417  0.00  0.00    +0.000 OA
ATOM     14  H   UNL     1       6.078   3.260  19.261  0.00  0.00    +0.000 HD
ENDBRANCH   2  13
BRANCH   1  15
ATOM     15  C   UNL     1       5.967   6.328  16.771  0.00  0.00    +0.000 C 
BRANCH  15  16
ATOM     16  C   UNL     1       6.080   5.463  15.494  0.00  0.00    +0.000 A 
ATOM     17  C   UNL     1       5.047   4.610  15.057  0.00  0.00    +0.000 A 
ATOM     18  C   UNL     1       5.187   3.821  13.913  0.00  0.00    +0.000 A 
ATOM     19  C   UNL     1       6.361   3.868  13.172  0.00  0.00    +0.000 A 
ATOM     20  C   UNL     1       7.401   4.701  13.583  0.00  0.00    +0.000 A 
ATOM     21  C   UNL     1       7.265   5.484  14.737  0.00  0.00    +0.000 A 
ENDBRANCH  15  16
BRANCH  15  23
ATOM     22  C   UNL     1       7.722   8.088  17.590  0.00  0.00    +0.000 C 
ATOM     23  C   UNL     1       7.350   6.624  17.416  0.00  0.00    +0.000 C 
ENDBRANCH  15  23
ENDBRANCH   1  15
TORSDOF 4
ENDMDL
MODEL 2
REMARK VINA RESULT:      -8.0      0.074      1.028
REMARK  Name = 
REMARK  5 active torsions:
REMARK  status: ('A' for Active; 'I' for Inactive)
REMARK    1  A    between atoms: C_1  and  C_2
REMARK    2  A    between atoms: C_2  and  C_3
REMARK    3  A    between atoms: C_3  and  C_4
REMARK    4  A    between atoms: C_3  and  C_10
REMARK    5  A    between atoms: C_11  and  O_12
REMARK                            x       y       z     vdW  Elec       q    Type
REMARK                         _______ _______ _______ _____ _____    ______ ____
ROOT
ATOM      1  C   UNL     1       4.937   5.805  17.845  0.00  0.00    +0.000 A 
ATOM      2  C   UNL     1       4.955   4.644  18.532  0.00  0.00    +0.000 A 
ATOM      3  C   UNL     1       3.844   4.228  19.371  0.00  0.00    +0.000 A 
ATOM      4  C   UNL     1       2.752   5.000  19.427  0.00  0.00    +0.000 A 
ATOM      5  O   UNL     1       2.700   6.242  18.762  0.00  0.00    +0.000 OA
ATOM      6  C   UNL     1       3.754   6.702  18.026  0.00  0.00    +0.000 A 
ATOM      7  O   UNL     1       3.714   7.820  17.522  0.00  0.00    +0.000 OA
ATOM      8  C   UNL     1       1.479   4.633  20.143  0.00  0.00    +0.000 C 
ATOM      9  C   UNL     1       0.803   3.382  19.569  0.00  0.00    +0.000 C 
ATOM     10  C   UNL     1       1.478   2.053  19.921  0.00  0.00    +0.000 C 
ATOM     11  C   UNL     1       2.921   1.893  19.441  0.00  0.00    +0.000 C 
ATOM     12  C   UNL     1       3.882   2.895  20.083  0.00  0.00    +0.000 C 
ENDROOT
BRANCH   2  13
ATOM     13  O   UNL     1       5.977   3.724  18.480  0.00  0.00    +0.000 OA
ATOM     14  H   UNL     1       6.714   3.999  19.050  0.00  0.00    +0.000 HD
ENDBRANCH   2  13
BRANCH   1  15
ATOM     15  C   UNL     1       5.981   6.333  16.851  0.00  0.00    +0.000 C 
BRANCH  15  16
ATOM     16  C   UNL     1       6.143   5.472  15.576  0.00  0.00    +0.000 A 
ATOM     17  C   UNL     1       7.320   5.471  14.800  0.00  0.00    +0.000 A 
ATOM     18  C   UNL     1       7.427   4.701  13.640  0.00  0.00    +0.000 A 
ATOM     19  C   UNL     1       6.364   3.908  13.227  0.00  0.00    +0.000 A 
ATOM     20  C   UNL     1       5.187   3.893  13.973  0.00  0.00    +0.000 A 
ATOM     21  C   UNL     1       5.074   4.673  15.131  0.00  0.00    +0.000 A 
ENDBRANCH  15  16
BRANCH  15  23
ATOM     22  C   UNL     1       7.755   8.110  17.588  0.00  0.00    +0.000 C 
ATOM     23  C   UNL     1       7.341   6.648  17.535  0.00  0.00    +0.000 C 
ENDBRANCH  15  23
ENDBRANCH   1  15
TORSDOF 4
ENDMDL
MODEL 3
REMARK VINA RESULT:      -7.7      2.209      6.169
REMARK  Name = 
REMARK  5 active torsions:
REMARK  status: ('A' for Active; 'I' for Inactive)
REMARK    1  A    between atoms: C_1  and  C_2
REMARK    2  A    between atoms: C_2  and  C_3
REMARK    3  A    between atoms: C_3  and  C_4
REMARK    4  A    between atoms: C_3  and  C_10
REMARK    5  A    between atoms: C_11  and  O_12
REMARK                            x       y       z     vdW  Elec       q    Type
REMARK                         _______ _______ _______ _____ _____    ______ ____
ROOT
ATOM      1  C   UNL     1       3.126   4.643  18.814  0.00  0.00    +0.000 A 
ATOM      2  C   UNL     1       4.456   4.870  18.848  0.00  0.00    +0.000 A 
ATOM      3  C   UNL     1       5.342   4.424  17.787  0.00  0.00    +0.000 A 
ATOM      4  C   UNL     1       4.815   3.808  16.722  0.00  0.00    +0.000 A 
ATOM      5  O   UNL     1       3.438   3.510  16.657  0.00  0.00    +0.000 OA
ATOM      6  C   UNL     1       2.587   3.846  17.669  0.00  0.00    +0.000 A 
ATOM      7  O   UNL     1       1.409   3.506  17.624  0.00  0.00    +0.000 OA
ATOM      8  C   UNL     1       5.587   3.413  15.490  0.00  0.00    +0.000 C 
ATOM      9  C   UNL     1       6.189   4.611  14.745  0.00  0.00    +0.000 C 
ATOM     10  C   UNL     1       7.415   5.246  15.409  0.00  0.00    +0.000 C 
ATOM     11  C   UNL     1       7.192   5.813  16.811  0.00  0.00    +0.000 C 
ATOM     12  C   UNL     1       6.818   4.744  17.839  0.00  0.00    +0.000 C 
ENDROOT
BRANCH   2  13
ATOM     13  O   UNL     1       5.100   5.572  19.841  0.00  0.00    +0.000 OA
ATOM     14  H   UNL     1       4.570   6.337  20.119  0.00  0.00    +0.000 HD
ENDBRANCH   2  13
BRANCH   1  15
ATOM     15  C   UNL     1       2.056   5.131  19.802  0.00  0.00    +0.000 C 
BRANCH  15  16
ATOM     16  C   UNL     1       1.823   6.660  19.787  0.00  0.00    +0.000 A 
ATOM     17  C   UNL     1       1.349   7.370  20.909  0.00  0.00    +0.000 A 
ATOM     18  C   UNL     1       1.124   8.747  20.858  0.00  0.00    +0.000 A 
ATOM     19  C   UNL     1       1.372   9.452  19.688  0.00  0.00    +0.000 A 
ATOM     20  C   UNL     1       1.838   8.775  18.562  0.00  0.00    +0.000 A 
ATOM     21  C   UNL     1       2.053   7.392  18.609  0.00  0.00    +0.000 A 
ENDBRANCH  15  16
BRANCH  15  23
ATOM     22  C   UNL     1       1.849   3.138  21.484  0.00  0.00    +0.000 C 
ATOM     23  C   UNL     1       2.280   4.574  21.236  0.00  0.00    +0.000 C 
ENDBRANCH  15  23
ENDBRANCH   1  15
TORSDOF 4
ENDMDL
MODEL 4
REMARK VINA RESULT:      -7.6      2.197      6.227
REMARK  Name = 
REMARK  5 active torsions:
REMARK  status: ('A' for Active; 'I' for Inactive)
REMARK    1  A    between atoms: C_1  and  C_2
REMARK    2  A    between atoms: C_2  and  C_3
REMARK    3  A    between atoms: C_3  and  C_4
REMARK    4  A    between atoms: C_3  and  C_10
REMARK    5  A    between atoms: C_11  and  O_12
REMARK                            x       y       z     vdW  Elec       q    Type
REMARK                         _______ _______ _______ _____ _____    ______ ____
ROOT
ATOM      1  C   UNL     1       3.150   4.606  18.792  0.00  0.00    +0.000 A 
ATOM      2  C   UNL     1       4.477   4.850  18.827  0.00  0.00    +0.000 A 
ATOM      3  C   UNL     1       5.368   4.423  17.763  0.00  0.00    +0.000 A 
ATOM      4  C   UNL     1       4.849   3.806  16.694  0.00  0.00    +0.000 A 
ATOM      5  O   UNL     1       3.476   3.490  16.628  0.00  0.00    +0.000 OA
ATOM      6  C   UNL     1       2.621   3.809  17.643  0.00  0.00    +0.000 A 
ATOM      7  O   UNL     1       1.448   3.453  17.596  0.00  0.00    +0.000 OA
ATOM      8  C   UNL     1       5.626   3.428  15.461  0.00  0.00    +0.000 C 
ATOM      9  C   UNL     1       6.211   4.638  14.722  0.00  0.00    +0.000 C 
ATOM     10  C   UNL     1       7.430   5.286  15.389  0.00  0.00    +0.000 C 
ATOM     11  C   UNL     1       7.199   5.842  16.795  0.00  0.00    +0.000 C 
ATOM     12  C   UNL     1       6.840   4.762  17.816  0.00  0.00    +0.000 C 
ENDROOT
BRANCH   2  13
ATOM     13  O   UNL     1       5.112   5.556  19.824  0.00  0.00    +0.000 OA
ATOM     14  H   UNL     1       5.956   5.136  20.056  0.00  0.00    +0.000 HD
ENDBRANCH   2  13
BRANCH   1  15
ATOM     15  C   UNL     1       2.074   5.074  19.783  0.00  0.00    +0.000 C 
BRANCH  15  16
ATOM     16  C   UNL     1       1.811   6.598  19.767  0.00  0.00    +0.000 A 
ATOM     17  C   UNL     1       2.060   7.403  18.638  0.00  0.00    +0.000 A 
ATOM     18  C   UNL     1       1.836   8.781  18.662  0.00  0.00    +0.000 A 
ATOM     19  C   UNL     1       1.354   9.391  19.812  0.00  0.00    +0.000 A 
ATOM     20  C   UNL     1       1.102   8.619  20.946  0.00  0.00    +0.000 A 
ATOM     21  C   UNL     1       1.336   7.239  20.926  0.00  0.00    +0.000 A 
ENDBRANCH  15  16
BRANCH  15  23
ATOM     22  C   UNL     1       1.795   3.124  21.505  0.00  0.00    +0.000 C 
ATOM     23  C   UNL     1       2.314   4.524  21.217  0.00  0.00    +0.000 C 
ENDBRANCH  15  23
ENDBRANCH   1  15
TORSDOF 4
ENDMDL
MODEL 5
REMARK VINA RESULT:      -7.3      4.584      6.907
REMARK  Name = 
REMARK  5 active torsions:
REMARK  status: ('A' for Active; 'I' for Inactive)
REMARK    1  A    between atoms: C_1  and  C_2
REMARK    2  A    between atoms: C_2  and  C_3
REMARK    3  A    between atoms: C_3  and  C_4
REMARK    4  A    between atoms: C_3  and  C_10
REMARK    5  A    between atoms: C_11  and  O_12
REMARK                            x       y       z     vdW  Elec       q    Type
REMARK                         _______ _______ _______ _____ _____    ______ ____
ROOT
ATOM      1  C   UNL     1       1.481   9.057  19.457  0.00  0.00    +0.000 A 
ATOM      2  C   UNL     1       2.042   8.139  18.642  0.00  0.00    +0.000 A 
ATOM      3  C   UNL     1       2.300   6.777  19.076  0.00  0.00    +0.000 A 
ATOM      4  C   UNL     1       1.929   6.411  20.308  0.00  0.00    +0.000 A 
ATOM      5  O   UNL     1       1.378   7.341  21.213  0.00  0.00    +0.000 OA
ATOM      6  C   UNL     1       1.191   8.648  20.867  0.00  0.00    +0.000 A 
ATOM      7  O   UNL     1       0.784   9.455  21.697  0.00  0.00    +0.000 OA
ATOM      8  C   UNL     1       2.009   5.006  20.846  0.00  0.00    +0.000 C 
ATOM      9  C   UNL     1       1.130   4.014  20.074  0.00  0.00    +0.000 C 
ATOM     10  C   UNL     1       1.659   3.603  18.697  0.00  0.00    +0.000 C 
ATOM     11  C   UNL     1       1.833   4.738  17.687  0.00  0.00    +0.000 C 
ATOM     12  C   UNL     1       2.882   5.766  18.115  0.00  0.00    +0.000 C 
ENDROOT
BRANCH   2  13
ATOM     13  O   UNL     1       2.379   8.369  17.327  0.00  0.00    +0.000 OA
ATOM     14  H   UNL     1       3.210   8.867  17.269  0.00  0.00    +0.000 HD
ENDBRANCH   2  13
BRANCH   1  15
ATOM     15  C   UNL     1       1.061  10.494  19.119  0.00  0.00    +0.000 C 
BRANCH  15  16
ATOM     16  C   UNL     1      -0.402  10.635  18.637  0.00  0.00    +0.000 A 
ATOM     17  C   UNL     1      -0.930   9.878  17.571  0.00  0.00    +0.000 A 
ATOM     18  C   UNL     1      -2.247  10.046  17.141  0.00  0.00    +0.000 A 
ATOM     19  C   UNL     1      -3.075  10.969  17.767  0.00  0.00    +0.000 A 
ATOM     20  C   UNL     1      -2.578  11.734  18.821  0.00  0.00    +0.000 A 
ATOM     21  C   UNL     1      -1.253  11.575  19.246  0.00  0.00    +0.000 A 
ENDBRANCH  15  16
BRANCH  15  23
ATOM     22  C   UNL     1       2.209  12.704  18.315  0.00  0.00    +0.000 C 
ATOM     23  C   UNL     1       2.073  11.197  18.171  0.00  0.00    +0.000 C 
ENDBRANCH  15  23
ENDBRANCH   1  15
TORSDOF 4
ENDMDL
MODEL 6
REMARK VINA RESULT:      -7.3      4.573      6.891
REMARK  Name = 
REMARK  5 active torsions:
REMARK  status: ('A' for Active; 'I' for Inactive)
REMARK    1  A    between atoms: C_1  and  C_2
REMARK    2  A    between atoms: C_2  and  C_3
REMARK    3  A    between atoms: C_3  and  C_4
REMARK    4  A    between atoms: C_3  and  C_10
REMARK    5  A    between atoms: C_11  and  O_12
REMARK                            x       y       z     vdW  Elec       q    Type
REMARK                         _______ _______ _______ _____ _____    ______ ____
ROOT
ATOM      1  C   UNL     1       1.489   9.084  19.445  0.00  0.00    +0.000 A 
ATOM      2  C   UNL     1       2.052   8.165  18.633  0.00  0.00    +0.000 A 
ATOM      3  C   UNL     1       2.305   6.803  19.069  0.00  0.00    +0.000 A 
ATOM      4  C   UNL     1       1.928   6.438  20.300  0.00  0.00    +0.000 A 
ATOM      5  O   UNL     1       1.375   7.371  21.202  0.00  0.00    +0.000 OA
ATOM      6  C   UNL     1       1.191   8.677  20.853  0.00  0.00    +0.000 A 
ATOM      7  O   UNL     1       0.782   9.485  21.680  0.00  0.00    +0.000 OA
ATOM      8  C   UNL     1       2.004   5.034  20.840  0.00  0.00    +0.000 C 
ATOM      9  C   UNL     1       1.126   4.042  20.065  0.00  0.00    +0.000 C 
ATOM     10  C   UNL     1       1.662   3.629  18.690  0.00  0.00    +0.000 C 
ATOM     11  C   UNL     1       1.842   4.763  17.680  0.00  0.00    +0.000 C 
ATOM     12  C   UNL     1       2.890   5.790  18.112  0.00  0.00    +0.000 C 
ENDROOT
BRANCH   2  13
ATOM     13  O   UNL     1       2.395   8.393  17.319  0.00  0.00    +0.000 OA
ATOM     14  H   UNL     1       2.743   9.292  17.208  0.00  0.00    +0.000 HD
ENDBRANCH   2  13
BRANCH   1  15
ATOM     15  C   UNL     1       1.072  10.522  19.103  0.00  0.00    +0.000 C 
BRANCH  15  16
ATOM     16  C   UNL     1      -0.390  10.665  18.619  0.00  0.00    +0.000 A 
ATOM     17  C   UNL     1      -1.303  11.564  19.206  0.00  0.00    +0.000 A 
ATOM     18  C   UNL     1      -2.624  11.653  18.764  0.00  0.00    +0.000 A 
ATOM     19  C   UNL     1      -3.068  10.851  17.720  0.00  0.00    +0.000 A 
ATOM     20  C   UNL     1      -2.187   9.950  17.124  0.00  0.00    +0.000 A 
ATOM     21  C   UNL     1      -0.864   9.852  17.573  0.00  0.00    +0.000 A 
ENDBRANCH  15  16
BRANCH  15  23
ATOM     22  C   UNL     1       2.228  12.727  18.297  0.00  0.00    +0.000 C 
ATOM     23  C   UNL     1       2.087  11.220  18.154  0.00  0.00    +0.000 C 
ENDBRANCH  15  23
ENDBRANCH   1  15
TORSDOF 4
ENDMDL
MODEL 7
REMARK VINA RESULT:      -6.8      2.900      4.948
REMARK  Name = 
REMARK  5 active torsions:
REMARK  status: ('A' for Active; 'I' for Inactive)
REMARK    1  A    between atoms: C_1  and  C_2
REMARK    2  A    between atoms: C_2  and  C_3
REMARK    3  A    between atoms: C_3  and  C_4
REMARK    4  A    between atoms: C_3  and  C_10
REMARK    5  A    between atoms: C_11  and  O_12
REMARK                            x       y       z     vdW  Elec       q    Type
REMARK                         _______ _______ _______ _____ _____    ______ ____
ROOT
ATOM      1  C   UNL     1       2.852   6.363  18.951  0.00  0.00    +0.000 A 
ATOM      2  C   UNL     1       2.300   6.778  20.111  0.00  0.00    +0.000 A 
ATOM      3  C   UNL     1       1.786   8.125  20.281  0.00  0.00    +0.000 A 
ATOM      4  C   UNL     1       1.821   8.967  19.241  0.00  0.00    +0.000 A 
ATOM      5  O   UNL     1       2.425   8.597  18.022  0.00  0.00    +0.000 OA
ATOM      6  C   UNL     1       2.986   7.365  17.849  0.00  0.00    +0.000 A 
ATOM      7  O   UNL     1       3.574   7.096  16.806  0.00  0.00    +0.000 OA
ATOM      8  C   UNL     1       1.207  10.342  19.230  0.00  0.00    +0.000 C 
ATOM      9  C   UNL     1      -0.316  10.324  19.414  0.00  0.00    +0.000 C 
ATOM     10  C   UNL     1      -0.800  10.032  20.838  0.00  0.00    +0.000 C 
ATOM     11  C   UNL     1      -0.385   8.678  21.416  0.00  0.00    +0.000 C 
ATOM     12  C   UNL     1       1.129   8.533  21.580  0.00  0.00    +0.000 C 
ENDROOT
BRANCH   2  13
ATOM     13  O   UNL     1       2.122   5.978  21.217  0.00  0.00    +0.000 OA
ATOM     14  H   UNL     1       2.208   5.041  20.979  0.00  0.00    +0.000 HD
ENDBRANCH   2  13
BRANCH   1  15
ATOM     15  C   UNL     1       3.347   4.956  18.587  0.00  0.00    +0.000 C 
BRANCH  15  16
ATOM     16  C   UNL     1       4.827   4.896  18.139  0.00  0.00    +0.000 A 
ATOM     17  C   UNL     1       5.230   4.338  16.909  0.00  0.00    +0.000 A 
ATOM     18  C   UNL     1       6.576   4.275  16.544  0.00  0.00    +0.000 A 
ATOM     19  C   UNL     1       7.555   4.772  17.394  0.00  0.00    +0.000 A 
ATOM     20  C   UNL     1       7.185   5.325  18.619  0.00  0.00    +0.000 A 
ATOM     21  C   UNL     1       5.837   5.379  18.991  0.00  0.00    +0.000 A 
ENDBRANCH  15  16
BRANCH  15  23
ATOM     22  C   UNL     1       1.424   3.227  18.192  0.00  0.00    +0.000 C 
ATOM     23  C   UNL     1       2.394   4.234  17.594  0.00  0.00    +0.000 C 
ENDBRANCH  15  23
ENDBRANCH   1  15
TORSDOF 4
ENDMDL
MODEL 8
REMARK VINA RESULT:      -6.8      2.891      4.976
REMARK  Name = 
REMARK  5 active torsions:
REMARK  status: ('A' for Active; 'I' for Inactive)
REMARK    1  A    between atoms: C_1  and  C_2
REMARK    2  A    between atoms: C_2  and  C_3
REMARK    3  A    between atoms: C_3  and  C_4
REMARK    4  A    between atoms: C_3  and  C_10
REMARK    5  A    between atoms: C_11  and  O_12
REMARK                            x       y       z     vdW  Elec       q    Type
REMARK                         _______ _______ _______ _____ _____    ______ ____
ROOT
ATOM      1  C   UNL     1       2.864   6.345  18.957  0.00  0.00    +0.000 A 
ATOM      2  C   UNL     1       2.302   6.771  20.108  0.00  0.00    +0.000 A 
ATOM      3  C   UNL     1       1.792   8.122  20.263  0.00  0.00    +0.000 A 
ATOM      4  C   UNL     1       1.842   8.956  19.217  0.00  0.00    +0.000 A 
ATOM      5  O   UNL     1       2.456   8.574  18.007  0.00  0.00    +0.000 OA
ATOM      6  C   UNL     1       3.014   7.338  17.849  0.00  0.00    +0.000 A 
ATOM      7  O   UNL     1       3.611   7.058  16.815  0.00  0.00    +0.000 OA
ATOM      8  C   UNL     1       1.234  10.334  19.189  0.00  0.00    +0.000 C 
ATOM      9  C   UNL     1      -0.291  10.324  19.357  0.00  0.00    +0.000 C 
ATOM     10  C   UNL     1      -0.790  10.045  20.779  0.00  0.00    +0.000 C 
ATOM     11  C   UNL     1      -0.388   8.694  21.371  0.00  0.00    +0.000 C 
ATOM     12  C   UNL     1       1.124   8.544  21.552  0.00  0.00    +0.000 C 
ENDROOT
BRANCH   2  13
ATOM     13  O   UNL     1       2.109   5.981  21.219  0.00  0.00    +0.000 OA
ATOM     14  H   UNL     1       2.478   6.407  22.009  0.00  0.00    +0.000 HD
ENDBRANCH   2  13
BRANCH   1  15
ATOM     15  C   UNL     1       3.356   4.933  18.610  0.00  0.00    +0.000 C 
BRANCH  15  16
ATOM     16  C   UNL     1       4.843   4.861  18.189  0.00  0.00    +0.000 A 
ATOM     17  C   UNL     1       5.887   5.365  18.991  0.00  0.00    +0.000 A 
ATOM     18  C   UNL     1       7.219   5.309  18.573  0.00  0.00    +0.000 A 
ATOM     19  C   UNL     1       7.543   4.743  17.347  0.00  0.00    +0.000 A 
ATOM     20  C   UNL     1       6.530   4.240  16.532  0.00  0.00    +0.000 A 
ATOM     21  C   UNL     1       5.193   4.306  16.945  0.00  0.00    +0.000 A 
ENDBRANCH  15  16
BRANCH  15  23
ATOM     22  C   UNL     1       1.434   3.209  18.188  0.00  0.00    +0.000 C 
ATOM     23  C   UNL     1       2.416   4.212  17.604  0.00  0.00    +0.000 C 
ENDBRANCH  15  23
ENDBRANCH   1  15
TORSDOF 4
ENDMDL
MODEL 9
REMARK VINA RESULT:      -6.8      3.066      5.570
REMARK  Name = 
REMARK  5 active torsions:
REMARK  status: ('A' for Active; 'I' for Inactive)
REMARK    1  A    between atoms: C_1  and  C_2
REMARK    2  A    between atoms: C_2  and  C_3
REMARK    3  A    between atoms: C_3  and  C_4
REMARK    4  A    between atoms: C_3  and  C_10
REMARK    5  A    between atoms: C_11  and  O_12
REMARK                            x       y       z     vdW  Elec       q    Type
REMARK                         _______ _______ _______ _____ _____    ______ ____
ROOT
ATOM      1  C   UNL     1       2.702   6.605  19.010  0.00  0.00    +0.000 A 
ATOM      2  C   UNL     1       2.385   7.697  18.283  0.00  0.00    +0.000 A 
ATOM      3  C   UNL     1       1.538   8.754  18.807  0.00  0.00    +0.000 A 
ATOM      4  C   UNL     1       1.094   8.660  20.067  0.00  0.00    +0.000 A 
ATOM      5  O   UNL     1       1.360   7.521  20.853  0.00  0.00    +0.000 OA
ATOM      6  C   UNL     1       2.090   6.474  20.368  0.00  0.00    +0.000 A 
ATOM      7  O   UNL     1       2.241   5.461  21.044  0.00  0.00    +0.000 OA
ATOM      8  C   UNL     1       0.322   9.736  20.786  0.00  0.00    +0.000 C 
ATOM      9  C   UNL     1       1.117  11.037  20.956  0.00  0.00    +0.000 C 
ATOM     10  C   UNL     1       1.269  11.882  19.687  0.00  0.00    +0.000 C 
ATOM     11  C   UNL     1       1.994  11.207  18.522  0.00  0.00    +0.000 C 
ATOM     12  C   UNL     1       1.251   9.985  17.980  0.00  0.00    +0.000 C 
ENDROOT
BRANCH   2  13
ATOM     13  O   UNL     1       2.857   7.951  17.015  0.00  0.00    +0.000 OA
ATOM     14  H   UNL     1       2.730   8.885  16.783  0.00  0.00    +0.000 HD
ENDBRANCH   2  13
BRANCH   1  15
ATOM     15  C   UNL     1       3.654   5.461  18.635  0.00  0.00    +0.000 C 
BRANCH  15  16
ATOM     16  C   UNL     1       5.131   5.888  18.466  0.00  0.00    +0.000 A 
ATOM     17  C   UNL     1       5.569   6.723  17.419  0.00  0.00    +0.000 A 
ATOM     18  C   UNL     1       6.913   7.071  17.277  0.00  0.00    +0.000 A 
ATOM     19  C   UNL     1       7.856   6.600  18.182  0.00  0.00    +0.000 A 
ATOM     20  C   UNL     1       7.452   5.770  19.226  0.00  0.00    +0.000 A 
ATOM     21  C   UNL     1       6.105   5.411  19.362  0.00  0.00    +0.000 A 
ENDBRANCH  15  16
BRANCH  15  23
ATOM     22  C   UNL     1       1.740   4.034  17.564  0.00  0.00    +0.000 C 
ATOM     23  C   UNL     1       3.132   4.630  17.429  0.00  0.00    +0.000 C 
ENDBRANCH  15  23
ENDBRANCH   1  15
TORSDOF 4
ENDMDL
