MODEL 1
REMARK VINA RESULT:      -5.8      0.000      0.000
REMARK  Name = 
REMARK  11 active torsions:
REMARK  status: ('A' for Active; 'I' for Inactive)
REMARK    1  A    between atoms: C_1  and  C_2
REMARK    2  A    between atoms: C_2  and  C_3
REMARK    3  A    between atoms: C_3  and  C_4
REMARK    4  A    between atoms: C_4  and  C_5
REMARK    5  A    between atoms: C_5  and  C_6
REMARK    6  A    between atoms: C_6  and  C_7
REMARK    7  A    between atoms: C_7  and  C_8
REMARK    8  A    between atoms: C_8  and  N_9
REMARK    9  A    between atoms: N_9  and  C_10
REMARK   10  A    between atoms: N_9  and  C_13
REMARK   11  A    between atoms: C_10  and  C_11
REMARK                            x       y       z     vdW  Elec       q    Type
REMARK                         _______ _______ _______ _____ _____    ______ ____
ROOT
ATOM      1  N   UNL     1       5.164   4.882  18.567  0.00  0.00    +0.000 N 
ENDROOT
BRANCH   1   2
ATOM      2  C   UNL     1       4.205   5.898  18.592  0.00  0.00    +0.000 A 
ATOM      3  C   UNL     1       4.085   6.857  17.565  0.00  0.00    +0.000 A 
ATOM      4  C   UNL     1       3.096   7.853  17.572  0.00  0.00    +0.000 A 
ATOM      5  C   UNL     1       2.192   7.930  18.621  0.00  0.00    +0.000 A 
ATOM      6  C   UNL     1       2.289   7.016  19.664  0.00  0.00    +0.000 A 
ATOM      7  C   UNL     1       3.286   6.029  19.647  0.00  0.00    +0.000 A 
ENDBRANCH   1   2
BRANCH   1   8
ATOM      8  C   UNL     1       4.739   3.463  18.742  0.00  0.00    +0.000 C 
BRANCH   8   9
ATOM      9  C   UNL     1       3.945   2.956  17.525  0.00  0.00    +0.000 C 
BRANCH   9  10
ATOM     10  C   UNL     1       2.578   2.325  17.854  0.00  0.00    +0.000 C 
BRANCH  10  11
ATOM     11  C   UNL     1       1.441   3.343  17.972  0.00  0.00    +0.000 C 
BRANCH  11  12
ATOM     12  C   UNL     1       0.476   2.996  19.115  0.00  0.00    +0.000 C 
BRANCH  12  13
ATOM     13  C   UNL     1       0.895   3.682  20.419  0.00  0.00    +0.000 C 
BRANCH  13  15
ATOM     14  C   UNL     1       2.770   2.534  21.662  0.00  0.00    +0.000 C 
ATOM     15  C   UNL     1       1.262   2.664  21.501  0.00  0.00    +0.000 C 
ENDBRANCH  13  15
ENDBRANCH  12  13
ENDBRANCH  11  12
ENDBRANCH  10  11
ENDBRANCH   9  10
ENDBRANCH   8   9
ENDBRANCH   1   8
BRANCH   1  16
ATOM     16  C   UNL     1       6.628   5.227  18.483  0.00  0.00    +0.000 C 
BRANCH  16  17
ATOM     17  C   UNL     1       7.242   4.859  17.143  0.00  0.00    +0.000 C 
ATOM     18  N   UNL     1       7.753   4.553  16.031  0.00  0.00    +0.000 NA
ENDBRANCH  16  17
ENDBRANCH   1  16
TORSDOF 10
ENDMDL
MODEL 2
REMARK VINA RESULT:      -5.6      1.160      1.874
REMARK  Name = 
REMARK  11 active torsions:
REMARK  status: ('A' for Active; 'I' for Inactive)
REMARK    1  A    between atoms: C_1  and  C_2
REMARK    2  A    between atoms: C_2  and  C_3
REMARK    3  A    between atoms: C_3  and  C_4
REMARK    4  A    between atoms: C_4  and  C_5
REMARK    5  A    between atoms: C_5  and  C_6
REMARK    6  A    between atoms: C_6  and  C_7
REMARK    7  A    between atoms: C_7  and  C_8
REMARK    8  A    between atoms: C_8  and  N_9
REMARK    9  A    between atoms: N_9  and  C_10
REMARK   10  A    between atoms: N_9  and  C_13
REMARK   11  A    between atoms: C_10  and  C_11
REMARK                            x       y       z     vdW  Elec       q    Type
REMARK                         _______ _______ _______ _____ _____    ______ ____
ROOT
ATOM      1  N   UNL     1       4.966   5.832  17.454  0.00  0.00    +0.000 N 
ENDROOT
BRANCH   1   2
ATOM      2  C   UNL     1       3.921   6.534  18.059  0.00  0.00    +0.000 A 
ATOM      3  C   UNL     1       3.375   6.163  19.305  0.00  0.00    +0.000 A 
ATOM      4  C   UNL     1       2.352   6.892  19.931  0.00  0.00    +0.000 A 
ATOM      5  C   UNL     1       1.829   8.022  19.321  0.00  0.00    +0.000 A 
ATOM      6  C   UNL     1       2.325   8.410  18.081  0.00  0.00    +0.000 A 
ATOM      7  C   UNL     1       3.344   7.669  17.465  0.00  0.00    +0.000 A 
ENDBRANCH   1   2
BRANCH   1   8
ATOM      8  C   UNL     1       4.677   4.564  16.725  0.00  0.00    +0.000 C 
BRANCH   8   9
ATOM      9  C   UNL     1       4.820   3.337  17.642  0.00  0.00    +0.000 C 
BRANCH   9  10
ATOM     10  C   UNL     1       3.506   2.593  17.948  0.00  0.00    +0.000 C 
BRANCH  10  11
ATOM     11  C   UNL     1       2.289   3.161  17.214  0.00  0.00    +0.000 C 
BRANCH  11  12
ATOM     12  C   UNL     1       1.246   3.732  18.186  0.00  0.00    +0.000 C 
BRANCH  12  13
ATOM     13  C   UNL     1       0.987   2.766  19.347  0.00  0.00    +0.000 C 
BRANCH  13  15
ATOM     14  C   UNL     1       2.252   2.926  21.527  0.00  0.00    +0.000 C 
ATOM     15  C   UNL     1       1.094   3.469  20.702  0.00  0.00    +0.000 C 
ENDBRANCH  13  15
ENDBRANCH  12  13
ENDBRANCH  11  12
ENDBRANCH  10  11
ENDBRANCH   9  10
ENDBRANCH   8   9
ENDBRANCH   1   8
BRANCH   1  16
ATOM     16  C   UNL     1       6.389   6.291  17.635  0.00  0.00    +0.000 C 
BRANCH  16  17
ATOM     17  C   UNL     1       7.009   5.785  18.927  0.00  0.00    +0.000 C 
ATOM     18  N   UNL     1       7.524   5.364  20.000  0.00  0.00    +0.000 NA
ENDBRANCH  16  17
ENDBRANCH   1  16
TORSDOF 10
ENDMDL
MODEL 3
REMARK VINA RESULT:      -5.5      2.508      4.750
REMARK  Name = 
REMARK  11 active torsions:
REMARK  status: ('A' for Active; 'I' for Inactive)
REMARK    1  A    between atoms: C_1  and  C_2
REMARK    2  A    between atoms: C_2  and  C_3
REMARK    3  A    between atoms: C_3  and  C_4
REMARK    4  A    between atoms: C_4  and  C_5
REMARK    5  A    between atoms: C_5  and  C_6
REMARK    6  A    between atoms: C_6  and  C_7
REMARK    7  A    between atoms: C_7  and  C_8
REMARK    8  A    between atoms: C_8  and  N_9
REMARK    9  A    between atoms: N_9  and  C_10
REMARK   10  A    between atoms: N_9  and  C_13
REMARK   11  A    between atoms: C_10  and  C_11
REMARK                            x       y       z     vdW  Elec       q    Type
REMARK                         _______ _______ _______ _____ _____    ______ ____
ROOT
ATOM      1  N   UNL     1       6.823   5.279  16.236  0.00  0.00    +0.000 N 
ENDROOT
BRANCH   1   2
ATOM      2  C   UNL     1       6.825   4.868  14.901  0.00  0.00    +0.000 A 
ATOM      3  C   UNL     1       5.957   3.872  14.409  0.00  0.00    +0.000 A 
ATOM      4  C   UNL     1       5.933   3.488  13.060  0.00  0.00    +0.000 A 
ATOM      5  C   UNL     1       6.793   4.086  12.150  0.00  0.00    +0.000 A 
ATOM      6  C   UNL     1       7.680   5.057  12.599  0.00  0.00    +0.000 A 
ATOM      7  C   UNL     1       7.696   5.428  13.952  0.00  0.00    +0.000 A 
ENDBRANCH   1   2
BRANCH   1   8
ATOM      8  C   UNL     1       6.189   6.578  16.606  0.00  0.00    +0.000 C 
BRANCH   8   9
ATOM      9  C   UNL     1       4.656   6.513  16.496  0.00  0.00    +0.000 C 
BRANCH   9  10
ATOM     10  C   UNL     1       3.942   5.860  17.696  0.00  0.00    +0.000 C 
BRANCH  10  11
ATOM     11  C   UNL     1       3.506   4.415  17.443  0.00  0.00    +0.000 C 
BRANCH  11  12
ATOM     12  C   UNL     1       2.010   4.208  17.724  0.00  0.00    +0.000 C 
BRANCH  12  13
ATOM     13  C   UNL     1       1.759   2.867  18.421  0.00  0.00    +0.000 C 
BRANCH  13  15
ATOM     14  C   UNL     1       1.152   4.177  20.493  0.00  0.00    +0.000 C 
ATOM     15  C   UNL     1       0.781   3.011  19.588  0.00  0.00    +0.000 C 
ENDBRANCH  13  15
ENDBRANCH  12  13
ENDBRANCH  11  12
ENDBRANCH  10  11
ENDBRANCH   9  10
ENDBRANCH   8   9
ENDBRANCH   1   8
BRANCH   1  16
ATOM     16  C   UNL     1       7.556   4.474  17.277  0.00  0.00    +0.000 C 
BRANCH  16  17
ATOM     17  C   UNL     1       7.406   5.046  18.676  0.00  0.00    +0.000 C 
ATOM     18  N   UNL     1       7.282   5.521  19.838  0.00  0.00    +0.000 NA
ENDBRANCH  16  17
ENDBRANCH   1  16
TORSDOF 10
ENDMDL
MODEL 4
REMARK VINA RESULT:      -5.5      4.191      6.172
REMARK  Name = 
REMARK  11 active torsions:
REMARK  status: ('A' for Active; 'I' for Inactive)
REMARK    1  A    between atoms: C_1  and  C_2
REMARK    2  A    between atoms: C_2  and  C_3
REMARK    3  A    between atoms: C_3  and  C_4
REMARK    4  A    between atoms: C_4  and  C_5
REMARK    5  A    between atoms: C_5  and  C_6
REMARK    6  A    between atoms: C_6  and  C_7
REMARK    7  A    between atoms: C_7  and  C_8
REMARK    8  A    between atoms: C_8  and  N_9
REMARK    9  A    between atoms: N_9  and  C_10
REMARK   10  A    between atoms: N_9  and  C_13
REMARK   11  A    between atoms: C_10  and  C_11
REMARK                            x       y       z     vdW  Elec       q    Type
REMARK                         _______ _______ _______ _____ _____    ______ ____
ROOT
ATOM      1  N   UNL     1       5.728   5.297  16.148  0.00  0.00    +0.000 N 
ENDROOT
BRANCH   1   2
ATOM      2  C   UNL     1       4.514   5.116  16.816  0.00  0.00    +0.000 A 
ATOM      3  C   UNL     1       3.827   6.175  17.445  0.00  0.00    +0.000 A 
ATOM      4  C   UNL     1       2.588   6.000  18.081  0.00  0.00    +0.000 A 
ATOM      5  C   UNL     1       1.996   4.747  18.120  0.00  0.00    +0.000 A 
ATOM      6  C   UNL     1       2.651   3.672  17.530  0.00  0.00    +0.000 A 
ATOM      7  C   UNL     1       3.891   3.860  16.901  0.00  0.00    +0.000 A 
ENDBRANCH   1   2
BRANCH   1   8
ATOM      8  C   UNL     1       5.760   5.268  14.657  0.00  0.00    +0.000 C 
BRANCH   8   9
ATOM      9  C   UNL     1       6.607   4.096  14.130  0.00  0.00    +0.000 C 
BRANCH   9  10
ATOM     10  C   UNL     1       6.326   3.693  12.669  0.00  0.00    +0.000 C 
BRANCH  10  11
ATOM     11  C   UNL     1       4.839   3.682  12.306  0.00  0.00    +0.000 C 
BRANCH  11  12
ATOM     12  C   UNL     1       4.504   2.583  11.287  0.00  0.00    +0.000 C 
BRANCH  12  13
ATOM     13  C   UNL     1       3.301   2.977  10.425  0.00  0.00    +0.000 C 
BRANCH  13  15
ATOM     14  C   UNL     1       2.256   4.825   9.058  0.00  0.00    +0.000 C 
ATOM     15  C   UNL     1       3.290   4.476  10.119  0.00  0.00    +0.000 C 
ENDBRANCH  13  15
ENDBRANCH  12  13
ENDBRANCH  11  12
ENDBRANCH  10  11
ENDBRANCH   9  10
ENDBRANCH   8   9
ENDBRANCH   1   8
BRANCH   1  16
ATOM     16  C   UNL     1       7.012   5.402  16.928  0.00  0.00    +0.000 C 
BRANCH  16  17
ATOM     17  C   UNL     1       6.800   5.275  18.427  0.00  0.00    +0.000 C 
ATOM     18  N   UNL     1       6.624   5.171  19.672  0.00  0.00    +0.000 NA
ENDBRANCH  16  17
ENDBRANCH   1  16
TORSDOF 10
ENDMDL
MODEL 5
REMARK VINA RESULT:      -5.5      3.688      6.170
REMARK  Name = 
REMARK  11 active torsions:
REMARK  status: ('A' for Active; 'I' for Inactive)
REMARK    1  A    between atoms: C_1  and  C_2
REMARK    2  A    between atoms: C_2  and  C_3
REMARK    3  A    between atoms: C_3  and  C_4
REMARK    4  A    between atoms: C_4  and  C_5
REMARK    5  A    between atoms: C_5  and  C_6
REMARK    6  A    between atoms: C_6  and  C_7
REMARK    7  A    between atoms: C_7  and  C_8
REMARK    8  A    between atoms: C_8  and  N_9
REMARK    9  A    between atoms: N_9  and  C_10
REMARK   10  A    between atoms: N_9  and  C_13
REMARK   11  A    between atoms: C_10  and  C_11
REMARK                            x       y       z     vdW  Elec       q    Type
REMARK                         _______ _______ _______ _____ _____    ______ ____
ROOT
ATOM      1  N   UNL     1       4.345   5.062  17.066  0.00  0.00    +0.000 N 
ENDROOT
BRANCH   1   2
ATOM      2  C   UNL     1       3.453   4.155  17.644  0.00  0.00    +0.000 A 
ATOM      3  C   UNL     1       2.155   4.520  18.056  0.00  0.00    +0.000 A 
ATOM      4  C   UNL     1       1.246   3.600  18.600  0.00  0.00    +0.000 A 
ATOM      5  C   UNL     1       1.612   2.273  18.762  0.00  0.00    +0.000 A 
ATOM      6  C   UNL     1       2.891   1.875  18.388  0.00  0.00    +0.000 A 
ATOM      7  C   UNL     1       3.791   2.807  17.850  0.00  0.00    +0.000 A 
ENDBRANCH   1   2
BRANCH   1   8
ATOM      8  C   UNL     1       4.750   4.889  15.641  0.00  0.00    +0.000 C 
BRANCH   8   9
ATOM      9  C   UNL     1       6.160   4.285  15.521  0.00  0.00    +0.000 C 
BRANCH   9  10
ATOM     10  C   UNL     1       6.643   4.035  14.079  0.00  0.00    +0.000 C 
BRANCH  10  11
ATOM     11  C   UNL     1       5.519   4.049  13.040  0.00  0.00    +0.000 C 
BRANCH  11  12
ATOM     12  C   UNL     1       5.686   2.932  11.999  0.00  0.00    +0.000 C 
BRANCH  12  13
ATOM     13  C   UNL     1       4.396   2.728  11.198  0.00  0.00    +0.000 C 
BRANCH  13  15
ATOM     14  C   UNL     1       2.838   3.845   9.555  0.00  0.00    +0.000 C 
ATOM     15  C   UNL     1       3.828   4.055  10.692  0.00  0.00    +0.000 C 
ENDBRANCH  13  15
ENDBRANCH  12  13
ENDBRANCH  11  12
ENDBRANCH  10  11
ENDBRANCH   9  10
ENDBRANCH   8   9
ENDBRANCH   1   8
BRANCH   1  16
ATOM     16  C   UNL     1       4.983   6.135  17.908  0.00  0.00    +0.000 C 
BRANCH  16  17
ATOM     17  C   UNL     1       5.984   5.581  18.908  0.00  0.00    +0.000 C 
ATOM     18  N   UNL     1       6.815   5.120  19.737  0.00  0.00    +0.000 NA
ENDBRANCH  16  17
ENDBRANCH   1  16
TORSDOF 10
ENDMDL
MODEL 6
REMARK VINA RESULT:      -5.5      1.203      3.616
REMARK  Name = 
REMARK  11 active torsions:
REMARK  status: ('A' for Active; 'I' for Inactive)
REMARK    1  A    between atoms: C_1  and  C_2
REMARK    2  A    between atoms: C_2  and  C_3
REMARK    3  A    between atoms: C_3  and  C_4
REMARK    4  A    between atoms: C_4  and  C_5
REMARK    5  A    between atoms: C_5  and  C_6
REMARK    6  A    between atoms: C_6  and  C_7
REMARK    7  A    between atoms: C_7  and  C_8
REMARK    8  A    between atoms: C_8  and  N_9
REMARK    9  A    between atoms: N_9  and  C_10
REMARK   10  A    between atoms: N_9  and  C_13
REMARK   11  A    between atoms: C_10  and  C_11
REMARK                            x       y       z     vdW  Elec       q    Type
REMARK                         _______ _______ _______ _____ _____    ______ ____
ROOT
ATOM      1  N   UNL     1       5.344   4.851  17.041  0.00  0.00    +0.000 N 
ENDROOT
BRANCH   1   2
ATOM      2  C   UNL     1       4.563   3.846  17.618  0.00  0.00    +0.000 A 
ATOM      3  C   UNL     1       3.362   3.387  17.038  0.00  0.00    +0.000 A 
ATOM      4  C   UNL     1       2.600   2.350  17.597  0.00  0.00    +0.000 A 
ATOM      5  C   UNL     1       3.011   1.739  18.772  0.00  0.00    +0.000 A 
ATOM      6  C   UNL     1       4.179   2.175  19.387  0.00  0.00    +0.000 A 
ATOM      7  C   UNL     1       4.929   3.216  18.820  0.00  0.00    +0.000 A 
ENDBRANCH   1   2
BRANCH   1   8
ATOM      8  C   UNL     1       4.692   6.101  16.553  0.00  0.00    +0.000 C 
BRANCH   8   9
ATOM      9  C   UNL     1       4.518   7.129  17.685  0.00  0.00    +0.000 C 
BRANCH   9  10
ATOM     10  C   UNL     1       3.117   7.764  17.781  0.00  0.00    +0.000 C 
BRANCH  10  11
ATOM     11  C   UNL     1       2.350   7.382  19.049  0.00  0.00    +0.000 C 
BRANCH  11  12
ATOM     12  C   UNL     1       1.915   5.909  19.036  0.00  0.00    +0.000 C 
BRANCH  12  13
ATOM     13  C   UNL     1       2.209   5.234  20.379  0.00  0.00    +0.000 C 
BRANCH  13  15
ATOM     14  C   UNL     1       1.695   3.220  21.813  0.00  0.00    +0.000 C 
ATOM     15  C   UNL     1       1.212   4.113  20.680  0.00  0.00    +0.000 C 
ENDBRANCH  13  15
ENDBRANCH  12  13
ENDBRANCH  11  12
ENDBRANCH  10  11
ENDBRANCH   9  10
ENDBRANCH   8   9
ENDBRANCH   1   8
BRANCH   1  16
ATOM     16  C   UNL     1       6.814   4.625  16.807  0.00  0.00    +0.000 C 
BRANCH  16  17
ATOM     17  C   UNL     1       7.256   5.029  15.411  0.00  0.00    +0.000 C 
ATOM     18  N   UNL     1       7.624   5.365  14.252  0.00  0.00    +0.000 NA
ENDBRANCH  16  17
ENDBRANCH   1  16
TORSDOF 10
ENDMDL
MODEL 7
REMARK VINA RESULT:      -5.4      2.650      4.547
REMARK  Name = 
REMARK  11 active torsions:
REMARK  status: ('A' for Active; 'I' for Inactive)
REMARK    1  A    between atoms: C_1  and  C_2
REMARK    2  A    between atoms: C_2  and  C_3
REMARK    3  A    between atoms: C_3  and  C_4
REMARK    4  A    between atoms: C_4  and  C_5
REMARK    5  A    between atoms: C_5  and  C_6
REMARK    6  A    between atoms: C_6  and  C_7
REMARK    7  A    between atoms: C_7  and  C_8
REMARK    8  A    between atoms: C_8  and  N_9
REMARK    9  A    between atoms: N_9  and  C_10
REMARK   10  A    between atoms: N_9  and  C_13
REMARK   11  A    between atoms: C_10  and  C_11
REMARK                            x       y       z     vdW  Elec       q    Type
REMARK                         _______ _______ _______ _____ _____    ______ ____
ROOT
ATOM      1  N   UNL     1       6.157   4.940  16.057  0.00  0.00    +0.000 N 
ENDROOT
BRANCH   1   2
ATOM      2  C   UNL     1       6.461   4.663  14.722  0.00  0.00    +0.000 A 
ATOM      3  C   UNL     1       5.735   3.729  13.954  0.00  0.00    +0.000 A 
ATOM      4  C   UNL     1       6.015   3.480  12.602  0.00  0.00    +0.000 A 
ATOM      5  C   UNL     1       7.048   4.156  11.969  0.00  0.00    +0.000 A 
ATOM      6  C   UNL     1       7.802   5.070  12.696  0.00  0.00    +0.000 A 
ATOM      7  C   UNL     1       7.514   5.305  14.049  0.00  0.00    +0.000 A 
ENDBRANCH   1   2
BRANCH   1   8
ATOM      8  C   UNL     1       4.910   5.688  16.389  0.00  0.00    +0.000 C 
BRANCH   8   9
ATOM      9  C   UNL     1       4.109   4.989  17.502  0.00  0.00    +0.000 C 
BRANCH   9  10
ATOM     10  C   UNL     1       3.452   3.656  17.095  0.00  0.00    +0.000 C 
BRANCH  10  11
ATOM     11  C   UNL     1       3.529   2.573  18.174  0.00  0.00    +0.000 C 
BRANCH  11  12
ATOM     12  C   UNL     1       2.138   2.160  18.674  0.00  0.00    +0.000 C 
BRANCH  12  13
ATOM     13  C   UNL     1       1.188   3.361  18.722  0.00  0.00    +0.000 C 
BRANCH  13  15
ATOM     14  C   UNL     1       1.373   2.789  21.175  0.00  0.00    +0.000 C 
ATOM     15  C   UNL     1       0.953   3.839  20.156  0.00  0.00    +0.000 C 
ENDBRANCH  13  15
ENDBRANCH  12  13
ENDBRANCH  11  12
ENDBRANCH  10  11
ENDBRANCH   9  10
ENDBRANCH   8   9
ENDBRANCH   1   8
BRANCH   1  16
ATOM     16  C   UNL     1       7.140   4.590  17.144  0.00  0.00    +0.000 C 
BRANCH  16  17
ATOM     17  C   UNL     1       7.599   5.804  17.934  0.00  0.00    +0.000 C 
ATOM     18  N   UNL     1       7.980   6.811  18.591  0.00  0.00    +0.000 NA
ENDBRANCH  16  17
ENDBRANCH   1  16
TORSDOF 10
ENDMDL
MODEL 8
REMARK VINA RESULT:      -5.4      3.837      5.853
REMARK  Name = 
REMARK  11 active torsions:
REMARK  status: ('A' for Active; 'I' for Inactive)
REMARK    1  A    between atoms: C_1  and  C_2
REMARK    2  A    between atoms: C_2  and  C_3
REMARK    3  A    between atoms: C_3  and  C_4
REMARK    4  A    between atoms: C_4  and  C_5
REMARK    5  A    between atoms: C_5  and  C_6
REMARK    6  A    between atoms: C_6  and  C_7
REMARK    7  A    between atoms: C_7  and  C_8
REMARK    8  A    between atoms: C_8  and  N_9
REMARK    9  A    between atoms: N_9  and  C_10
REMARK   10  A    between atoms: N_9  and  C_13
REMARK   11  A    between atoms: C_10  and  C_11
REMARK                            x       y       z     vdW  Elec       q    Type
REMARK                         _______ _______ _______ _____ _____    ______ ____
ROOT
ATOM      1  N   UNL     1       5.545   5.345  17.017  0.00  0.00    +0.000 N 
ENDROOT
BRANCH   1   2
ATOM      2  C   UNL     1       4.585   5.245  18.027  0.00  0.00    +0.000 A 
ATOM      3  C   UNL     1       3.618   6.245  18.262  0.00  0.00    +0.000 A 
ATOM      4  C   UNL     1       2.630   6.125  19.250  0.00  0.00    +0.000 A 
ATOM      5  C   UNL     1       2.582   4.995  20.053  0.00  0.00    +0.000 A 
ATOM      6  C   UNL     1       3.530   3.995  19.869  0.00  0.00    +0.000 A 
ATOM      7  C   UNL     1       4.515   4.131  18.880  0.00  0.00    +0.000 A 
ENDBRANCH   1   2
BRANCH   1   8
ATOM      8  C   UNL     1       5.125   5.244  15.589  0.00  0.00    +0.000 C 
BRANCH   8   9
ATOM      9  C   UNL     1       6.323   4.959  14.665  0.00  0.00    +0.000 C 
BRANCH   9  10
ATOM     10  C   UNL     1       6.286   3.593  13.952  0.00  0.00    +0.000 C 
BRANCH  10  11
ATOM     11  C   UNL     1       6.564   3.674  12.449  0.00  0.00    +0.000 C 
BRANCH  11  12
ATOM     12  C   UNL     1       5.553   2.856  11.632  0.00  0.00    +0.000 C 
BRANCH  12  13
ATOM     13  C   UNL     1       4.146   3.452  11.740  0.00  0.00    +0.000 C 
BRANCH  13  15
ATOM     14  C   UNL     1       3.011   4.302   9.651  0.00  0.00    +0.000 C 
ATOM     15  C   UNL     1       3.284   3.090  10.529  0.00  0.00    +0.000 C 
ENDBRANCH  13  15
ENDBRANCH  12  13
ENDBRANCH  11  12
ENDBRANCH  10  11
ENDBRANCH   9  10
ENDBRANCH   8   9
ENDBRANCH   1   8
BRANCH   1  16
ATOM     16  C   UNL     1       7.006   5.437  17.370  0.00  0.00    +0.000 C 
BRANCH  16  17
ATOM     17  C   UNL     1       7.500   6.871  17.461  0.00  0.00    +0.000 C 
ATOM     18  N   UNL     1       7.910   8.062  17.537  0.00  0.00    +0.000 NA
ENDBRANCH  16  17
ENDBRANCH   1  16
TORSDOF 10
ENDMDL
MODEL 9
REMARK VINA RESULT:      -5.4      2.745      4.366
REMARK  Name = 
REMARK  11 active torsions:
REMARK  status: ('A' for Active; 'I' for Inactive)
REMARK    1  A    between atoms: C_1  and  C_2
REMARK    2  A    between atoms: C_2  and  C_3
REMARK    3  A    between atoms: C_3  and  C_4
REMARK    4  A    between atoms: C_4  and  C_5
REMARK    5  A    between atoms: C_5  and  C_6
REMARK    6  A    between atoms: C_6  and  C_7
REMARK    7  A    between atoms: C_7  and  C_8
REMARK    8  A    between atoms: C_8  and  N_9
REMARK    9  A    between atoms: N_9  and  C_10
REMARK   10  A    between atoms: N_9  and  C_13
REMARK   11  A    between atoms: C_10  and  C_11
REMARK                            x       y       z     vdW  Elec       q    Type
REMARK                         _______ _______ _______ _____ _____    ______ ____
ROOT
ATOM      1  N   UNL     1       5.740   4.971  15.888  0.00  0.00    +0.000 N 
ENDROOT
BRANCH   1   2
ATOM      2  C   UNL     1       6.180   4.693  14.591  0.00  0.00    +0.000 A 
ATOM      3  C   UNL     1       7.321   5.300  14.027  0.00  0.00    +0.000 A 
ATOM      4  C   UNL     1       7.785   4.991  12.740  0.00  0.00    +0.000 A 
ATOM      5  C   UNL     1       7.111   4.062  11.961  0.00  0.00    +0.000 A 
ATOM      6  C   UNL     1       5.969   3.455  12.472  0.00  0.00    +0.000 A 
ATOM      7  C   UNL     1       5.514   3.778  13.759  0.00  0.00    +0.000 A 
ENDBRANCH   1   2
BRANCH   1   8
ATOM      8  C   UNL     1       5.098   3.893  16.695  0.00  0.00    +0.000 C 
BRANCH   8   9
ATOM      9  C   UNL     1       3.814   4.389  17.383  0.00  0.00    +0.000 C 
BRANCH   9  10
ATOM     10  C   UNL     1       2.615   3.424  17.298  0.00  0.00    +0.000 C 
BRANCH  10  11
ATOM     11  C   UNL     1       1.362   3.931  18.017  0.00  0.00    +0.000 C 
BRANCH  11  12
ATOM     12  C   UNL     1       0.950   3.008  19.173  0.00  0.00    +0.000 C 
BRANCH  12  13
ATOM     13  C   UNL     1       0.985   3.751  20.512  0.00  0.00    +0.000 C 
BRANCH  13  15
ATOM     14  C   UNL     1       3.185   2.588  20.939  0.00  0.00    +0.000 C 
ATOM     15  C   UNL     1       1.857   3.027  21.539  0.00  0.00    +0.000 C 
ENDBRANCH  13  15
ENDBRANCH  12  13
ENDBRANCH  11  12
ENDBRANCH  10  11
ENDBRANCH   9  10
ENDBRANCH   8   9
ENDBRANCH   1   8
BRANCH   1  16
ATOM     16  C   UNL     1       5.807   6.378  16.423  0.00  0.00    +0.000 C 
BRANCH  16  17
ATOM     17  C   UNL     1       6.915   6.566  17.445  0.00  0.00    +0.000 C 
ATOM     18  N   UNL     1       7.836   6.721  18.293  0.00  0.00    +0.000 NA
ENDBRANCH  16  17
ENDBRANCH   1  16
TORSDOF 10
ENDMDL
