MODEL 1
REMARK VINA RESULT:      -5.0      0.000      0.000
REMARK  Name = 
REMARK  3 active torsions:
REMARK  status: ('A' for Active; 'I' for Inactive)
REMARK    1  A    between atoms: C_1  and  N_2
REMARK    2  A    between atoms: C_5  and  C_6
REMARK    3  A    between atoms: N_7  and  O_8
REMARK                            x       y       z     vdW  Elec       q    Type
REMARK                         _______ _______ _______ _____ _____    ______ ____
ROOT
ATOM      1  C   UNL     1       3.087   3.618  19.661  0.00  0.00    +0.000 C 
ATOM      2  N   UNL     1       4.088   3.931  18.627  0.00  0.00    +0.000 N 
ATOM      3  C   UNL     1       3.749   3.884  17.317  0.00  0.00    +0.000 A 
ATOM      4  C   UNL     1       4.694   4.155  16.333  0.00  0.00    +0.000 A 
ATOM      5  C   UNL     1       5.987   4.504  16.714  0.00  0.00    +0.000 A 
ATOM      6  C   UNL     1       6.296   4.615  18.061  0.00  0.00    +0.000 A 
ATOM      7  F   UNL     1       7.527   4.950  18.466  0.00  0.00    +0.000 F 
ATOM      8  C   UNL     1       5.320   4.335  19.007  0.00  0.00    +0.000 A 
ENDROOT
BRANCH   5   9
ATOM      9  C   UNL     1       7.037   4.733  15.714  0.00  0.00    +0.000 C 
ATOM     10  N   UNL     1       6.845   5.521  14.703  0.00  0.00    +0.000 NA
BRANCH  10  11
ATOM     11  O   UNL     1       7.996   5.529  13.912  0.00  0.00    +0.000 OA
ATOM     12  H   UNL     1       7.678   5.157  13.067  0.00  0.00    +0.000 HD
ENDBRANCH  10  11
ENDBRANCH   5   9
TORSDOF 2
ENDMDL
MODEL 2
REMARK VINA RESULT:      -4.9      2.940      4.133
REMARK  Name = 
REMARK  3 active torsions:
REMARK  status: ('A' for Active; 'I' for Inactive)
REMARK    1  A    between atoms: C_1  and  N_2
REMARK    2  A    between atoms: C_5  and  C_6
REMARK    3  A    between atoms: N_7  and  O_8
REMARK                            x       y       z     vdW  Elec       q    Type
REMARK                         _______ _______ _______ _____ _____    ______ ____
ROOT
ATOM      1  C   UNL     1       5.435   3.943  13.716  0.00  0.00    +0.000 C 
ATOM      2  N   UNL     1       5.802   4.280  15.103  0.00  0.00    +0.000 N 
ATOM      3  C   UNL     1       7.062   4.680  15.395  0.00  0.00    +0.000 A 
ATOM      4  C   UNL     1       7.423   4.976  16.704  0.00  0.00    +0.000 A 
ATOM      5  C   UNL     1       6.463   4.885  17.708  0.00  0.00    +0.000 A 
ATOM      6  C   UNL     1       5.160   4.543  17.379  0.00  0.00    +0.000 A 
ATOM      7  F   UNL     1       4.209   4.447  18.316  0.00  0.00    +0.000 F 
ATOM      8  C   UNL     1       4.846   4.255  16.058  0.00  0.00    +0.000 A 
ENDROOT
BRANCH   5   9
ATOM      9  C   UNL     1       6.810   5.122  19.115  0.00  0.00    +0.000 C 
ATOM     10  N   UNL     1       8.041   5.286  19.488  0.00  0.00    +0.000 NA
BRANCH  10  11
ATOM     11  O   UNL     1       8.074   5.466  20.872  0.00  0.00    +0.000 OA
ATOM     12  H   UNL     1       8.108   4.550  21.206  0.00  0.00    +0.000 HD
ENDBRANCH  10  11
ENDBRANCH   5   9
TORSDOF 2
ENDMDL
MODEL 3
REMARK VINA RESULT:      -4.9      1.537      1.551
REMARK  Name = 
REMARK  3 active torsions:
REMARK  status: ('A' for Active; 'I' for Inactive)
REMARK    1  A    between atoms: C_1  and  N_2
REMARK    2  A    between atoms: C_5  and  C_6
REMARK    3  A    between atoms: N_7  and  O_8
REMARK                            x       y       z     vdW  Elec       q    Type
REMARK                         _______ _______ _______ _____ _____    ______ ____
ROOT
ATOM      1  C   UNL     1       2.675   4.148  19.937  0.00  0.00    +0.000 C 
ATOM      2  N   UNL     1       3.497   4.455  18.753  0.00  0.00    +0.000 N 
ATOM      3  C   UNL     1       3.728   3.501  17.821  0.00  0.00    +0.000 A 
ATOM      4  C   UNL     1       4.522   3.775  16.712  0.00  0.00    +0.000 A 
ATOM      5  C   UNL     1       5.052   5.053  16.559  0.00  0.00    +0.000 A 
ATOM      6  C   UNL     1       4.746   6.036  17.488  0.00  0.00    +0.000 A 
ATOM      7  F   UNL     1       5.235   7.277  17.373  0.00  0.00    +0.000 F 
ATOM      8  C   UNL     1       3.949   5.716  18.578  0.00  0.00    +0.000 A 
ENDROOT
BRANCH   5   9
ATOM      9  C   UNL     1       5.951   5.374  15.443  0.00  0.00    +0.000 C 
ATOM     10  N   UNL     1       7.204   5.038  15.469  0.00  0.00    +0.000 NA
BRANCH  10  11
ATOM     11  O   UNL     1       7.815   5.489  14.297  0.00  0.00    +0.000 OA
ATOM     12  H   UNL     1       8.495   4.807  14.134  0.00  0.00    +0.000 HD
ENDBRANCH  10  11
ENDBRANCH   5   9
TORSDOF 2
ENDMDL
MODEL 4
REMARK VINA RESULT:      -4.8      3.768      5.248
REMARK  Name = 
REMARK  3 active torsions:
REMARK  status: ('A' for Active; 'I' for Inactive)
REMARK    1  A    between atoms: C_1  and  N_2
REMARK    2  A    between atoms: C_5  and  C_6
REMARK    3  A    between atoms: N_7  and  O_8
REMARK                            x       y       z     vdW  Elec       q    Type
REMARK                         _______ _______ _______ _____ _____    ______ ____
ROOT
ATOM      1  C   UNL     1       7.195   4.569  16.908  0.00  0.00    +0.000 C 
ATOM      2  N   UNL     1       5.858   4.519  17.525  0.00  0.00    +0.000 N 
ATOM      3  C   UNL     1       5.646   5.091  18.734  0.00  0.00    +0.000 A 
ATOM      4  C   UNL     1       4.393   5.029  19.334  0.00  0.00    +0.000 A 
ATOM      5  C   UNL     1       3.351   4.395  18.662  0.00  0.00    +0.000 A 
ATOM      6  C   UNL     1       3.571   3.878  17.394  0.00  0.00    +0.000 A 
ATOM      7  F   UNL     1       2.594   3.263  16.716  0.00  0.00    +0.000 F 
ATOM      8  C   UNL     1       4.838   3.964  16.835  0.00  0.00    +0.000 A 
ENDROOT
BRANCH   5   9
ATOM      9  C   UNL     1       2.029   4.243  19.281  0.00  0.00    +0.000 C 
ATOM     10  N   UNL     1       1.676   3.134  19.853  0.00  0.00    +0.000 NA
BRANCH  10  11
ATOM     11  O   UNL     1       0.369   3.267  20.328  0.00  0.00    +0.000 OA
ATOM     12  H   UNL     1      -0.141   2.711  19.710  0.00  0.00    +0.000 HD
ENDBRANCH  10  11
ENDBRANCH   5   9
TORSDOF 2
ENDMDL
MODEL 5
REMARK VINA RESULT:      -4.8      1.410      2.008
REMARK  Name = 
REMARK  3 active torsions:
REMARK  status: ('A' for Active; 'I' for Inactive)
REMARK    1  A    between atoms: C_1  and  N_2
REMARK    2  A    between atoms: C_5  and  C_6
REMARK    3  A    between atoms: N_7  and  O_8
REMARK                            x       y       z     vdW  Elec       q    Type
REMARK                         _______ _______ _______ _____ _____    ______ ____
ROOT
ATOM      1  C   UNL     1       3.125   4.383  19.842  0.00  0.00    +0.000 C 
ATOM      2  N   UNL     1       4.194   4.435  18.829  0.00  0.00    +0.000 N 
ATOM      3  C   UNL     1       5.459   4.753  19.192  0.00  0.00    +0.000 A 
ATOM      4  C   UNL     1       6.469   4.827  18.239  0.00  0.00    +0.000 A 
ATOM      5  C   UNL     1       6.169   4.543  16.910  0.00  0.00    +0.000 A 
ATOM      6  C   UNL     1       4.883   4.151  16.570  0.00  0.00    +0.000 A 
ATOM      7  F   UNL     1       4.557   3.866  15.303  0.00  0.00    +0.000 F 
ATOM      8  C   UNL     1       3.908   4.090  17.554  0.00  0.00    +0.000 A 
ENDROOT
BRANCH   5   9
ATOM      9  C   UNL     1       7.183   4.673  15.857  0.00  0.00    +0.000 C 
ATOM     10  N   UNL     1       7.137   5.639  14.992  0.00  0.00    +0.000 NA
BRANCH  10  11
ATOM     11  O   UNL     1       8.205   5.499  14.103  0.00  0.00    +0.000 OA
ATOM     12  H   UNL     1       8.314   6.405  13.756  0.00  0.00    +0.000 HD
ENDBRANCH  10  11
ENDBRANCH   5   9
TORSDOF 2
ENDMDL
MODEL 6
REMARK VINA RESULT:      -4.8      3.092      3.521
REMARK  Name = 
REMARK  3 active torsions:
REMARK  status: ('A' for Active; 'I' for Inactive)
REMARK    1  A    between atoms: C_1  and  N_2
REMARK    2  A    between atoms: C_5  and  C_6
REMARK    3  A    between atoms: N_7  and  O_8
REMARK                            x       y       z     vdW  Elec       q    Type
REMARK                         _______ _______ _______ _____ _____    ______ ____
ROOT
ATOM      1  C   UNL     1       1.127   2.393  18.782  0.00  0.00    +0.000 C 
ATOM      2  N   UNL     1       2.414   3.111  18.799  0.00  0.00    +0.000 N 
ATOM      3  C   UNL     1       3.442   2.645  19.545  0.00  0.00    +0.000 A 
ATOM      4  C   UNL     1       4.652   3.329  19.585  0.00  0.00    +0.000 A 
ATOM      5  C   UNL     1       4.802   4.485  18.824  0.00  0.00    +0.000 A 
ATOM      6  C   UNL     1       3.761   4.907  18.012  0.00  0.00    +0.000 A 
ATOM      7  F   UNL     1       3.868   6.013  17.264  0.00  0.00    +0.000 F 
ATOM      8  C   UNL     1       2.572   4.193  18.003  0.00  0.00    +0.000 A 
ENDROOT
BRANCH   5   9
ATOM      9  C   UNL     1       6.035   5.280  18.885  0.00  0.00    +0.000 C 
ATOM     10  N   UNL     1       6.855   5.178  19.884  0.00  0.00    +0.000 NA
BRANCH  10  11
ATOM     11  O   UNL     1       7.918   6.061  19.688  0.00  0.00    +0.000 OA
ATOM     12  H   UNL     1       7.507   6.780  19.171  0.00  0.00    +0.000 HD
ENDBRANCH  10  11
ENDBRANCH   5   9
TORSDOF 2
ENDMDL
MODEL 7
REMARK VINA RESULT:      -4.8      3.903      4.761
REMARK  Name = 
REMARK  3 active torsions:
REMARK  status: ('A' for Active; 'I' for Inactive)
REMARK    1  A    between atoms: C_1  and  N_2
REMARK    2  A    between atoms: C_5  and  C_6
REMARK    3  A    between atoms: N_7  and  O_8
REMARK                            x       y       z     vdW  Elec       q    Type
REMARK                         _______ _______ _______ _____ _____    ______ ____
ROOT
ATOM      1  C   UNL     1       2.299   8.514  18.036  0.00  0.00    +0.000 C 
ATOM      2  N   UNL     1       2.751   7.158  18.391  0.00  0.00    +0.000 N 
ATOM      3  C   UNL     1       3.577   6.478  17.561  0.00  0.00    +0.000 A 
ATOM      4  C   UNL     1       3.990   5.188  17.877  0.00  0.00    +0.000 A 
ATOM      5  C   UNL     1       3.565   4.615  19.072  0.00  0.00    +0.000 A 
ATOM      6  C   UNL     1       2.777   5.354  19.942  0.00  0.00    +0.000 A 
ATOM      7  F   UNL     1       2.351   4.838  21.102  0.00  0.00    +0.000 F 
ATOM      8  C   UNL     1       2.390   6.637  19.585  0.00  0.00    +0.000 A 
ENDROOT
BRANCH   5   9
ATOM      9  C   UNL     1       3.917   3.232  19.420  0.00  0.00    +0.000 C 
ATOM     10  N   UNL     1       5.111   2.920  19.818  0.00  0.00    +0.000 NA
BRANCH  10  11
ATOM     11  O   UNL     1       5.164   1.545  20.052  0.00  0.00    +0.000 OA
ATOM     12  H   UNL     1       6.123   1.362  20.040  0.00  0.00    +0.000 HD
ENDBRANCH  10  11
ENDBRANCH   5   9
TORSDOF 2
ENDMDL
MODEL 8
REMARK VINA RESULT:      -4.8      2.279      2.669
REMARK  Name = 
REMARK  3 active torsions:
REMARK  status: ('A' for Active; 'I' for Inactive)
REMARK    1  A    between atoms: C_1  and  N_2
REMARK    2  A    between atoms: C_5  and  C_6
REMARK    3  A    between atoms: N_7  and  O_8
REMARK                            x       y       z     vdW  Elec       q    Type
REMARK                         _______ _______ _______ _____ _____    ______ ____
ROOT
ATOM      1  C   UNL     1       0.943   2.551  18.819  0.00  0.00    +0.000 C 
ATOM      2  N   UNL     1       2.087   3.307  18.279  0.00  0.00    +0.000 N 
ATOM      3  C   UNL     1       3.165   2.651  17.791  0.00  0.00    +0.000 A 
ATOM      4  C   UNL     1       4.259   3.357  17.301  0.00  0.00    +0.000 A 
ATOM      5  C   UNL     1       4.217   4.749  17.292  0.00  0.00    +0.000 A 
ATOM      6  C   UNL     1       3.075   5.401  17.731  0.00  0.00    +0.000 A 
ATOM      7  F   UNL     1       2.997   6.738  17.735  0.00  0.00    +0.000 F 
ATOM      8  C   UNL     1       2.008   4.655  18.211  0.00  0.00    +0.000 A 
ENDROOT
BRANCH   5   9
ATOM      9  C   UNL     1       5.372   5.541  16.849  0.00  0.00    +0.000 C 
ATOM     10  N   UNL     1       6.424   4.974  16.346  0.00  0.00    +0.000 NA
BRANCH  10  11
ATOM     11  O   UNL     1       7.364   5.961  16.038  0.00  0.00    +0.000 OA
ATOM     12  H   UNL     1       7.115   6.688  16.639  0.00  0.00    +0.000 HD
ENDBRANCH  10  11
ENDBRANCH   5   9
TORSDOF 2
ENDMDL
MODEL 9
REMARK VINA RESULT:      -4.7      4.081      5.501
REMARK  Name = 
REMARK  3 active torsions:
REMARK  status: ('A' for Active; 'I' for Inactive)
REMARK    1  A    between atoms: C_1  and  N_2
REMARK    2  A    between atoms: C_5  and  C_6
REMARK    3  A    between atoms: N_7  and  O_8
REMARK                            x       y       z     vdW  Elec       q    Type
REMARK                         _______ _______ _______ _____ _____    ______ ____
ROOT
ATOM      1  C   UNL     1       5.783   6.254  17.348  0.00  0.00    +0.000 C 
ATOM      2  N   UNL     1       4.828   5.462  18.144  0.00  0.00    +0.000 N 
ATOM      3  C   UNL     1       3.552   5.887  18.294  0.00  0.00    +0.000 A 
ATOM      4  C   UNL     1       2.651   5.159  19.063  0.00  0.00    +0.000 A 
ATOM      5  C   UNL     1       3.071   3.969  19.652  0.00  0.00    +0.000 A 
ATOM      6  C   UNL     1       4.361   3.514  19.428  0.00  0.00    +0.000 A 
ATOM      7  F   UNL     1       4.800   2.374  19.976  0.00  0.00    +0.000 F 
ATOM      8  C   UNL     1       5.225   4.275  18.654  0.00  0.00    +0.000 A 
ENDROOT
BRANCH   5   9
ATOM      9  C   UNL     1       2.178   3.199  20.528  0.00  0.00    +0.000 C 
ATOM     10  N   UNL     1       2.277   3.267  21.819  0.00  0.00    +0.000 NA
BRANCH  10  11
ATOM     11  O   UNL     1       1.326   2.418  22.389  0.00  0.00    +0.000 OA
ATOM     12  H   UNL     1       0.825   3.019  22.972  0.00  0.00    +0.000 HD
ENDBRANCH  10  11
ENDBRANCH   5   9
TORSDOF 2
ENDMDL
