MODEL 1
REMARK VINA RESULT:      -7.4      0.000      0.000
REMARK  Name = 
REMARK  11 active torsions:
REMARK  status: ('A' for Active; 'I' for Inactive)
REMARK    1  A    between atoms: C_1  and  O_2
REMARK    2  A    between atoms: O_2  and  C_3
REMARK    3  A    between atoms: C_8  and  C_9
REMARK    4  A    between atoms: C_12  and  C_13
REMARK    5  A    between atoms: C_13  and  C_15
REMARK    6  A    between atoms: C_17  and  O_18
REMARK    7  A    between atoms: O_18  and  C_19
REMARK    8  A    between atoms: C_20  and  O_21
REMARK    9  A    between atoms: O_21  and  C_22
REMARK   10  A    between atoms: C_23  and  O_24
REMARK   11  A    between atoms: O_24  and  C_25
REMARK                            x       y       z     vdW  Elec       q    Type
REMARK                         _______ _______ _______ _____ _____    ______ ____
ROOT
ATOM      1  C   UNL     1       0.666  10.758  18.882  0.00  0.00    +0.000 C 
ATOM      2  O   UNL     1       1.290  11.817  18.895  0.00  0.00    +0.000 OA
ENDROOT
BRANCH   1   3
ATOM      3  C   UNL     1      -0.786  10.834  18.576  0.00  0.00    +0.000 A 
ATOM      4  C   UNL     1      -1.613  11.573  19.417  0.00  0.00    +0.000 A 
ATOM      5  C   UNL     1      -2.973  11.699  19.128  0.00  0.00    +0.000 A 
ATOM      6  C   UNL     1      -3.519  11.042  17.997  0.00  0.00    +0.000 A 
ATOM      7  C   UNL     1      -2.690  10.257  17.174  0.00  0.00    +0.000 A 
ATOM      8  C   UNL     1      -1.326  10.150  17.480  0.00  0.00    +0.000 A 
BRANCH   5   9
ATOM      9  O   UNL     1      -3.834  12.438  19.902  0.00  0.00    +0.000 OA
ATOM     10  C   UNL     1      -3.251  13.142  20.996  0.00  0.00    +0.000 C 
ENDBRANCH   5   9
BRANCH   6  11
ATOM     11  O   UNL     1      -4.880  11.179  17.844  0.00  0.00    +0.000 OA
ATOM     12  C   UNL     1      -5.333  12.188  16.950  0.00  0.00    +0.000 C 
ENDBRANCH   6  11
BRANCH   7  13
ATOM     13  O   UNL     1      -3.248   9.590  16.115  0.00  0.00    +0.000 OA
ATOM     14  C   UNL     1      -3.085  10.135  14.809  0.00  0.00    +0.000 C 
ENDBRANCH   7  13
ENDBRANCH   1   3
BRANCH   1  18
ATOM     15  C   UNL     1       2.334   7.231  18.730  0.00  0.00    +0.000 A 
ATOM     16  C   UNL     1       2.002   7.445  20.056  0.00  0.00    +0.000 A 
ATOM     17  C   UNL     1       1.365   8.704  20.273  0.00  0.00    +0.000 A 
ATOM     18  C   UNL     1       1.267   9.451  19.115  0.00  0.00    +0.000 A 
ATOM     19  S   UNL     1       1.980   8.634  17.799  0.00  0.00    +0.000 S 
BRANCH  15  25
ATOM     20  C   UNL     1       4.174   5.994  17.480  0.00  0.00    +0.000 A 
ATOM     21  C   UNL     1       4.665   4.795  16.941  0.00  0.00    +0.000 A 
ATOM     22  C   UNL     1       3.882   3.638  16.930  0.00  0.00    +0.000 A 
ATOM     23  C   UNL     1       2.611   3.663  17.483  0.00  0.00    +0.000 A 
ATOM     24  C   UNL     1       2.131   4.836  18.061  0.00  0.00    +0.000 A 
ATOM     25  C   UNL     1       2.894   6.025  18.074  0.00  0.00    +0.000 A 
BRANCH  20  27
ATOM     26  C   UNL     1       6.321   6.968  17.266  0.00  0.00    +0.000 C 
ATOM     27  O   UNL     1       4.923   7.147  17.479  0.00  0.00    +0.000 OA
ENDBRANCH  20  27
ENDBRANCH  15  25
ENDBRANCH   1  18
TORSDOF 7
ENDMDL
MODEL 2
REMARK VINA RESULT:      -7.3      0.987      1.801
REMARK  Name = 
REMARK  11 active torsions:
REMARK  status: ('A' for Active; 'I' for Inactive)
REMARK    1  A    between atoms: C_1  and  O_2
REMARK    2  A    between atoms: O_2  and  C_3
REMARK    3  A    between atoms: C_8  and  C_9
REMARK    4  A    between atoms: C_12  and  C_13
REMARK    5  A    between atoms: C_13  and  C_15
REMARK    6  A    between atoms: C_17  and  O_18
REMARK    7  A    between atoms: O_18  and  C_19
REMARK    8  A    between atoms: C_20  and  O_21
REMARK    9  A    between atoms: O_21  and  C_22
REMARK   10  A    between atoms: C_23  and  O_24
REMARK   11  A    between atoms: O_24  and  C_25
REMARK                            x       y       z     vdW  Elec       q    Type
REMARK                         _______ _______ _______ _____ _____    ______ ____
ROOT
ATOM      1  C   UNL     1       0.663  10.864  18.921  0.00  0.00    +0.000 C 
ATOM      2  O   UNL     1       1.277  11.930  18.935  0.00  0.00    +0.000 OA
ENDROOT
BRANCH   1   3
ATOM      3  C   UNL     1      -0.796  10.929  18.651  0.00  0.00    +0.000 A 
ATOM      4  C   UNL     1      -1.599  11.711  19.476  0.00  0.00    +0.000 A 
ATOM      5  C   UNL     1      -2.967  11.826  19.217  0.00  0.00    +0.000 A 
ATOM      6  C   UNL     1      -3.543  11.118  18.135  0.00  0.00    +0.000 A 
ATOM      7  C   UNL     1      -2.737  10.291  17.328  0.00  0.00    +0.000 A 
ATOM      8  C   UNL     1      -1.366  10.196  17.603  0.00  0.00    +0.000 A 
BRANCH   5   9
ATOM      9  O   UNL     1      -3.806  12.604  19.978  0.00  0.00    +0.000 OA
ATOM     10  C   UNL     1      -3.408  12.826  21.329  0.00  0.00    +0.000 C 
ENDBRANCH   5   9
BRANCH   6  11
ATOM     11  O   UNL     1      -4.908  11.251  18.011  0.00  0.00    +0.000 OA
ATOM     12  C   UNL     1      -5.383  12.157  17.023  0.00  0.00    +0.000 C 
ENDBRANCH   6  11
BRANCH   7  13
ATOM     13  O   UNL     1      -3.324   9.576  16.318  0.00  0.00    +0.000 OA
ATOM     14  C   UNL     1      -3.057   9.959  14.972  0.00  0.00    +0.000 C 
ENDBRANCH   7  13
ENDBRANCH   1   3
BRANCH   1  18
ATOM     15  C   UNL     1       2.493   7.422  18.697  0.00  0.00    +0.000 A 
ATOM     16  C   UNL     1       1.964   7.497  19.974  0.00  0.00    +0.000 A 
ATOM     17  C   UNL     1       1.246   8.708  20.208  0.00  0.00    +0.000 A 
ATOM     18  C   UNL     1       1.283   9.561  19.120  0.00  0.00    +0.000 A 
ATOM     19  S   UNL     1       2.214   8.897  17.855  0.00  0.00    +0.000 S 
BRANCH  15  25
ATOM     20  C   UNL     1       2.759   4.963  18.097  0.00  0.00    +0.000 A 
ATOM     21  C   UNL     1       3.435   3.968  17.374  0.00  0.00    +0.000 A 
ATOM     22  C   UNL     1       4.573   4.273  16.624  0.00  0.00    +0.000 A 
ATOM     23  C   UNL     1       5.030   5.581  16.569  0.00  0.00    +0.000 A 
ATOM     24  C   UNL     1       4.340   6.583  17.247  0.00  0.00    +0.000 A 
ATOM     25  C   UNL     1       3.195   6.303  18.024  0.00  0.00    +0.000 A 
BRANCH  20  27
ATOM     26  C   UNL     1       1.100   3.374  18.670  0.00  0.00    +0.000 C 
ATOM     27  O   UNL     1       1.649   4.676  18.857  0.00  0.00    +0.000 OA
ENDBRANCH  20  27
ENDBRANCH  15  25
ENDBRANCH   1  18
TORSDOF 7
ENDMDL
MODEL 3
REMARK VINA RESULT:      -7.1      1.112      3.086
REMARK  Name = 
REMARK  11 active torsions:
REMARK  status: ('A' for Active; 'I' for Inactive)
REMARK    1  A    between atoms: C_1  and  O_2
REMARK    2  A    between atoms: O_2  and  C_3
REMARK    3  A    between atoms: C_8  and  C_9
REMARK    4  A    between atoms: C_12  and  C_13
REMARK    5  A    between atoms: C_13  and  C_15
REMARK    6  A    between atoms: C_17  and  O_18
REMARK    7  A    between atoms: O_18  and  C_19
REMARK    8  A    between atoms: C_20  and  O_21
REMARK    9  A    between atoms: O_21  and  C_22
REMARK   10  A    between atoms: C_23  and  O_24
REMARK   11  A    between atoms: O_24  and  C_25
REMARK                            x       y       z     vdW  Elec       q    Type
REMARK                         _______ _______ _______ _____ _____    ______ ____
ROOT
ATOM      1  C   UNL     1       0.829  10.820  18.902  0.00  0.00    +0.000 C 
ATOM      2  O   UNL     1       1.495  11.854  18.909  0.00  0.00    +0.000 OA
ENDROOT
BRANCH   1   3
ATOM      3  C   UNL     1      -0.623  10.955  18.616  0.00  0.00    +0.000 A 
ATOM      4  C   UNL     1      -1.166  10.250  17.546  0.00  0.00    +0.000 A 
ATOM      5  C   UNL     1      -2.536  10.323  17.282  0.00  0.00    +0.000 A 
ATOM      6  C   UNL     1      -3.366  11.144  18.084  0.00  0.00    +0.000 A 
ATOM      7  C   UNL     1      -2.807  11.892  19.138  0.00  0.00    +0.000 A 
ATOM      8  C   UNL     1      -1.431  11.799  19.387  0.00  0.00    +0.000 A 
BRANCH   5   9
ATOM      9  O   UNL     1      -3.136   9.629  16.260  0.00  0.00    +0.000 OA
ATOM     10  C   UNL     1      -2.944  10.151  14.947  0.00  0.00    +0.000 C 
ENDBRANCH   5   9
BRANCH   6  11
ATOM     11  O   UNL     1      -4.687  11.194  17.696  0.00  0.00    +0.000 OA
ATOM     12  C   UNL     1      -5.635  10.559  18.543  0.00  0.00    +0.000 C 
ENDBRANCH   6  11
BRANCH   7  13
ATOM     13  O   UNL     1      -3.620  12.719  19.868  0.00  0.00    +0.000 OA
ATOM     14  C   UNL     1      -3.016  13.630  20.780  0.00  0.00    +0.000 C 
ENDBRANCH   7  13
ENDBRANCH   1   3
BRANCH   1  18
ATOM     15  C   UNL     1       2.487   7.289  18.740  0.00  0.00    +0.000 A 
ATOM     16  C   UNL     1       1.947   7.405  20.009  0.00  0.00    +0.000 A 
ATOM     17  C   UNL     1       1.288   8.653  20.220  0.00  0.00    +0.000 A 
ATOM     18  C   UNL     1       1.380   9.490  19.123  0.00  0.00    +0.000 A 
ATOM     19  S   UNL     1       2.293   8.766  17.878  0.00  0.00    +0.000 S 
BRANCH  15  25
ATOM     20  C   UNL     1       2.710   4.797  18.270  0.00  0.00    +0.000 A 
ATOM     21  C   UNL     1       3.335   3.758  17.563  0.00  0.00    +0.000 A 
ATOM     22  C   UNL     1       4.419   4.012  16.721  0.00  0.00    +0.000 A 
ATOM     23  C   UNL     1       4.873   5.313  16.558  0.00  0.00    +0.000 A 
ATOM     24  C   UNL     1       4.231   6.357  17.220  0.00  0.00    +0.000 A 
ATOM     25  C   UNL     1       3.141   6.129  18.088  0.00  0.00    +0.000 A 
BRANCH  20  27
ATOM     26  C   UNL     1       1.108   3.246  19.065  0.00  0.00    +0.000 C 
ATOM     27  O   UNL     1       1.655   4.561  19.120  0.00  0.00    +0.000 OA
ENDBRANCH  20  27
ENDBRANCH  15  25
ENDBRANCH   1  18
TORSDOF 7
ENDMDL
MODEL 4
REMARK VINA RESULT:      -7.1      1.262      2.748
REMARK  Name = 
REMARK  11 active torsions:
REMARK  status: ('A' for Active; 'I' for Inactive)
REMARK    1  A    between atoms: C_1  and  O_2
REMARK    2  A    between atoms: O_2  and  C_3
REMARK    3  A    between atoms: C_8  and  C_9
REMARK    4  A    between atoms: C_12  and  C_13
REMARK    5  A    between atoms: C_13  and  C_15
REMARK    6  A    between atoms: C_17  and  O_18
REMARK    7  A    between atoms: O_18  and  C_19
REMARK    8  A    between atoms: C_20  and  O_21
REMARK    9  A    between atoms: O_21  and  C_22
REMARK   10  A    between atoms: C_23  and  O_24
REMARK   11  A    between atoms: O_24  and  C_25
REMARK                            x       y       z     vdW  Elec       q    Type
REMARK                         _______ _______ _______ _____ _____    ______ ____
ROOT
ATOM      1  C   UNL     1       1.298  10.293  18.712  0.00  0.00    +0.000 C 
ATOM      2  O   UNL     1       2.155  11.103  18.363  0.00  0.00    +0.000 OA
ENDROOT
BRANCH   1   3
ATOM      3  C   UNL     1      -0.120  10.723  18.605  0.00  0.00    +0.000 A 
ATOM      4  C   UNL     1      -0.920  10.165  17.612  0.00  0.00    +0.000 A 
ATOM      5  C   UNL     1      -2.268  10.516  17.517  0.00  0.00    +0.000 A 
ATOM      6  C   UNL     1      -2.813  11.471  18.411  0.00  0.00    +0.000 A 
ATOM      7  C   UNL     1      -1.991  12.068  19.386  0.00  0.00    +0.000 A 
ATOM      8  C   UNL     1      -0.643  11.695  19.466  0.00  0.00    +0.000 A 
BRANCH   5   9
ATOM      9  O   UNL     1      -3.115   9.979  16.578  0.00  0.00    +0.000 OA
ATOM     10  C   UNL     1      -2.841  10.313  15.219  0.00  0.00    +0.000 C 
ENDBRANCH   5   9
BRANCH   6  11
ATOM     11  O   UNL     1      -4.133  11.792  18.187  0.00  0.00    +0.000 OA
ATOM     12  C   UNL     1      -5.099  11.193  19.040  0.00  0.00    +0.000 C 
ENDBRANCH   6  11
BRANCH   7  13
ATOM     13  O   UNL     1      -2.527  13.026  20.208  0.00  0.00    +0.000 OA
ATOM     14  C   UNL     1      -2.895  12.654  21.532  0.00  0.00    +0.000 C 
ENDBRANCH   7  13
ENDBRANCH   1   3
BRANCH   1  18
ATOM     15  C   UNL     1       2.252   6.544  19.239  0.00  0.00    +0.000 A 
ATOM     16  C   UNL     1       1.764   6.993  20.453  0.00  0.00    +0.000 A 
ATOM     17  C   UNL     1       1.357   8.361  20.416  0.00  0.00    +0.000 A 
ATOM     18  C   UNL     1       1.590   8.947  19.186  0.00  0.00    +0.000 A 
ATOM     19  S   UNL     1       2.329   7.846  18.115  0.00  0.00    +0.000 S 
BRANCH  15  25
ATOM     20  C   UNL     1       3.983   4.697  18.965  0.00  0.00    +0.000 A 
ATOM     21  C   UNL     1       4.281   3.371  18.618  0.00  0.00    +0.000 A 
ATOM     22  C   UNL     1       3.303   2.531  18.080  0.00  0.00    +0.000 A 
ATOM     23  C   UNL     1       2.010   3.003  17.909  0.00  0.00    +0.000 A 
ATOM     24  C   UNL     1       1.693   4.305  18.292  0.00  0.00    +0.000 A 
ATOM     25  C   UNL     1       2.664   5.180  18.826  0.00  0.00    +0.000 A 
BRANCH  20  27
ATOM     26  C   UNL     1       6.218   5.468  18.852  0.00  0.00    +0.000 C 
ATOM     27  O   UNL     1       4.939   5.543  19.476  0.00  0.00    +0.000 OA
ENDBRANCH  20  27
ENDBRANCH  15  25
ENDBRANCH   1  18
TORSDOF 7
ENDMDL
MODEL 5
REMARK VINA RESULT:      -7.0      3.663      8.768
REMARK  Name = 
REMARK  11 active torsions:
REMARK  status: ('A' for Active; 'I' for Inactive)
REMARK    1  A    between atoms: C_1  and  O_2
REMARK    2  A    between atoms: O_2  and  C_3
REMARK    3  A    between atoms: C_8  and  C_9
REMARK    4  A    between atoms: C_12  and  C_13
REMARK    5  A    between atoms: C_13  and  C_15
REMARK    6  A    between atoms: C_17  and  O_18
REMARK    7  A    between atoms: O_18  and  C_19
REMARK    8  A    between atoms: C_20  and  O_21
REMARK    9  A    between atoms: O_21  and  C_22
REMARK   10  A    between atoms: C_23  and  O_24
REMARK   11  A    between atoms: O_24  and  C_25
REMARK                            x       y       z     vdW  Elec       q    Type
REMARK                         _______ _______ _______ _____ _____    ______ ____
ROOT
ATOM      1  C   UNL     1       2.234   7.942  18.424  0.00  0.00    +0.000 C 
ATOM      2  O   UNL     1       2.360   8.555  17.366  0.00  0.00    +0.000 OA
ENDROOT
BRANCH   1   3
ATOM      3  C   UNL     1       2.781   6.562  18.474  0.00  0.00    +0.000 A 
ATOM      4  C   UNL     1       1.963   5.500  18.104  0.00  0.00    +0.000 A 
ATOM      5  C   UNL     1       2.465   4.197  18.098  0.00  0.00    +0.000 A 
ATOM      6  C   UNL     1       3.800   3.953  18.505  0.00  0.00    +0.000 A 
ATOM      7  C   UNL     1       4.613   5.024  18.923  0.00  0.00    +0.000 A 
ATOM      8  C   UNL     1       4.088   6.324  18.915  0.00  0.00    +0.000 A 
BRANCH   5   9
ATOM      9  O   UNL     1       1.716   3.110  17.715  0.00  0.00    +0.000 OA
ATOM     10  C   UNL     1       0.804   2.601  18.685  0.00  0.00    +0.000 C 
ENDBRANCH   5   9
BRANCH   6  11
ATOM     11  O   UNL     1       4.171   2.627  18.523  0.00  0.00    +0.000 OA
ATOM     12  C   UNL     1       4.289   2.006  19.797  0.00  0.00    +0.000 C 
ENDBRANCH   6  11
BRANCH   7  13
ATOM     13  O   UNL     1       5.884   4.759  19.361  0.00  0.00    +0.000 OA
ATOM     14  C   UNL     1       6.958   5.527  18.826  0.00  0.00    +0.000 C 
ENDBRANCH   7  13
ENDBRANCH   1   3
BRANCH   1  18
ATOM     15  C   UNL     1       0.480  10.063  21.195  0.00  0.00    +0.000 A 
ATOM     16  C   UNL     1       0.882   8.887  21.803  0.00  0.00    +0.000 A 
ATOM     17  C   UNL     1       1.559   8.002  20.911  0.00  0.00    +0.000 A 
ATOM     18  C   UNL     1       1.615   8.496  19.621  0.00  0.00    +0.000 A 
ATOM     19  S   UNL     1       0.818   9.999  19.508  0.00  0.00    +0.000 S 
BRANCH  15  25
ATOM     20  C   UNL     1       0.421  12.564  21.662  0.00  0.00    +0.000 A 
ATOM     21  C   UNL     1      -0.262  13.673  22.186  0.00  0.00    +0.000 A 
ATOM     22  C   UNL     1      -1.465  13.517  22.878  0.00  0.00    +0.000 A 
ATOM     23  C   UNL     1      -2.011  12.251  23.030  0.00  0.00    +0.000 A 
ATOM     24  C   UNL     1      -1.364  11.148  22.476  0.00  0.00    +0.000 A 
ATOM     25  C   UNL     1      -0.140  11.274  21.783  0.00  0.00    +0.000 A 
BRANCH  20  27
ATOM     26  C   UNL     1       1.674  13.765  20.054  0.00  0.00    +0.000 C 
ATOM     27  O   UNL     1       1.616  12.698  20.997  0.00  0.00    +0.000 OA
ENDBRANCH  20  27
ENDBRANCH  15  25
ENDBRANCH   1  18
TORSDOF 7
ENDMDL
MODEL 6
REMARK VINA RESULT:      -7.0      3.620      8.663
REMARK  Name = 
REMARK  11 active torsions:
REMARK  status: ('A' for Active; 'I' for Inactive)
REMARK    1  A    between atoms: C_1  and  O_2
REMARK    2  A    between atoms: O_2  and  C_3
REMARK    3  A    between atoms: C_8  and  C_9
REMARK    4  A    between atoms: C_12  and  C_13
REMARK    5  A    between atoms: C_13  and  C_15
REMARK    6  A    between atoms: C_17  and  O_18
REMARK    7  A    between atoms: O_18  and  C_19
REMARK    8  A    between atoms: C_20  and  O_21
REMARK    9  A    between atoms: O_21  and  C_22
REMARK   10  A    between atoms: C_23  and  O_24
REMARK   11  A    between atoms: O_24  and  C_25
REMARK                            x       y       z     vdW  Elec       q    Type
REMARK                         _______ _______ _______ _____ _____    ______ ____
ROOT
ATOM      1  C   UNL     1       2.185   7.963  18.346  0.00  0.00    +0.000 C 
ATOM      2  O   UNL     1       2.319   8.580  17.290  0.00  0.00    +0.000 OA
ENDROOT
BRANCH   1   3
ATOM      3  C   UNL     1       2.707   6.573  18.386  0.00  0.00    +0.000 A 
ATOM      4  C   UNL     1       4.024   6.360  18.780  0.00  0.00    +0.000 A 
ATOM      5  C   UNL     1       4.527   5.061  18.871  0.00  0.00    +0.000 A 
ATOM      6  C   UNL     1       3.705   3.960  18.527  0.00  0.00    +0.000 A 
ATOM      7  C   UNL     1       2.386   4.180  18.084  0.00  0.00    +0.000 A 
ATOM      8  C   UNL     1       1.901   5.493  18.007  0.00  0.00    +0.000 A 
BRANCH   5   9
ATOM      9  O   UNL     1       5.809   4.784  19.282  0.00  0.00    +0.000 OA
ATOM     10  C   UNL     1       6.856   5.370  18.512  0.00  0.00    +0.000 C 
ENDBRANCH   5   9
BRANCH   6  11
ATOM     11  O   UNL     1       4.321   2.730  18.589  0.00  0.00    +0.000 OA
ATOM     12  C   UNL     1       4.221   2.017  19.815  0.00  0.00    +0.000 C 
ENDBRANCH   6  11
BRANCH   7  13
ATOM     13  O   UNL     1       1.625   3.104  17.707  0.00  0.00    +0.000 OA
ATOM     14  C   UNL     1       0.793   2.487  18.685  0.00  0.00    +0.000 C 
ENDBRANCH   7  13
ENDBRANCH   1   3
BRANCH   1  18
ATOM     15  C   UNL     1       0.460  10.093  21.127  0.00  0.00    +0.000 A 
ATOM     16  C   UNL     1       0.877   8.924  21.738  0.00  0.00    +0.000 A 
ATOM     17  C   UNL     1       1.545   8.037  20.842  0.00  0.00    +0.000 A 
ATOM     18  C   UNL     1       1.580   8.522  19.548  0.00  0.00    +0.000 A 
ATOM     19  S   UNL     1       0.774  10.020  19.435  0.00  0.00    +0.000 S 
BRANCH  15  25
ATOM     20  C   UNL     1       0.421  12.589  21.623  0.00  0.00    +0.000 A 
ATOM     21  C   UNL     1      -0.259  13.701  22.144  0.00  0.00    +0.000 A 
ATOM     22  C   UNL     1      -1.479  13.552  22.808  0.00  0.00    +0.000 A 
ATOM     23  C   UNL     1      -2.044  12.291  22.933  0.00  0.00    +0.000 A 
ATOM     24  C   UNL     1      -1.399  11.187  22.380  0.00  0.00    +0.000 A 
ATOM     25  C   UNL     1      -0.158  11.305  21.716  0.00  0.00    +0.000 A 
BRANCH  20  27
ATOM     26  C   UNL     1       1.713  13.772  20.031  0.00  0.00    +0.000 C 
ATOM     27  O   UNL     1       1.633  12.717  20.986  0.00  0.00    +0.000 OA
ENDBRANCH  20  27
ENDBRANCH  15  25
ENDBRANCH   1  18
TORSDOF 7
ENDMDL
MODEL 7
REMARK VINA RESULT:      -6.9      1.687      2.371
REMARK  Name = 
REMARK  11 active torsions:
REMARK  status: ('A' for Active; 'I' for Inactive)
REMARK    1  A    between atoms: C_1  and  O_2
REMARK    2  A    between atoms: O_2  and  C_3
REMARK    3  A    between atoms: C_8  and  C_9
REMARK    4  A    between atoms: C_12  and  C_13
REMARK    5  A    between atoms: C_13  and  C_15
REMARK    6  A    between atoms: C_17  and  O_18
REMARK    7  A    between atoms: O_18  and  C_19
REMARK    8  A    between atoms: C_20  and  O_21
REMARK    9  A    between atoms: O_21  and  C_22
REMARK   10  A    between atoms: C_23  and  O_24
REMARK   11  A    between atoms: O_24  and  C_25
REMARK                            x       y       z     vdW  Elec       q    Type
REMARK                         _______ _______ _______ _____ _____    ______ ____
ROOT
ATOM      1  C   UNL     1       0.636  10.321  19.823  0.00  0.00    +0.000 C 
ATOM      2  O   UNL     1       1.065  10.977  20.771  0.00  0.00    +0.000 OA
ENDROOT
BRANCH   1   3
ATOM      3  C   UNL     1      -0.705  10.689  19.300  0.00  0.00    +0.000 A 
ATOM      4  C   UNL     1      -1.447  11.655  19.971  0.00  0.00    +0.000 A 
ATOM      5  C   UNL     1      -2.691  12.053  19.476  0.00  0.00    +0.000 A 
ATOM      6  C   UNL     1      -3.213  11.445  18.308  0.00  0.00    +0.000 A 
ATOM      7  C   UNL     1      -2.481  10.434  17.656  0.00  0.00    +0.000 A 
ATOM      8  C   UNL     1      -1.232  10.056  18.168  0.00  0.00    +0.000 A 
BRANCH   5   9
ATOM      9  O   UNL     1      -3.458  13.021  20.077  0.00  0.00    +0.000 OA
ATOM     10  C   UNL     1      -3.876  12.754  21.414  0.00  0.00    +0.000 C 
ENDBRANCH   5   9
BRANCH   6  11
ATOM     11  O   UNL     1      -4.474  11.864  17.946  0.00  0.00    +0.000 OA
ATOM     12  C   UNL     1      -5.563  11.019  18.295  0.00  0.00    +0.000 C 
ENDBRANCH   6  11
BRANCH   7  13
ATOM     13  O   UNL     1      -3.027   9.824  16.557  0.00  0.00    +0.000 OA
ATOM     14  C   UNL     1      -2.824  10.420  15.280  0.00  0.00    +0.000 C 
ENDBRANCH   7  13
ENDBRANCH   1   3
BRANCH   1  18
ATOM     15  C   UNL     1       2.637   7.127  18.804  0.00  0.00    +0.000 A 
ATOM     16  C   UNL     1       2.573   7.921  17.672  0.00  0.00    +0.000 A 
ATOM     17  C   UNL     1       1.873   9.145  17.891  0.00  0.00    +0.000 A 
ATOM     18  C   UNL     1       1.371   9.243  19.176  0.00  0.00    +0.000 A 
ATOM     19  S   UNL     1       1.721   7.838  20.076  0.00  0.00    +0.000 S 
BRANCH  15  25
ATOM     20  C   UNL     1       2.710   4.649  19.381  0.00  0.00    +0.000 A 
ATOM     21  C   UNL     1       3.455   3.466  19.509  0.00  0.00    +0.000 A 
ATOM     22  C   UNL     1       4.842   3.469  19.350  0.00  0.00    +0.000 A 
ATOM     23  C   UNL     1       5.496   4.650  19.036  0.00  0.00    +0.000 A 
ATOM     24  C   UNL     1       4.762   5.822  18.863  0.00  0.00    +0.000 A 
ATOM     25  C   UNL     1       3.360   5.853  19.030  0.00  0.00    +0.000 A 
BRANCH  20  27
ATOM     26  C   UNL     1       0.800   3.534  20.223  0.00  0.00    +0.000 C 
ATOM     27  O   UNL     1       1.347   4.668  19.555  0.00  0.00    +0.000 OA
ENDBRANCH  20  27
ENDBRANCH  15  25
ENDBRANCH   1  18
TORSDOF 7
ENDMDL
MODEL 8
REMARK VINA RESULT:      -6.9      2.296      8.808
REMARK  Name = 
REMARK  11 active torsions:
REMARK  status: ('A' for Active; 'I' for Inactive)
REMARK    1  A    between atoms: C_1  and  O_2
REMARK    2  A    between atoms: O_2  and  C_3
REMARK    3  A    between atoms: C_8  and  C_9
REMARK    4  A    between atoms: C_12  and  C_13
REMARK    5  A    between atoms: C_13  and  C_15
REMARK    6  A    between atoms: C_17  and  O_18
REMARK    7  A    between atoms: O_18  and  C_19
REMARK    8  A    between atoms: C_20  and  O_21
REMARK    9  A    between atoms: O_21  and  C_22
REMARK   10  A    between atoms: C_23  and  O_24
REMARK   11  A    between atoms: O_24  and  C_25
REMARK                            x       y       z     vdW  Elec       q    Type
REMARK                         _______ _______ _______ _____ _____    ______ ____
ROOT
ATOM      1  C   UNL     1       2.552   7.865  18.178  0.00  0.00    +0.000 C 
ATOM      2  O   UNL     1       2.962   8.532  17.229  0.00  0.00    +0.000 OA
ENDROOT
BRANCH   1   3
ATOM      3  C   UNL     1       2.974   6.442  18.234  0.00  0.00    +0.000 A 
ATOM      4  C   UNL     1       4.300   6.144  18.533  0.00  0.00    +0.000 A 
ATOM      5  C   UNL     1       4.714   4.815  18.637  0.00  0.00    +0.000 A 
ATOM      6  C   UNL     1       3.789   3.767  18.402  0.00  0.00    +0.000 A 
ATOM      7  C   UNL     1       2.459   4.070  18.055  0.00  0.00    +0.000 A 
ATOM      8  C   UNL     1       2.065   5.413  17.962  0.00  0.00    +0.000 A 
BRANCH   5   9
ATOM      9  O   UNL     1       6.001   4.457  18.958  0.00  0.00    +0.000 OA
ATOM     10  C   UNL     1       7.010   4.835  18.024  0.00  0.00    +0.000 C 
ENDBRANCH   5   9
BRANCH   6  11
ATOM     11  O   UNL     1       4.318   2.498  18.466  0.00  0.00    +0.000 OA
ATOM     12  C   UNL     1       4.292   1.848  19.731  0.00  0.00    +0.000 C 
ENDBRANCH   6  11
BRANCH   7  13
ATOM     13  O   UNL     1       1.594   3.042  17.782  0.00  0.00    +0.000 OA
ATOM     14  C   UNL     1       0.776   2.547  18.837  0.00  0.00    +0.000 C 
ENDBRANCH   7  13
ENDBRANCH   1   3
BRANCH   1  18
ATOM     15  C   UNL     1       0.221   9.888  20.569  0.00  0.00    +0.000 A 
ATOM     16  C   UNL     1       0.640   8.779  21.283  0.00  0.00    +0.000 A 
ATOM     17  C   UNL     1       1.519   7.938  20.538  0.00  0.00    +0.000 A 
ATOM     18  C   UNL     1       1.716   8.393  19.248  0.00  0.00    +0.000 A 
ATOM     19  S   UNL     1       0.806   9.804  18.952  0.00  0.00    +0.000 S 
BRANCH  15  25
ATOM     20  C   UNL     1      -1.514  11.706  20.166  0.00  0.00    +0.000 A 
ATOM     21  C   UNL     1      -2.298  12.754  20.674  0.00  0.00    +0.000 A 
ATOM     22  C   UNL     1      -2.138  13.199  21.988  0.00  0.00    +0.000 A 
ATOM     23  C   UNL     1      -1.212  12.583  22.815  0.00  0.00    +0.000 A 
ATOM     24  C   UNL     1      -0.460  11.513  22.335  0.00  0.00    +0.000 A 
ATOM     25  C   UNL     1      -0.590  11.050  21.007  0.00  0.00    +0.000 A 
BRANCH  20  27
ATOM     26  C   UNL     1      -2.948  11.394  18.309  0.00  0.00    +0.000 C 
ATOM     27  O   UNL     1      -1.643  11.270  18.869  0.00  0.00    +0.000 OA
ENDBRANCH  20  27
ENDBRANCH  15  25
ENDBRANCH   1  18
TORSDOF 7
ENDMDL
MODEL 9
REMARK VINA RESULT:      -6.9      3.062      8.739
REMARK  Name = 
REMARK  11 active torsions:
REMARK  status: ('A' for Active; 'I' for Inactive)
REMARK    1  A    between atoms: C_1  and  O_2
REMARK    2  A    between atoms: O_2  and  C_3
REMARK    3  A    between atoms: C_8  and  C_9
REMARK    4  A    between atoms: C_12  and  C_13
REMARK    5  A    between atoms: C_13  and  C_15
REMARK    6  A    between atoms: C_17  and  O_18
REMARK    7  A    between atoms: O_18  and  C_19
REMARK    8  A    between atoms: C_20  and  O_21
REMARK    9  A    between atoms: O_21  and  C_22
REMARK   10  A    between atoms: C_23  and  O_24
REMARK   11  A    between atoms: O_24  and  C_25
REMARK                            x       y       z     vdW  Elec       q    Type
REMARK                         _______ _______ _______ _____ _____    ______ ____
ROOT
ATOM      1  C   UNL     1       2.813   7.663  17.910  0.00  0.00    +0.000 C 
ATOM      2  O   UNL     1       3.205   8.153  16.852  0.00  0.00    +0.000 OA
ENDROOT
BRANCH   1   3
ATOM      3  C   UNL     1       3.231   6.268  18.204  0.00  0.00    +0.000 A 
ATOM      4  C   UNL     1       2.256   5.283  18.316  0.00  0.00    +0.000 A 
ATOM      5  C   UNL     1       2.623   3.956  18.547  0.00  0.00    +0.000 A 
ATOM      6  C   UNL     1       3.990   3.619  18.703  0.00  0.00    +0.000 A 
ATOM      7  C   UNL     1       4.973   4.625  18.635  0.00  0.00    +0.000 A 
ATOM      8  C   UNL     1       4.581   5.949  18.396  0.00  0.00    +0.000 A 
BRANCH   5   9
ATOM      9  O   UNL     1       1.710   2.934  18.638  0.00  0.00    +0.000 OA
ATOM     10  C   UNL     1       0.836   2.969  19.765  0.00  0.00    +0.000 C 
ENDBRANCH   5   9
BRANCH   6  11
ATOM     11  O   UNL     1       4.235   2.295  18.992  0.00  0.00    +0.000 OA
ATOM     12  C   UNL     1       4.518   1.969  20.346  0.00  0.00    +0.000 C 
ENDBRANCH   6  11
BRANCH   7  13
ATOM     13  O   UNL     1       6.285   4.285  18.839  0.00  0.00    +0.000 OA
ATOM     14  C   UNL     1       7.295   5.089  18.238  0.00  0.00    +0.000 C 
ENDBRANCH   7  13
ENDBRANCH   1   3
BRANCH   1  18
ATOM     15  C   UNL     1       0.605  10.123  19.988  0.00  0.00    +0.000 A 
ATOM     16  C   UNL     1       0.918   9.074  20.835  0.00  0.00    +0.000 A 
ATOM     17  C   UNL     1       1.741   8.087  20.216  0.00  0.00    +0.000 A 
ATOM     18  C   UNL     1       2.001   8.374  18.888  0.00  0.00    +0.000 A 
ATOM     19  S   UNL     1       1.214   9.809  18.409  0.00  0.00    +0.000 S 
BRANCH  15  25
ATOM     20  C   UNL     1       0.511  12.534  20.799  0.00  0.00    +0.000 A 
ATOM     21  C   UNL     1      -0.224  13.717  20.970  0.00  0.00    +0.000 A 
ATOM     22  C   UNL     1      -1.589  13.765  20.676  0.00  0.00    +0.000 A 
ATOM     23  C   UNL     1      -2.225  12.635  20.183  0.00  0.00    +0.000 A 
ATOM     24  C   UNL     1      -1.495  11.469  19.968  0.00  0.00    +0.000 A 
ATOM     25  C   UNL     1      -0.118  11.387  20.268  0.00  0.00    +0.000 A 
BRANCH  20  27
ATOM     26  C   UNL     1       2.617  13.615  20.755  0.00  0.00    +0.000 C 
ATOM     27  O   UNL     1       1.850  12.465  21.103  0.00  0.00    +0.000 OA
ENDBRANCH  20  27
ENDBRANCH  15  25
ENDBRANCH   1  18
TORSDOF 7
ENDMDL
