MODEL 1
REMARK VINA RESULT:      -8.9      0.000      0.000
REMARK  Name = 
REMARK  10 active torsions:
REMARK  status: ('A' for Active; 'I' for Inactive)
REMARK    1  A    between atoms: C_1  and  C_2
REMARK    2  A    between atoms: C_2  and  C_3
REMARK    3  A    between atoms: C_2  and  O_4
REMARK    4  A    between atoms: O_4  and  C_5
REMARK    5  A    between atoms: C_8  and  C_9
REMARK    6  A    between atoms: C_9  and  N_10
REMARK    7  A    between atoms: C_11  and  C_13
REMARK    8  A    between atoms: C_13  and  C_14
REMARK    9  A    between atoms: C_14  and  C_15
REMARK   10  A    between atoms: C_15  and  N_16
REMARK                            x       y       z     vdW  Elec       q    Type
REMARK                         _______ _______ _______ _____ _____    ______ ____
ROOT
ATOM      1  C   UNL     1       7.394   6.077  18.619  0.00  0.00    +0.000 C 
ENDROOT
BRANCH   1   3
ATOM      2  N   UNL     1       8.066   8.397  18.255  0.00  0.00    +0.000 N 
ATOM      3  C   UNL     1       7.734   7.197  17.635  0.00  0.00    +0.000 C 
ATOM      4  O   UNL     1       7.698   7.052  16.419  0.00  0.00    +0.000 OA
ATOM      5  H   UNL     1       8.108   8.431  19.268  0.00  0.00    +0.000 HD
BRANCH   2   6
ATOM      6  C   UNL     1       8.346   9.640  17.541  0.00  0.00    +0.000 C 
BRANCH   6  10
ATOM      7  C   UNL     1       9.972  12.835  20.012  0.00  0.00    +0.000 A 
ATOM      8  C   UNL     1       9.556  13.066  18.712  0.00  0.00    +0.000 A 
ATOM      9  C   UNL     1       9.042  12.027  17.926  0.00  0.00    +0.000 A 
ATOM     10  C   UNL     1       8.956  10.719  18.414  0.00  0.00    +0.000 A 
ATOM     11  C   UNL     1       9.374  10.483  19.734  0.00  0.00    +0.000 A 
ATOM     12  C   UNL     1       9.883  11.531  20.526  0.00  0.00    +0.000 A 
BRANCH   7  13
ATOM     13  O   UNL     1      10.475  13.781  20.874  0.00  0.00    +0.000 OA
BRANCH  13  15
ATOM     14  C   UNL     1      12.333  14.254  19.428  0.00  0.00    +0.000 C 
ATOM     15  C   UNL     1      11.251  14.857  20.321  0.00  0.00    +0.000 C 
ATOM     16  C   UNL     1      10.358  15.784  19.495  0.00  0.00    +0.000 C 
ENDBRANCH  13  15
ENDBRANCH   7  13
ENDBRANCH   6  10
ENDBRANCH   2   6
ENDBRANCH   1   3
BRANCH   1  17
ATOM     17  C   UNL     1       7.191   4.653  18.046  0.00  0.00    +0.000 C 
BRANCH  17  18
ATOM     18  C   UNL     1       5.789   4.347  17.488  0.00  0.00    +0.000 C 
BRANCH  18  19
ATOM     19  N   UNL     1       4.665   4.572  18.424  0.00  0.00    +0.000 N 
ATOM     20  C   UNL     1       4.451   3.601  19.424  0.00  0.00    +0.000 A 
ATOM     21  O   UNL     1       5.293   2.747  19.714  0.00  0.00    +0.000 OA
ATOM     22  C   UNL     1       3.144   3.626  20.037  0.00  0.00    +0.000 A 
ATOM     23  C   UNL     1       2.452   2.650  20.732  0.00  0.00    +0.000 A 
ATOM     24  C   UNL     1       1.159   3.161  21.008  0.00  0.00    +0.000 A 
ATOM     25  C   UNL     1       1.129   4.460  20.553  0.00  0.00    +0.000 A 
ATOM     26  N   UNL     1       2.344   4.734  19.964  0.00  0.00    +0.000 N 
ATOM     27  C   UNL     1       2.741   5.883  19.266  0.00  0.00    +0.000 A 
ATOM     28  C   UNL     1       2.035   7.080  19.420  0.00  0.00    +0.000 A 
ATOM     29  C   UNL     1       2.331   8.147  18.588  0.00  0.00    +0.000 A 
ATOM     30  C   UNL     1       3.270   7.974  17.569  0.00  0.00    +0.000 A 
ATOM     31  C   UNL     1       4.004   6.781  17.451  0.00  0.00    +0.000 A 
ATOM     32  C   UNL     1       3.820   5.741  18.359  0.00  0.00    +0.000 A 
ENDBRANCH  18  19
ENDBRANCH  17  18
ENDBRANCH   1  17
TORSDOF 8
ENDMDL
MODEL 2
REMARK VINA RESULT:      -8.8      0.654      1.052
REMARK  Name = 
REMARK  10 active torsions:
REMARK  status: ('A' for Active; 'I' for Inactive)
REMARK    1  A    between atoms: C_1  and  C_2
REMARK    2  A    between atoms: C_2  and  C_3
REMARK    3  A    between atoms: C_2  and  O_4
REMARK    4  A    between atoms: O_4  and  C_5
REMARK    5  A    between atoms: C_8  and  C_9
REMARK    6  A    between atoms: C_9  and  N_10
REMARK    7  A    between atoms: C_11  and  C_13
REMARK    8  A    between atoms: C_13  and  C_14
REMARK    9  A    between atoms: C_14  and  C_15
REMARK   10  A    between atoms: C_15  and  N_16
REMARK                            x       y       z     vdW  Elec       q    Type
REMARK                         _______ _______ _______ _____ _____    ______ ____
ROOT
ATOM      1  C   UNL     1       7.564   5.890  18.799  0.00  0.00    +0.000 C 
ENDROOT
BRANCH   1   3
ATOM      2  N   UNL     1       8.118   8.230  18.370  0.00  0.00    +0.000 N 
ATOM      3  C   UNL     1       7.773   7.017  17.786  0.00  0.00    +0.000 C 
ATOM      4  O   UNL     1       7.631   6.864  16.579  0.00  0.00    +0.000 OA
ATOM      5  H   UNL     1       8.251   8.271  19.375  0.00  0.00    +0.000 HD
BRANCH   2   6
ATOM      6  C   UNL     1       8.287   9.479  17.631  0.00  0.00    +0.000 C 
BRANCH   6  10
ATOM      7  C   UNL     1      10.833  12.277  19.786  0.00  0.00    +0.000 A 
ATOM      8  C   UNL     1       9.792  11.615  20.413  0.00  0.00    +0.000 A 
ATOM      9  C   UNL     1       8.977  10.724  19.706  0.00  0.00    +0.000 A 
ATOM     10  C   UNL     1       9.165  10.491  18.340  0.00  0.00    +0.000 A 
ATOM     11  C   UNL     1      10.223  11.160  17.702  0.00  0.00    +0.000 A 
ATOM     12  C   UNL     1      11.048  12.049  18.417  0.00  0.00    +0.000 A 
BRANCH   7  13
ATOM     13  O   UNL     1      11.702  13.158  20.386  0.00  0.00    +0.000 OA
BRANCH  13  15
ATOM     14  C   UNL     1      10.649  14.940  19.168  0.00  0.00    +0.000 C 
ATOM     15  C   UNL     1      11.309  14.537  20.485  0.00  0.00    +0.000 C 
ATOM     16  C   UNL     1      10.320  14.724  21.635  0.00  0.00    +0.000 C 
ENDBRANCH  13  15
ENDBRANCH   7  13
ENDBRANCH   6  10
ENDBRANCH   2   6
ENDBRANCH   1   3
BRANCH   1  17
ATOM     17  C   UNL     1       7.251   4.477  18.250  0.00  0.00    +0.000 C 
BRANCH  17  18
ATOM     18  C   UNL     1       5.867   4.299  17.600  0.00  0.00    +0.000 C 
BRANCH  18  19
ATOM     19  N   UNL     1       4.708   4.539  18.489  0.00  0.00    +0.000 N 
ATOM     20  C   UNL     1       4.448   3.577  19.488  0.00  0.00    +0.000 A 
ATOM     21  O   UNL     1       5.273   2.720  19.818  0.00  0.00    +0.000 OA
ATOM     22  C   UNL     1       3.119   3.615  20.049  0.00  0.00    +0.000 A 
ATOM     23  C   UNL     1       2.394   2.648  20.724  0.00  0.00    +0.000 A 
ATOM     24  C   UNL     1       1.094   3.169  20.945  0.00  0.00    +0.000 A 
ATOM     25  C   UNL     1       1.090   4.465  20.479  0.00  0.00    +0.000 A 
ATOM     26  N   UNL     1       2.329   4.728  19.936  0.00  0.00    +0.000 N 
ATOM     27  C   UNL     1       2.760   5.868  19.246  0.00  0.00    +0.000 A 
ATOM     28  C   UNL     1       2.057   7.071  19.363  0.00  0.00    +0.000 A 
ATOM     29  C   UNL     1       2.391   8.129  18.534  0.00  0.00    +0.000 A 
ATOM     30  C   UNL     1       3.369   7.942  17.554  0.00  0.00    +0.000 A 
ATOM     31  C   UNL     1       4.099   6.744  17.474  0.00  0.00    +0.000 A 
ATOM     32  C   UNL     1       3.873   5.712  18.383  0.00  0.00    +0.000 A 
ENDBRANCH  18  19
ENDBRANCH  17  18
ENDBRANCH   1  17
TORSDOF 8
ENDMDL
MODEL 3
REMARK VINA RESULT:      -8.7      1.377      2.963
REMARK  Name = 
REMARK  10 active torsions:
REMARK  status: ('A' for Active; 'I' for Inactive)
REMARK    1  A    between atoms: C_1  and  C_2
REMARK    2  A    between atoms: C_2  and  C_3
REMARK    3  A    between atoms: C_2  and  O_4
REMARK    4  A    between atoms: O_4  and  C_5
REMARK    5  A    between atoms: C_8  and  C_9
REMARK    6  A    between atoms: C_9  and  N_10
REMARK    7  A    between atoms: C_11  and  C_13
REMARK    8  A    between atoms: C_13  and  C_14
REMARK    9  A    between atoms: C_14  and  C_15
REMARK   10  A    between atoms: C_15  and  N_16
REMARK                            x       y       z     vdW  Elec       q    Type
REMARK                         _______ _______ _______ _____ _____    ______ ____
ROOT
ATOM      1  C   UNL     1       7.398   6.266  18.639  0.00  0.00    +0.000 C 
ENDROOT
BRANCH   1   3
ATOM      2  N   UNL     1       8.228   8.540  18.311  0.00  0.00    +0.000 N 
ATOM      3  C   UNL     1       7.796   7.383  17.673  0.00  0.00    +0.000 C 
ATOM      4  O   UNL     1       7.722   7.270  16.455  0.00  0.00    +0.000 OA
ATOM      5  H   UNL     1       8.295   8.547  19.323  0.00  0.00    +0.000 HD
BRANCH   2   6
ATOM      6  C   UNL     1       8.579   9.777  17.618  0.00  0.00    +0.000 C 
BRANCH   6  10
ATOM      7  C   UNL     1      10.071  12.927  20.228  0.00  0.00    +0.000 A 
ATOM      8  C   UNL     1       9.492  13.215  19.004  0.00  0.00    +0.000 A 
ATOM      9  C   UNL     1       9.023  12.191  18.171  0.00  0.00    +0.000 A 
ATOM     10  C   UNL     1       9.147  10.845  18.531  0.00  0.00    +0.000 A 
ATOM     11  C   UNL     1       9.732  10.551  19.775  0.00  0.00    +0.000 A 
ATOM     12  C   UNL     1      10.194  11.583  20.614  0.00  0.00    +0.000 A 
BRANCH   7  13
ATOM     13  O   UNL     1      10.547  13.852  21.127  0.00  0.00    +0.000 OA
BRANCH  13  15
ATOM     14  C   UNL     1       8.734  14.350  22.621  0.00  0.00    +0.000 C 
ATOM     15  C   UNL     1       9.666  14.906  21.546  0.00  0.00    +0.000 C 
ATOM     16  C   UNL     1      10.471  16.075  22.116  0.00  0.00    +0.000 C 
ENDBRANCH  13  15
ENDBRANCH   7  13
ENDBRANCH   6  10
ENDBRANCH   2   6
ENDBRANCH   1   3
BRANCH   1  17
ATOM     17  C   UNL     1       7.308   4.826  18.078  0.00  0.00    +0.000 C 
BRANCH  17  18
ATOM     18  C   UNL     1       6.046   4.502  17.259  0.00  0.00    +0.000 C 
BRANCH  18  19
ATOM     19  N   UNL     1       4.779   5.046  17.796  0.00  0.00    +0.000 N 
ATOM     20  C   UNL     1       4.263   6.208  17.186  0.00  0.00    +0.000 A 
ATOM     21  O   UNL     1       4.659   6.618  16.090  0.00  0.00    +0.000 OA
ATOM     22  C   UNL     1       3.289   6.934  17.966  0.00  0.00    +0.000 A 
ATOM     23  C   UNL     1       2.871   8.251  17.892  0.00  0.00    +0.000 A 
ATOM     24  C   UNL     1       1.984   8.476  18.976  0.00  0.00    +0.000 A 
ATOM     25  C   UNL     1       1.820   7.272  19.624  0.00  0.00    +0.000 A 
ATOM     26  N   UNL     1       2.619   6.339  19.000  0.00  0.00    +0.000 N 
ATOM     27  C   UNL     1       2.868   5.011  19.370  0.00  0.00    +0.000 A 
ATOM     28  C   UNL     1       2.001   4.348  20.245  0.00  0.00    +0.000 A 
ATOM     29  C   UNL     1       2.363   3.105  20.738  0.00  0.00    +0.000 A 
ATOM     30  C   UNL     1       3.616   2.583  20.408  0.00  0.00    +0.000 A 
ATOM     31  C   UNL     1       4.459   3.236  19.494  0.00  0.00    +0.000 A 
ATOM     32  C   UNL     1       4.060   4.422  18.882  0.00  0.00    +0.000 A 
ENDBRANCH  18  19
ENDBRANCH  17  18
ENDBRANCH   1  17
TORSDOF 8
ENDMDL
MODEL 4
REMARK VINA RESULT:      -8.5      2.242     10.230
REMARK  Name = 
REMARK  10 active torsions:
REMARK  status: ('A' for Active; 'I' for Inactive)
REMARK    1  A    between atoms: C_1  and  C_2
REMARK    2  A    between atoms: C_2  and  C_3
REMARK    3  A    between atoms: C_2  and  O_4
REMARK    4  A    between atoms: O_4  and  C_5
REMARK    5  A    between atoms: C_8  and  C_9
REMARK    6  A    between atoms: C_9  and  N_10
REMARK    7  A    between atoms: C_11  and  C_13
REMARK    8  A    between atoms: C_13  and  C_14
REMARK    9  A    between atoms: C_14  and  C_15
REMARK   10  A    between atoms: C_15  and  N_16
REMARK                            x       y       z     vdW  Elec       q    Type
REMARK                         _______ _______ _______ _____ _____    ______ ____
ROOT
ATOM      1  C   UNL     1       8.554   8.228  18.437  0.00  0.00    +0.000 C 
ENDROOT
BRANCH   1   3
ATOM      2  N   UNL     1       7.757   6.199  17.336  0.00  0.00    +0.000 N 
ATOM      3  C   UNL     1       7.525   7.556  17.527  0.00  0.00    +0.000 C 
ATOM      4  O   UNL     1       6.598   8.164  17.004  0.00  0.00    +0.000 OA
ATOM      5  H   UNL     1       8.525   5.758  17.830  0.00  0.00    +0.000 HD
BRANCH   2   6
ATOM      6  C   UNL     1       6.972   5.349  16.444  0.00  0.00    +0.000 C 
BRANCH   6  10
ATOM      7  C   UNL     1       3.678   3.423  18.540  0.00  0.00    +0.000 A 
ATOM      8  C   UNL     1       4.827   3.816  19.203  0.00  0.00    +0.000 A 
ATOM      9  C   UNL     1       5.882   4.427  18.516  0.00  0.00    +0.000 A 
ATOM     10  C   UNL     1       5.825   4.638  17.134  0.00  0.00    +0.000 A 
ATOM     11  C   UNL     1       4.658   4.243  16.459  0.00  0.00    +0.000 A 
ATOM     12  C   UNL     1       3.595   3.635  17.155  0.00  0.00    +0.000 A 
BRANCH   7  13
ATOM     13  O   UNL     1       2.580   2.830  19.118  0.00  0.00    +0.000 OA
BRANCH  13  15
ATOM     14  C   UNL     1       0.947   3.076  20.862  0.00  0.00    +0.000 C 
ATOM     15  C   UNL     1       1.517   3.680  19.581  0.00  0.00    +0.000 C 
ATOM     16  C   UNL     1       2.048   5.085  19.866  0.00  0.00    +0.000 C 
ENDBRANCH  13  15
ENDBRANCH   7  13
ENDBRANCH   6  10
ENDBRANCH   2   6
ENDBRANCH   1   3
BRANCH   1  17
ATOM     17  C   UNL     1       8.639   9.774  18.411  0.00  0.00    +0.000 C 
BRANCH  17  18
ATOM     18  C   UNL     1       9.681  10.406  19.351  0.00  0.00    +0.000 C 
BRANCH  18  19
ATOM     19  N   UNL     1       9.573  11.871  19.532  0.00  0.00    +0.000 N 
ATOM     20  C   UNL     1       8.953  12.333  20.712  0.00  0.00    +0.000 A 
ATOM     21  O   UNL     1       8.753  11.605  21.689  0.00  0.00    +0.000 OA
ATOM     22  C   UNL     1       8.498  13.703  20.672  0.00  0.00    +0.000 A 
ATOM     23  C   UNL     1       7.550  14.363  21.434  0.00  0.00    +0.000 A 
ATOM     24  C   UNL     1       7.405  15.666  20.896  0.00  0.00    +0.000 A 
ATOM     25  C   UNL     1       8.328  15.792  19.881  0.00  0.00    +0.000 A 
ATOM     26  N   UNL     1       8.990  14.591  19.754  0.00  0.00    +0.000 N 
ATOM     27  C   UNL     1       9.931  14.206  18.790  0.00  0.00    +0.000 A 
ATOM     28  C   UNL     1      10.607  15.173  18.040  0.00  0.00    +0.000 A 
ATOM     29  C   UNL     1      11.393  14.768  16.973  0.00  0.00    +0.000 A 
ATOM     30  C   UNL     1      11.429  13.415  16.631  0.00  0.00    +0.000 A 
ATOM     31  C   UNL     1      10.782  12.448  17.418  0.00  0.00    +0.000 A 
ATOM     32  C   UNL     1      10.094  12.816  18.573  0.00  0.00    +0.000 A 
ENDBRANCH  18  19
ENDBRANCH  17  18
ENDBRANCH   1  17
TORSDOF 8
ENDMDL
MODEL 5
REMARK VINA RESULT:      -8.5      4.565      8.076
REMARK  Name = 
REMARK  10 active torsions:
REMARK  status: ('A' for Active; 'I' for Inactive)
REMARK    1  A    between atoms: C_1  and  C_2
REMARK    2  A    between atoms: C_2  and  C_3
REMARK    3  A    between atoms: C_2  and  O_4
REMARK    4  A    between atoms: O_4  and  C_5
REMARK    5  A    between atoms: C_8  and  C_9
REMARK    6  A    between atoms: C_9  and  N_10
REMARK    7  A    between atoms: C_11  and  C_13
REMARK    8  A    between atoms: C_13  and  C_14
REMARK    9  A    between atoms: C_14  and  C_15
REMARK   10  A    between atoms: C_15  and  N_16
REMARK                            x       y       z     vdW  Elec       q    Type
REMARK                         _______ _______ _______ _____ _____    ______ ____
ROOT
ATOM      1  C   UNL     1       2.632   4.879  20.319  0.00  0.00    +0.000 C 
ENDROOT
BRANCH   1   3
ATOM      2  N   UNL     1       1.993   7.236  20.352  0.00  0.00    +0.000 N 
ATOM      3  C   UNL     1       2.400   6.178  19.547  0.00  0.00    +0.000 C 
ATOM      4  O   UNL     1       2.541   6.268  18.333  0.00  0.00    +0.000 OA
ATOM      5  H   UNL     1       1.931   7.095  21.354  0.00  0.00    +0.000 HD
BRANCH   2   6
ATOM      6  C   UNL     1       1.622   8.557  19.848  0.00  0.00    +0.000 C 
BRANCH   6  10
ATOM      7  C   UNL     1      -0.675  10.862  22.740  0.00  0.00    +0.000 A 
ATOM      8  C   UNL     1      -0.078   9.661  23.082  0.00  0.00    +0.000 A 
ATOM      9  C   UNL     1       0.652   8.927  22.139  0.00  0.00    +0.000 A 
ATOM     10  C   UNL     1       0.781   9.363  20.817  0.00  0.00    +0.000 A 
ATOM     11  C   UNL     1       0.179  10.584  20.469  0.00  0.00    +0.000 A 
ATOM     12  C   UNL     1      -0.548  11.325  21.421  0.00  0.00    +0.000 A 
BRANCH   7  13
ATOM     13  O   UNL     1      -1.397  11.669  23.587  0.00  0.00    +0.000 OA
BRANCH  13  15
ATOM     14  C   UNL     1      -3.575  12.604  23.199  0.00  0.00    +0.000 C 
ATOM     15  C   UNL     1      -2.071  12.808  23.027  0.00  0.00    +0.000 C 
ATOM     16  C   UNL     1      -1.639  14.086  23.745  0.00  0.00    +0.000 C 
ENDBRANCH  13  15
ENDBRANCH   7  13
ENDBRANCH   6  10
ENDBRANCH   2   6
ENDBRANCH   1   3
BRANCH   1  17
ATOM     17  C   UNL     1       2.914   3.595  19.501  0.00  0.00    +0.000 C 
BRANCH  17  18
ATOM     18  C   UNL     1       4.398   3.270  19.251  0.00  0.00    +0.000 C 
BRANCH  18  19
ATOM     19  N   UNL     1       5.021   3.972  18.107  0.00  0.00    +0.000 N 
ATOM     20  C   UNL     1       4.455   3.763  16.832  0.00  0.00    +0.000 A 
ATOM     21  O   UNL     1       3.338   3.261  16.674  0.00  0.00    +0.000 OA
ATOM     22  C   UNL     1       5.303   4.109  15.717  0.00  0.00    +0.000 A 
ATOM     23  C   UNL     1       5.266   3.706  14.393  0.00  0.00    +0.000 A 
ATOM     24  C   UNL     1       6.408   4.249  13.752  0.00  0.00    +0.000 A 
ATOM     25  C   UNL     1       7.058   5.037  14.676  0.00  0.00    +0.000 A 
ATOM     26  N   UNL     1       6.375   4.946  15.870  0.00  0.00    +0.000 N 
ATOM     27  C   UNL     1       6.719   5.480  17.119  0.00  0.00    +0.000 A 
ATOM     28  C   UNL     1       7.645   6.523  17.209  0.00  0.00    +0.000 A 
ATOM     29  C   UNL     1       8.104   6.909  18.457  0.00  0.00    +0.000 A 
ATOM     30  C   UNL     1       7.689   6.197  19.584  0.00  0.00    +0.000 A 
ATOM     31  C   UNL     1       6.725   5.179  19.487  0.00  0.00    +0.000 A 
ATOM     32  C   UNL     1       6.149   4.861  18.259  0.00  0.00    +0.000 A 
ENDBRANCH  18  19
ENDBRANCH  17  18
ENDBRANCH   1  17
TORSDOF 8
ENDMDL
MODEL 6
REMARK VINA RESULT:      -8.4      1.272      2.752
REMARK  Name = 
REMARK  10 active torsions:
REMARK  status: ('A' for Active; 'I' for Inactive)
REMARK    1  A    between atoms: C_1  and  C_2
REMARK    2  A    between atoms: C_2  and  C_3
REMARK    3  A    between atoms: C_2  and  O_4
REMARK    4  A    between atoms: O_4  and  C_5
REMARK    5  A    between atoms: C_8  and  C_9
REMARK    6  A    between atoms: C_9  and  N_10
REMARK    7  A    between atoms: C_11  and  C_13
REMARK    8  A    between atoms: C_13  and  C_14
REMARK    9  A    between atoms: C_14  and  C_15
REMARK   10  A    between atoms: C_15  and  N_16
REMARK                            x       y       z     vdW  Elec       q    Type
REMARK                         _______ _______ _______ _____ _____    ______ ____
ROOT
ATOM      1  C   UNL     1       7.335   6.078  18.640  0.00  0.00    +0.000 C 
ENDROOT
BRANCH   1   3
ATOM      2  N   UNL     1       8.207   8.330  18.272  0.00  0.00    +0.000 N 
ATOM      3  C   UNL     1       7.654   7.210  17.662  0.00  0.00    +0.000 C 
ATOM      4  O   UNL     1       7.425   7.139  16.461  0.00  0.00    +0.000 OA
ATOM      5  H   UNL     1       8.399   8.303  19.267  0.00  0.00    +0.000 HD
BRANCH   2   6
ATOM      6  C   UNL     1       8.519   9.575  17.574  0.00  0.00    +0.000 C 
BRANCH   6  10
ATOM      7  C   UNL     1       9.973  12.769  20.152  0.00  0.00    +0.000 A 
ATOM      8  C   UNL     1       9.464  13.031  18.891  0.00  0.00    +0.000 A 
ATOM      9  C   UNL     1       9.007  11.994  18.070  0.00  0.00    +0.000 A 
ATOM     10  C   UNL     1       9.073  10.657  18.480  0.00  0.00    +0.000 A 
ATOM     11  C   UNL     1       9.586  10.390  19.760  0.00  0.00    +0.000 A 
ATOM     12  C   UNL     1      10.037  11.436  20.588  0.00  0.00    +0.000 A 
BRANCH   7  13
ATOM     13  O   UNL     1      10.432  13.710  21.043  0.00  0.00    +0.000 OA
BRANCH  13  15
ATOM     14  C   UNL     1      10.643  15.995  21.753  0.00  0.00    +0.000 C 
ATOM     15  C   UNL     1      10.671  15.042  20.559  0.00  0.00    +0.000 C 
ATOM     16  C   UNL     1      12.034  15.119  19.870  0.00  0.00    +0.000 C 
ENDBRANCH  13  15
ENDBRANCH   7  13
ENDBRANCH   6  10
ENDBRANCH   2   6
ENDBRANCH   1   3
BRANCH   1  17
ATOM     17  C   UNL     1       6.802   4.748  18.054  0.00  0.00    +0.000 C 
BRANCH  17  18
ATOM     18  C   UNL     1       5.537   4.858  17.182  0.00  0.00    +0.000 C 
BRANCH  18  19
ATOM     19  N   UNL     1       4.267   5.039  17.919  0.00  0.00    +0.000 N 
ATOM     20  C   UNL     1       3.761   6.351  18.025  0.00  0.00    +0.000 A 
ATOM     21  O   UNL     1       4.169   7.281  17.322  0.00  0.00    +0.000 OA
ATOM     22  C   UNL     1       2.782   6.552  19.066  0.00  0.00    +0.000 A 
ATOM     23  C   UNL     1       2.368   7.706  19.708  0.00  0.00    +0.000 A 
ATOM     24  C   UNL     1       1.472   7.322  20.737  0.00  0.00    +0.000 A 
ATOM     25  C   UNL     1       1.298   5.959  20.638  0.00  0.00    +0.000 A 
ATOM     26  N   UNL     1       2.099   5.500  19.615  0.00  0.00    +0.000 N 
ATOM     27  C   UNL     1       2.341   4.179  19.217  0.00  0.00    +0.000 A 
ATOM     28  C   UNL     1       1.464   3.157  19.594  0.00  0.00    +0.000 A 
ATOM     29  C   UNL     1       1.818   1.841  19.345  0.00  0.00    +0.000 A 
ATOM     30  C   UNL     1       3.072   1.567  18.795  0.00  0.00    +0.000 A 
ATOM     31  C   UNL     1       3.926   2.602  18.379  0.00  0.00    +0.000 A 
ATOM     32  C   UNL     1       3.536   3.935  18.497  0.00  0.00    +0.000 A 
ENDBRANCH  18  19
ENDBRANCH  17  18
ENDBRANCH   1  17
TORSDOF 8
ENDMDL
MODEL 7
REMARK VINA RESULT:      -8.3      2.318     10.051
REMARK  Name = 
REMARK  10 active torsions:
REMARK  status: ('A' for Active; 'I' for Inactive)
REMARK    1  A    between atoms: C_1  and  C_2
REMARK    2  A    between atoms: C_2  and  C_3
REMARK    3  A    between atoms: C_2  and  O_4
REMARK    4  A    between atoms: O_4  and  C_5
REMARK    5  A    between atoms: C_8  and  C_9
REMARK    6  A    between atoms: C_9  and  N_10
REMARK    7  A    between atoms: C_11  and  C_13
REMARK    8  A    between atoms: C_13  and  C_14
REMARK    9  A    between atoms: C_14  and  C_15
REMARK   10  A    between atoms: C_15  and  N_16
REMARK                            x       y       z     vdW  Elec       q    Type
REMARK                         _______ _______ _______ _____ _____    ______ ____
ROOT
ATOM      1  C   UNL     1       8.482   8.205  18.897  0.00  0.00    +0.000 C 
ENDROOT
BRANCH   1   3
ATOM      2  N   UNL     1       7.063   7.592  17.005  0.00  0.00    +0.000 N 
ATOM      3  C   UNL     1       7.792   7.108  18.085  0.00  0.00    +0.000 C 
ATOM      4  O   UNL     1       7.863   5.919  18.374  0.00  0.00    +0.000 OA
ATOM      5  H   UNL     1       7.079   8.587  16.809  0.00  0.00    +0.000 HD
BRANCH   2   6
ATOM      6  C   UNL     1       6.243   6.760  16.127  0.00  0.00    +0.000 C 
BRANCH   6  10
ATOM      7  C   UNL     1       2.749   5.089  18.116  0.00  0.00    +0.000 A 
ATOM      8  C   UNL     1       3.634   4.289  17.414  0.00  0.00    +0.000 A 
ATOM      9  C   UNL     1       4.749   4.841  16.773  0.00  0.00    +0.000 A 
ATOM     10  C   UNL     1       4.995   6.218  16.795  0.00  0.00    +0.000 A 
ATOM     11  C   UNL     1       4.100   7.031  17.510  0.00  0.00    +0.000 A 
ATOM     12  C   UNL     1       2.983   6.473  18.161  0.00  0.00    +0.000 A 
BRANCH   7  13
ATOM     13  O   UNL     1       1.635   4.651  18.793  0.00  0.00    +0.000 OA
BRANCH  13  15
ATOM     14  C   UNL     1       1.348   3.589  20.928  0.00  0.00    +0.000 C 
ATOM     15  C   UNL     1       1.703   3.379  19.458  0.00  0.00    +0.000 C 
ATOM     16  C   UNL     1       0.717   2.397  18.825  0.00  0.00    +0.000 C 
ENDBRANCH  13  15
ENDBRANCH   7  13
ENDBRANCH   6  10
ENDBRANCH   2   6
ENDBRANCH   1   3
BRANCH   1  17
ATOM     17  C   UNL     1       8.543   9.625  18.284  0.00  0.00    +0.000 C 
BRANCH  17  18
ATOM     18  C   UNL     1       9.858  10.395  18.503  0.00  0.00    +0.000 C 
BRANCH  18  19
ATOM     19  N   UNL     1       9.722  11.717  19.154  0.00  0.00    +0.000 N 
ATOM     20  C   UNL     1       9.246  11.740  20.481  0.00  0.00    +0.000 A 
ATOM     21  O   UNL     1       9.200  10.731  21.190  0.00  0.00    +0.000 OA
ATOM     22  C   UNL     1       8.741  13.015  20.933  0.00  0.00    +0.000 A 
ATOM     23  C   UNL     1       7.878  13.331  21.968  0.00  0.00    +0.000 A 
ATOM     24  C   UNL     1       7.618  14.723  21.893  0.00  0.00    +0.000 A 
ATOM     25  C   UNL     1       8.395  15.229  20.875  0.00  0.00    +0.000 A 
ATOM     26  N   UNL     1       9.077  14.180  20.297  0.00  0.00    +0.000 N 
ATOM     27  C   UNL     1       9.898  14.188  19.162  0.00  0.00    +0.000 A 
ATOM     28  C   UNL     1      10.435  15.389  18.688  0.00  0.00    +0.000 A 
ATOM     29  C   UNL     1      11.089  15.398  17.467  0.00  0.00    +0.000 A 
ATOM     30  C   UNL     1      11.128  14.226  16.709  0.00  0.00    +0.000 A 
ATOM     31  C   UNL     1      10.624  13.015  17.213  0.00  0.00    +0.000 A 
ATOM     32  C   UNL     1      10.080  12.951  18.494  0.00  0.00    +0.000 A 
ENDBRANCH  18  19
ENDBRANCH  17  18
ENDBRANCH   1  17
TORSDOF 8
ENDMDL
MODEL 8
REMARK VINA RESULT:      -8.2      1.757      3.131
REMARK  Name = 
REMARK  10 active torsions:
REMARK  status: ('A' for Active; 'I' for Inactive)
REMARK    1  A    between atoms: C_1  and  C_2
REMARK    2  A    between atoms: C_2  and  C_3
REMARK    3  A    between atoms: C_2  and  O_4
REMARK    4  A    between atoms: O_4  and  C_5
REMARK    5  A    between atoms: C_8  and  C_9
REMARK    6  A    between atoms: C_9  and  N_10
REMARK    7  A    between atoms: C_11  and  C_13
REMARK    8  A    between atoms: C_13  and  C_14
REMARK    9  A    between atoms: C_14  and  C_15
REMARK   10  A    between atoms: C_15  and  N_16
REMARK                            x       y       z     vdW  Elec       q    Type
REMARK                         _______ _______ _______ _____ _____    ______ ____
ROOT
ATOM      1  C   UNL     1       6.836   7.491  17.105  0.00  0.00    +0.000 C 
ENDROOT
BRANCH   1   3
ATOM      2  N   UNL     1       8.252   9.153  18.202  0.00  0.00    +0.000 N 
ATOM      3  C   UNL     1       7.890   7.811  18.166  0.00  0.00    +0.000 C 
ATOM      4  O   UNL     1       8.378   6.960  18.900  0.00  0.00    +0.000 OA
ATOM      5  H   UNL     1       7.779   9.805  17.586  0.00  0.00    +0.000 HD
BRANCH   2   6
ATOM      6  C   UNL     1       9.298   9.699  19.063  0.00  0.00    +0.000 C 
BRANCH   6  10
ATOM      7  C   UNL     1       9.826  14.016  18.857  0.00  0.00    +0.000 A 
ATOM      8  C   UNL     1      10.344  13.273  19.903  0.00  0.00    +0.000 A 
ATOM      9  C   UNL     1      10.160  11.886  19.960  0.00  0.00    +0.000 A 
ATOM     10  C   UNL     1       9.426  11.207  18.982  0.00  0.00    +0.000 A 
ATOM     11  C   UNL     1       8.902  11.959  17.917  0.00  0.00    +0.000 A 
ATOM     12  C   UNL     1       9.096  13.353  17.857  0.00  0.00    +0.000 A 
BRANCH   7  13
ATOM     13  O   UNL     1       9.960  15.375  18.694  0.00  0.00    +0.000 OA
BRANCH  13  15
ATOM     14  C   UNL     1      10.179  16.957  20.487  0.00  0.00    +0.000 C 
ATOM     15  C   UNL     1       9.204  16.239  19.557  0.00  0.00    +0.000 C 
ATOM     16  C   UNL     1       8.428  17.265  18.732  0.00  0.00    +0.000 C 
ENDBRANCH  13  15
ENDBRANCH   7  13
ENDBRANCH   6  10
ENDBRANCH   2   6
ENDBRANCH   1   3
BRANCH   1  17
ATOM     17  C   UNL     1       6.437   6.008  16.910  0.00  0.00    +0.000 C 
BRANCH  17  18
ATOM     18  C   UNL     1       5.027   5.761  16.344  0.00  0.00    +0.000 C 
BRANCH  18  19
ATOM     19  N   UNL     1       3.949   5.628  17.350  0.00  0.00    +0.000 N 
ATOM     20  C   UNL     1       3.287   6.808  17.749  0.00  0.00    +0.000 A 
ATOM     21  O   UNL     1       3.374   7.866  17.119  0.00  0.00    +0.000 OA
ATOM     22  C   UNL     1       2.557   6.715  18.991  0.00  0.00    +0.000 A 
ATOM     23  C   UNL     1       2.132   7.700  19.866  0.00  0.00    +0.000 A 
ATOM     24  C   UNL     1       1.568   7.051  20.993  0.00  0.00    +0.000 A 
ATOM     25  C   UNL     1       1.586   5.698  20.736  0.00  0.00    +0.000 A 
ATOM     26  N   UNL     1       2.189   5.505  19.512  0.00  0.00    +0.000 N 
ATOM     27  C   UNL     1       2.531   4.299  18.884  0.00  0.00    +0.000 A 
ATOM     28  C   UNL     1       1.932   3.101  19.285  0.00  0.00    +0.000 A 
ATOM     29  C   UNL     1       2.415   1.906  18.780  0.00  0.00    +0.000 A 
ATOM     30  C   UNL     1       3.534   1.924  17.944  0.00  0.00    +0.000 A 
ATOM     31  C   UNL     1       4.100   3.136  17.513  0.00  0.00    +0.000 A 
ATOM     32  C   UNL     1       3.550   4.355  17.902  0.00  0.00    +0.000 A 
ENDBRANCH  18  19
ENDBRANCH  17  18
ENDBRANCH   1  17
TORSDOF 8
ENDMDL
MODEL 9
REMARK VINA RESULT:      -8.2      7.668     11.434
REMARK  Name = 
REMARK  10 active torsions:
REMARK  status: ('A' for Active; 'I' for Inactive)
REMARK    1  A    between atoms: C_1  and  C_2
REMARK    2  A    between atoms: C_2  and  C_3
REMARK    3  A    between atoms: C_2  and  O_4
REMARK    4  A    between atoms: O_4  and  C_5
REMARK    5  A    between atoms: C_8  and  C_9
REMARK    6  A    between atoms: C_9  and  N_10
REMARK    7  A    between atoms: C_11  and  C_13
REMARK    8  A    between atoms: C_13  and  C_14
REMARK    9  A    between atoms: C_14  and  C_15
REMARK   10  A    between atoms: C_15  and  N_16
REMARK                            x       y       z     vdW  Elec       q    Type
REMARK                         _______ _______ _______ _____ _____    ______ ____
ROOT
ATOM      1  C   UNL     1      -1.082  11.709  19.003  0.00  0.00    +0.000 C 
ENDROOT
BRANCH   1   3
ATOM      2  N   UNL     1       0.700  10.313  18.088  0.00  0.00    +0.000 N 
ATOM      3  C   UNL     1       0.394  11.311  19.005  0.00  0.00    +0.000 C 
ATOM      4  O   UNL     1       1.221  11.814  19.757  0.00  0.00    +0.000 OA
ATOM      5  H   UNL     1      -0.030   9.969  17.474  0.00  0.00    +0.000 HD
BRANCH   2   6
ATOM      6  C   UNL     1       2.018   9.696  17.953  0.00  0.00    +0.000 C 
BRANCH   6  10
ATOM      7  C   UNL     1       2.411   5.690  19.612  0.00  0.00    +0.000 A 
ATOM      8  C   UNL     1       2.663   5.948  18.276  0.00  0.00    +0.000 A 
ATOM      9  C   UNL     1       2.526   7.240  17.754  0.00  0.00    +0.000 A 
ATOM     10  C   UNL     1       2.104   8.307  18.554  0.00  0.00    +0.000 A 
ATOM     11  C   UNL     1       1.850   8.048  19.911  0.00  0.00    +0.000 A 
ATOM     12  C   UNL     1       1.998   6.749  20.436  0.00  0.00    +0.000 A 
BRANCH   7  13
ATOM     13  O   UNL     1       2.530   4.467  20.230  0.00  0.00    +0.000 OA
BRANCH  13  15
ATOM     14  C   UNL     1       0.859   3.013  19.301  0.00  0.00    +0.000 C 
ATOM     15  C   UNL     1       1.327   3.752  20.554  0.00  0.00    +0.000 C 
ATOM     16  C   UNL     1       1.592   2.747  21.675  0.00  0.00    +0.000 C 
ENDBRANCH  13  15
ENDBRANCH   7  13
ENDBRANCH   6  10
ENDBRANCH   2   6
ENDBRANCH   1   3
BRANCH   1  17
ATOM     17  C   UNL     1      -1.727  12.092  20.358  0.00  0.00    +0.000 C 
BRANCH  17  18
ATOM     18  C   UNL     1      -2.581  13.374  20.357  0.00  0.00    +0.000 C 
BRANCH  18  19
ATOM     19  N   UNL     1      -3.992  13.201  20.766  0.00  0.00    +0.000 N 
ATOM     20  C   UNL     1      -4.378  13.745  22.008  0.00  0.00    +0.000 A 
ATOM     21  O   UNL     1      -3.687  14.566  22.620  0.00  0.00    +0.000 OA
ATOM     22  C   UNL     1      -5.606  13.219  22.557  0.00  0.00    +0.000 A 
ATOM     23  C   UNL     1      -6.084  13.208  23.856  0.00  0.00    +0.000 A 
ATOM     24  C   UNL     1      -7.285  12.454  23.859  0.00  0.00    +0.000 A 
ATOM     25  C   UNL     1      -7.549  12.105  22.553  0.00  0.00    +0.000 A 
ATOM     26  N   UNL     1      -6.521  12.577  21.768  0.00  0.00    +0.000 N 
ATOM     27  C   UNL     1      -6.297  12.371  20.400  0.00  0.00    +0.000 A 
ATOM     28  C   UNL     1      -7.341  11.952  19.570  0.00  0.00    +0.000 A 
ATOM     29  C   UNL     1      -7.056  11.580  18.266  0.00  0.00    +0.000 A 
ATOM     30  C   UNL     1      -5.726  11.562  17.841  0.00  0.00    +0.000 A 
ATOM     31  C   UNL     1      -4.690  12.026  18.669  0.00  0.00    +0.000 A 
ATOM     32  C   UNL     1      -4.967  12.530  19.938  0.00  0.00    +0.000 A 
ENDBRANCH  18  19
ENDBRANCH  17  18
ENDBRANCH   1  17
TORSDOF 8
ENDMDL
