MODEL 1
REMARK VINA RESULT:      -7.9      0.000      0.000
REMARK  Name = 
REMARK  6 active torsions:
REMARK  status: ('A' for Active; 'I' for Inactive)
REMARK    1  A    between atoms: C_1  and  C_2
REMARK    2  A    between atoms: C_2  and  O_3
REMARK    3  A    between atoms: C_2  and  C_11
REMARK    4  A    between atoms: O_3  and  C_4
REMARK    5  A    between atoms: N_13  and  C_14
REMARK    6  A    between atoms: C_19  and  C_20
REMARK                            x       y       z     vdW  Elec       q    Type
REMARK                         _______ _______ _______ _____ _____    ______ ____
ROOT
ATOM      1  C   UNL     1       2.421   6.599  18.815  0.00  0.00    +0.000 C 
ATOM      2  O   UNL     1       2.182   6.426  20.011  0.00  0.00    +0.000 OA
ATOM      3  N   UNL     1       2.523   5.560  17.884  0.00  0.00    +0.000 N 
ATOM      4  H   UNL     1       2.090   5.777  16.990  0.00  0.00    +0.000 HD
ENDROOT
BRANCH   3   5
ATOM      5  C   UNL     1       2.373   4.220  18.347  0.00  0.00    +0.000 A 
ATOM      6  C   UNL     1       1.063   3.727  18.450  0.00  0.00    +0.000 A 
ATOM      7  C   UNL     1       0.819   2.404  18.810  0.00  0.00    +0.000 A 
ATOM      8  C   UNL     1       1.892   1.546  19.005  0.00  0.00    +0.000 A 
ATOM      9  C   UNL     1       3.200   2.022  18.895  0.00  0.00    +0.000 A 
ATOM     10  C   UNL     1       3.467   3.384  18.659  0.00  0.00    +0.000 A 
BRANCH  10  11
ATOM     11  C   UNL     1       4.879   3.873  18.578  0.00  0.00    +0.000 C 
ATOM     12  O   UNL     1       5.528   3.894  19.627  0.00  0.00    +0.000 OA
ATOM     13  N   UNL     1       5.455   4.299  17.352  0.00  0.00    +0.000 N 
ATOM     14  C   UNL     1       6.837   4.779  17.467  0.00  0.00    +0.000 C 
ATOM     15  C   UNL     1       7.318   5.601  16.271  0.00  0.00    +0.000 C 
ATOM     16  C   UNL     1       7.017   4.917  14.945  0.00  0.00    +0.000 C 
ATOM     17  C   UNL     1       5.539   4.560  14.872  0.00  0.00    +0.000 C 
ATOM     18  C   UNL     1       5.132   3.680  16.057  0.00  0.00    +0.000 C 
ENDBRANCH  10  11
ENDBRANCH   3   5
BRANCH   1  20
ATOM     19  C   UNL     1       3.833   8.097  17.257  0.00  0.00    +0.000 C 
ATOM     20  C   UNL     1       2.643   8.013  18.227  0.00  0.00    +0.000 C 
BRANCH  20  21
ATOM     21  O   UNL     1       1.493   8.662  17.677  0.00  0.00    +0.000 OA
BRANCH  21  22
ATOM     22  C   UNL     1       0.721   9.462  18.477  0.00  0.00    +0.000 A 
ATOM     23  C   UNL     1       1.024   9.867  19.780  0.00  0.00    +0.000 A 
ATOM     24  C   UNL     1       0.162  10.707  20.487  0.00  0.00    +0.000 A 
ATOM     25  C   UNL     1      -1.018  11.128  19.895  0.00  0.00    +0.000 A 
ATOM     26  F   UNL     1      -1.849  11.922  20.581  0.00  0.00    +0.000 F 
ATOM     27  C   UNL     1      -1.347  10.730  18.606  0.00  0.00    +0.000 A 
ATOM     28  C   UNL     1      -0.472   9.905  17.895  0.00  0.00    +0.000 A 
ENDBRANCH  21  22
ENDBRANCH  20  21
ENDBRANCH   1  20
TORSDOF 5
ENDMDL
MODEL 2
REMARK VINA RESULT:      -7.8      1.833      4.288
REMARK  Name = 
REMARK  6 active torsions:
REMARK  status: ('A' for Active; 'I' for Inactive)
REMARK    1  A    between atoms: C_1  and  C_2
REMARK    2  A    between atoms: C_2  and  O_3
REMARK    3  A    between atoms: C_2  and  C_11
REMARK    4  A    between atoms: O_3  and  C_4
REMARK    5  A    between atoms: N_13  and  C_14
REMARK    6  A    between atoms: C_19  and  C_20
REMARK                            x       y       z     vdW  Elec       q    Type
REMARK                         _______ _______ _______ _____ _____    ______ ____
ROOT
ATOM      1  C   UNL     1       2.600   7.714  18.121  0.00  0.00    +0.000 C 
ATOM      2  O   UNL     1       2.731   8.168  16.983  0.00  0.00    +0.000 OA
ATOM      3  N   UNL     1       3.333   6.631  18.616  0.00  0.00    +0.000 N 
ATOM      4  H   UNL     1       3.631   6.754  19.581  0.00  0.00    +0.000 HD
ENDROOT
BRANCH   3   5
ATOM      5  C   UNL     1       4.265   5.993  17.748  0.00  0.00    +0.000 A 
ATOM      6  C   UNL     1       5.432   6.706  17.433  0.00  0.00    +0.000 A 
ATOM      7  C   UNL     1       6.441   6.132  16.663  0.00  0.00    +0.000 A 
ATOM      8  C   UNL     1       6.314   4.812  16.257  0.00  0.00    +0.000 A 
ATOM      9  C   UNL     1       5.163   4.088  16.572  0.00  0.00    +0.000 A 
ATOM     10  C   UNL     1       4.078   4.689  17.238  0.00  0.00    +0.000 A 
BRANCH  10  11
ATOM     11  C   UNL     1       2.843   3.898  17.534  0.00  0.00    +0.000 C 
ATOM     12  O   UNL     1       2.205   3.468  16.570  0.00  0.00    +0.000 OA
ATOM     13  N   UNL     1       2.412   3.652  18.866  0.00  0.00    +0.000 N 
ATOM     14  C   UNL     1       1.162   2.891  18.966  0.00  0.00    +0.000 C 
ATOM     15  C   UNL     1       0.487   2.968  20.335  0.00  0.00    +0.000 C 
ATOM     16  C   UNL     1       1.462   2.696  21.472  0.00  0.00    +0.000 C 
ATOM     17  C   UNL     1       2.672   3.612  21.346  0.00  0.00    +0.000 C 
ATOM     18  C   UNL     1       3.345   3.439  19.983  0.00  0.00    +0.000 C 
ENDBRANCH  10  11
ENDBRANCH   3   5
BRANCH   1  20
ATOM     19  C   UNL     1       1.750   7.791  20.558  0.00  0.00    +0.000 C 
ATOM     20  C   UNL     1       1.582   8.312  19.121  0.00  0.00    +0.000 C 
BRANCH  20  21
ATOM     21  O   UNL     1       1.440   9.736  19.111  0.00  0.00    +0.000 OA
BRANCH  21  22
ATOM     22  C   UNL     1       0.194  10.290  18.992  0.00  0.00    +0.000 A 
ATOM     23  C   UNL     1      -0.386  11.215  19.864  0.00  0.00    +0.000 A 
ATOM     24  C   UNL     1      -1.662  11.726  19.620  0.00  0.00    +0.000 A 
ATOM     25  C   UNL     1      -2.369  11.295  18.508  0.00  0.00    +0.000 A 
ATOM     26  F   UNL     1      -3.598  11.776  18.285  0.00  0.00    +0.000 F 
ATOM     27  C   UNL     1      -1.818  10.368  17.633  0.00  0.00    +0.000 A 
ATOM     28  C   UNL     1      -0.533   9.874  17.871  0.00  0.00    +0.000 A 
ENDBRANCH  21  22
ENDBRANCH  20  21
ENDBRANCH   1  20
TORSDOF 5
ENDMDL
MODEL 3
REMARK VINA RESULT:      -7.8      1.013      1.249
REMARK  Name = 
REMARK  6 active torsions:
REMARK  status: ('A' for Active; 'I' for Inactive)
REMARK    1  A    between atoms: C_1  and  C_2
REMARK    2  A    between atoms: C_2  and  O_3
REMARK    3  A    between atoms: C_2  and  C_11
REMARK    4  A    between atoms: O_3  and  C_4
REMARK    5  A    between atoms: N_13  and  C_14
REMARK    6  A    between atoms: C_19  and  C_20
REMARK                            x       y       z     vdW  Elec       q    Type
REMARK                         _______ _______ _______ _____ _____    ______ ____
ROOT
ATOM      1  C   UNL     1       2.236   6.483  19.367  0.00  0.00    +0.000 C 
ATOM      2  O   UNL     1       2.094   6.100  20.529  0.00  0.00    +0.000 OA
ATOM      3  N   UNL     1       2.364   5.621  18.273  0.00  0.00    +0.000 N 
ATOM      4  H   UNL     1       1.855   5.934  17.451  0.00  0.00    +0.000 HD
ENDROOT
BRANCH   3   5
ATOM      5  C   UNL     1       2.362   4.216  18.516  0.00  0.00    +0.000 A 
ATOM      6  C   UNL     1       1.109   3.595  18.635  0.00  0.00    +0.000 A 
ATOM      7  C   UNL     1       1.002   2.214  18.787  0.00  0.00    +0.000 A 
ATOM      8  C   UNL     1       2.153   1.439  18.755  0.00  0.00    +0.000 A 
ATOM      9  C   UNL     1       3.404   2.044  18.627  0.00  0.00    +0.000 A 
ATOM     10  C   UNL     1       3.541   3.445  18.601  0.00  0.00    +0.000 A 
BRANCH  10  11
ATOM     11  C   UNL     1       4.898   4.068  18.497  0.00  0.00    +0.000 C 
ATOM     12  O   UNL     1       5.508   4.268  19.550  0.00  0.00    +0.000 OA
ATOM     13  N   UNL     1       5.466   4.421  17.243  0.00  0.00    +0.000 N 
ATOM     14  C   UNL     1       6.786   5.054  17.334  0.00  0.00    +0.000 C 
ATOM     15  C   UNL     1       7.218   5.791  16.066  0.00  0.00    +0.000 C 
ATOM     16  C   UNL     1       7.030   4.944  14.816  0.00  0.00    +0.000 C 
ATOM     17  C   UNL     1       5.599   4.428  14.753  0.00  0.00    +0.000 C 
ATOM     18  C   UNL     1       5.248   3.639  16.016  0.00  0.00    +0.000 C 
ENDBRANCH  10  11
ENDBRANCH   3   5
BRANCH   1  20
ATOM     19  C   UNL     1       3.117   8.289  17.745  0.00  0.00    +0.000 C 
ATOM     20  C   UNL     1       2.295   7.987  19.009  0.00  0.00    +0.000 C 
BRANCH  20  21
ATOM     21  O   UNL     1       1.046   8.685  18.981  0.00  0.00    +0.000 OA
BRANCH  21  22
ATOM     22  C   UNL     1       0.605   9.327  20.107  0.00  0.00    +0.000 A 
ATOM     23  C   UNL     1       0.766   8.889  21.424  0.00  0.00    +0.000 A 
ATOM     24  C   UNL     1       0.288   9.649  22.494  0.00  0.00    +0.000 A 
ATOM     25  C   UNL     1      -0.371  10.842  22.243  0.00  0.00    +0.000 A 
ATOM     26  F   UNL     1      -0.840  11.561  23.271  0.00  0.00    +0.000 F 
ATOM     27  C   UNL     1      -0.553  11.292  20.942  0.00  0.00    +0.000 A 
ATOM     28  C   UNL     1      -0.056  10.539  19.876  0.00  0.00    +0.000 A 
ENDBRANCH  21  22
ENDBRANCH  20  21
ENDBRANCH   1  20
TORSDOF 5
ENDMDL
MODEL 4
REMARK VINA RESULT:      -7.6      0.937      1.085
REMARK  Name = 
REMARK  6 active torsions:
REMARK  status: ('A' for Active; 'I' for Inactive)
REMARK    1  A    between atoms: C_1  and  C_2
REMARK    2  A    between atoms: C_2  and  O_3
REMARK    3  A    between atoms: C_2  and  C_11
REMARK    4  A    between atoms: O_3  and  C_4
REMARK    5  A    between atoms: N_13  and  C_14
REMARK    6  A    between atoms: C_19  and  C_20
REMARK                            x       y       z     vdW  Elec       q    Type
REMARK                         _______ _______ _______ _____ _____    ______ ____
ROOT
ATOM      1  C   UNL     1       2.557   6.602  18.786  0.00  0.00    +0.000 C 
ATOM      2  O   UNL     1       2.332   6.464  19.990  0.00  0.00    +0.000 OA
ATOM      3  N   UNL     1       2.591   5.542  17.874  0.00  0.00    +0.000 N 
ATOM      4  H   UNL     1       2.153   5.763  16.984  0.00  0.00    +0.000 HD
ENDROOT
BRANCH   3   5
ATOM      5  C   UNL     1       2.384   4.221  18.366  0.00  0.00    +0.000 A 
ATOM      6  C   UNL     1       1.055   3.780  18.463  0.00  0.00    +0.000 A 
ATOM      7  C   UNL     1       0.755   2.477  18.850  0.00  0.00    +0.000 A 
ATOM      8  C   UNL     1       1.792   1.583  19.080  0.00  0.00    +0.000 A 
ATOM      9  C   UNL     1       3.118   2.006  18.976  0.00  0.00    +0.000 A 
ATOM     10  C   UNL     1       3.441   3.351  18.712  0.00  0.00    +0.000 A 
BRANCH  10  11
ATOM     11  C   UNL     1       4.872   3.783  18.639  0.00  0.00    +0.000 C 
ATOM     12  O   UNL     1       5.539   3.697  19.673  0.00  0.00    +0.000 OA
ATOM     13  N   UNL     1       5.445   4.276  17.437  0.00  0.00    +0.000 N 
ATOM     14  C   UNL     1       6.848   4.687  17.559  0.00  0.00    +0.000 C 
ATOM     15  C   UNL     1       7.345   5.576  16.419  0.00  0.00    +0.000 C 
ATOM     16  C   UNL     1       6.991   5.008  15.052  0.00  0.00    +0.000 C 
ATOM     17  C   UNL     1       5.497   4.720  14.983  0.00  0.00    +0.000 C 
ATOM     18  C   UNL     1       5.073   3.772  16.106  0.00  0.00    +0.000 C 
ENDBRANCH  10  11
ENDBRANCH   3   5
BRANCH   1  20
ATOM     19  C   UNL     1       3.898   7.968  17.053  0.00  0.00    +0.000 C 
ATOM     20  C   UNL     1       2.838   7.992  18.167  0.00  0.00    +0.000 C 
BRANCH  20  21
ATOM     21  O   UNL     1       1.695   8.752  17.764  0.00  0.00    +0.000 OA
BRANCH  21  22
ATOM     22  C   UNL     1       1.330   9.857  18.485  0.00  0.00    +0.000 A 
ATOM     23  C   UNL     1       0.463   9.879  19.581  0.00  0.00    +0.000 A 
ATOM     24  C   UNL     1       0.187  11.073  20.250  0.00  0.00    +0.000 A 
ATOM     25  C   UNL     1       0.763  12.253  19.809  0.00  0.00    +0.000 A 
ATOM     26  F   UNL     1       0.485  13.398  20.444  0.00  0.00    +0.000 F 
ATOM     27  C   UNL     1       1.619  12.258  18.714  0.00  0.00    +0.000 A 
ATOM     28  C   UNL     1       1.909  11.058  18.060  0.00  0.00    +0.000 A 
ENDBRANCH  21  22
ENDBRANCH  20  21
ENDBRANCH   1  20
TORSDOF 5
ENDMDL
MODEL 5
REMARK VINA RESULT:      -7.6      2.017      4.477
REMARK  Name = 
REMARK  6 active torsions:
REMARK  status: ('A' for Active; 'I' for Inactive)
REMARK    1  A    between atoms: C_1  and  C_2
REMARK    2  A    between atoms: C_2  and  O_3
REMARK    3  A    between atoms: C_2  and  C_11
REMARK    4  A    between atoms: O_3  and  C_4
REMARK    5  A    between atoms: N_13  and  C_14
REMARK    6  A    between atoms: C_19  and  C_20
REMARK                            x       y       z     vdW  Elec       q    Type
REMARK                         _______ _______ _______ _____ _____    ______ ____
ROOT
ATOM      1  C   UNL     1       2.125   8.261  18.328  0.00  0.00    +0.000 C 
ATOM      2  O   UNL     1       2.277   8.778  17.220  0.00  0.00    +0.000 OA
ATOM      3  N   UNL     1       2.743   7.071  18.723  0.00  0.00    +0.000 N 
ATOM      4  H   UNL     1       3.077   7.090  19.684  0.00  0.00    +0.000 HD
ENDROOT
BRANCH   3   5
ATOM      5  C   UNL     1       3.575   6.396  17.783  0.00  0.00    +0.000 A 
ATOM      6  C   UNL     1       4.674   7.110  17.281  0.00  0.00    +0.000 A 
ATOM      7  C   UNL     1       5.592   6.507  16.424  0.00  0.00    +0.000 A 
ATOM      8  C   UNL     1       5.449   5.162  16.116  0.00  0.00    +0.000 A 
ATOM      9  C   UNL     1       4.366   4.439  16.617  0.00  0.00    +0.000 A 
ATOM     10  C   UNL     1       3.358   5.061  17.379  0.00  0.00    +0.000 A 
BRANCH  10  11
ATOM     11  C   UNL     1       2.190   4.268  17.876  0.00  0.00    +0.000 C 
ATOM     12  O   UNL     1       1.246   4.109  17.098  0.00  0.00    +0.000 OA
ATOM     13  N   UNL     1       2.159   3.721  19.187  0.00  0.00    +0.000 N 
ATOM     14  C   UNL     1       0.921   3.006  19.514  0.00  0.00    +0.000 C 
ATOM     15  C   UNL     1       0.707   2.773  21.010  0.00  0.00    +0.000 C 
ATOM     16  C   UNL     1       1.943   2.197  21.685  0.00  0.00    +0.000 C 
ATOM     17  C   UNL     1       3.152   3.071  21.380  0.00  0.00    +0.000 C 
ATOM     18  C   UNL     1       3.357   3.210  19.870  0.00  0.00    +0.000 C 
ENDBRANCH  10  11
ENDBRANCH   3   5
BRANCH   1  20
ATOM     19  C   UNL     1       1.662   8.620  20.843  0.00  0.00    +0.000 C 
ATOM     20  C   UNL     1       1.207   8.896  19.400  0.00  0.00    +0.000 C 
BRANCH  20  21
ATOM     21  O   UNL     1       0.884  10.278  19.225  0.00  0.00    +0.000 OA
BRANCH  21  22
ATOM     22  C   UNL     1      -0.380  10.634  18.839  0.00  0.00    +0.000 A 
ATOM     23  C   UNL     1      -1.102  10.090  17.773  0.00  0.00    +0.000 A 
ATOM     24  C   UNL     1      -2.399  10.523  17.493  0.00  0.00    +0.000 A 
ATOM     25  C   UNL     1      -2.970  11.519  18.270  0.00  0.00    +0.000 A 
ATOM     26  F   UNL     1      -4.209  11.942  17.990  0.00  0.00    +0.000 F 
ATOM     27  C   UNL     1      -2.268  12.083  19.328  0.00  0.00    +0.000 A 
ATOM     28  C   UNL     1      -0.977  11.632  19.617  0.00  0.00    +0.000 A 
ENDBRANCH  21  22
ENDBRANCH  20  21
ENDBRANCH   1  20
TORSDOF 5
ENDMDL
MODEL 6
REMARK VINA RESULT:      -7.5      3.356      7.503
REMARK  Name = 
REMARK  6 active torsions:
REMARK  status: ('A' for Active; 'I' for Inactive)
REMARK    1  A    between atoms: C_1  and  C_2
REMARK    2  A    between atoms: C_2  and  O_3
REMARK    3  A    between atoms: C_2  and  C_11
REMARK    4  A    between atoms: O_3  and  C_4
REMARK    5  A    between atoms: N_13  and  C_14
REMARK    6  A    between atoms: C_19  and  C_20
REMARK                            x       y       z     vdW  Elec       q    Type
REMARK                         _______ _______ _______ _____ _____    ______ ____
ROOT
ATOM      1  C   UNL     1       5.826   5.702  18.520  0.00  0.00    +0.000 C 
ATOM      2  O   UNL     1       6.255   5.558  19.666  0.00  0.00    +0.000 OA
ATOM      3  N   UNL     1       4.508   5.426  18.142  0.00  0.00    +0.000 N 
ATOM      4  H   UNL     1       4.122   6.110  17.497  0.00  0.00    +0.000 HD
ENDROOT
BRANCH   3   5
ATOM      5  C   UNL     1       3.614   4.918  19.129  0.00  0.00    +0.000 A 
ATOM      6  C   UNL     1       3.888   3.639  19.636  0.00  0.00    +0.000 A 
ATOM      7  C   UNL     1       3.123   3.094  20.664  0.00  0.00    +0.000 A 
ATOM      8  C   UNL     1       2.116   3.857  21.237  0.00  0.00    +0.000 A 
ATOM      9  C   UNL     1       1.840   5.135  20.748  0.00  0.00    +0.000 A 
ATOM     10  C   UNL     1       2.516   5.653  19.627  0.00  0.00    +0.000 A 
BRANCH  10  11
ATOM     11  C   UNL     1       2.177   7.013  19.103  0.00  0.00    +0.000 C 
ATOM     12  O   UNL     1       2.317   7.202  17.892  0.00  0.00    +0.000 OA
ATOM     13  N   UNL     1       1.715   8.051  19.957  0.00  0.00    +0.000 N 
ATOM     14  C   UNL     1       1.467   9.327  19.278  0.00  0.00    +0.000 C 
ATOM     15  C   UNL     1       1.369  10.530  20.216  0.00  0.00    +0.000 C 
ATOM     16  C   UNL     1       0.434  10.268  21.389  0.00  0.00    +0.000 C 
ATOM     17  C   UNL     1       0.842   8.985  22.099  0.00  0.00    +0.000 C 
ATOM     18  C   UNL     1       0.855   7.805  21.124  0.00  0.00    +0.000 C 
ENDBRANCH  10  11
ENDBRANCH   3   5
BRANCH   1  20
ATOM     19  C   UNL     1       7.643   7.377  17.771  0.00  0.00    +0.000 C 
ATOM     20  C   UNL     1       6.732   6.205  17.371  0.00  0.00    +0.000 C 
BRANCH  20  21
ATOM     21  O   UNL     1       7.472   5.207  16.660  0.00  0.00    +0.000 OA
BRANCH  21  22
ATOM     22  C   UNL     1       6.991   4.730  15.470  0.00  0.00    +0.000 A 
ATOM     23  C   UNL     1       5.936   3.828  15.307  0.00  0.00    +0.000 A 
ATOM     24  C   UNL     1       5.523   3.433  14.033  0.00  0.00    +0.000 A 
ATOM     25  C   UNL     1       6.182   3.927  12.918  0.00  0.00    +0.000 A 
ATOM     26  F   UNL     1       5.793   3.535  11.699  0.00  0.00    +0.000 F 
ATOM     27  C   UNL     1       7.241   4.815  13.055  0.00  0.00    +0.000 A 
ATOM     28  C   UNL     1       7.638   5.223  14.331  0.00  0.00    +0.000 A 
ENDBRANCH  21  22
ENDBRANCH  20  21
ENDBRANCH   1  20
TORSDOF 5
ENDMDL
MODEL 7
REMARK VINA RESULT:      -7.5      1.501      1.675
REMARK  Name = 
REMARK  6 active torsions:
REMARK  status: ('A' for Active; 'I' for Inactive)
REMARK    1  A    between atoms: C_1  and  C_2
REMARK    2  A    between atoms: C_2  and  O_3
REMARK    3  A    between atoms: C_2  and  C_11
REMARK    4  A    between atoms: O_3  and  C_4
REMARK    5  A    between atoms: N_13  and  C_14
REMARK    6  A    between atoms: C_19  and  C_20
REMARK                            x       y       z     vdW  Elec       q    Type
REMARK                         _______ _______ _______ _____ _____    ______ ____
ROOT
ATOM      1  C   UNL     1       2.375   6.699  18.739  0.00  0.00    +0.000 C 
ATOM      2  O   UNL     1       2.025   6.038  17.760  0.00  0.00    +0.000 OA
ATOM      3  N   UNL     1       2.820   6.136  19.940  0.00  0.00    +0.000 N 
ATOM      4  H   UNL     1       3.608   6.631  20.349  0.00  0.00    +0.000 HD
ENDROOT
BRANCH   3   5
ATOM      5  C   UNL     1       2.842   4.715  20.053  0.00  0.00    +0.000 A 
ATOM      6  C   UNL     1       1.680   4.099  20.542  0.00  0.00    +0.000 A 
ATOM      7  C   UNL     1       1.574   2.712  20.608  0.00  0.00    +0.000 A 
ATOM      8  C   UNL     1       2.611   1.930  20.119  0.00  0.00    +0.000 A 
ATOM      9  C   UNL     1       3.768   2.531  19.620  0.00  0.00    +0.000 A 
ATOM     10  C   UNL     1       3.947   3.927  19.664  0.00  0.00    +0.000 A 
BRANCH  10  11
ATOM     11  C   UNL     1       5.211   4.542  19.153  0.00  0.00    +0.000 C 
ATOM     12  O   UNL     1       6.037   4.912  19.991  0.00  0.00    +0.000 OA
ATOM     13  N   UNL     1       5.458   4.701  17.762  0.00  0.00    +0.000 N 
ATOM     14  C   UNL     1       6.732   5.355  17.445  0.00  0.00    +0.000 C 
ATOM     15  C   UNL     1       6.825   5.891  16.016  0.00  0.00    +0.000 C 
ATOM     16  C   UNL     1       6.395   4.855  14.986  0.00  0.00    +0.000 C 
ATOM     17  C   UNL     1       5.015   4.318  15.338  0.00  0.00    +0.000 C 
ATOM     18  C   UNL     1       5.002   3.734  16.752  0.00  0.00    +0.000 C 
ENDBRANCH  10  11
ENDBRANCH   3   5
BRANCH   1  20
ATOM     19  C   UNL     1       3.148   8.871  17.575  0.00  0.00    +0.000 C 
ATOM     20  C   UNL     1       2.344   8.246  18.727  0.00  0.00    +0.000 C 
BRANCH  20  21
ATOM     21  O   UNL     1       1.055   8.857  18.837  0.00  0.00    +0.000 OA
BRANCH  21  22
ATOM     22  C   UNL     1       0.625   9.315  20.053  0.00  0.00    +0.000 A 
ATOM     23  C   UNL     1       0.997   8.814  21.304  0.00  0.00    +0.000 A 
ATOM     24  C   UNL     1       0.505   9.385  22.479  0.00  0.00    +0.000 A 
ATOM     25  C   UNL     1      -0.378  10.450  22.402  0.00  0.00    +0.000 A 
ATOM     26  F   UNL     1      -0.859  10.986  23.531  0.00  0.00    +0.000 F 
ATOM     27  C   UNL     1      -0.772  10.959  21.171  0.00  0.00    +0.000 A 
ATOM     28  C   UNL     1      -0.261  10.397  19.998  0.00  0.00    +0.000 A 
ENDBRANCH  21  22
ENDBRANCH  20  21
ENDBRANCH   1  20
TORSDOF 5
ENDMDL
MODEL 8
REMARK VINA RESULT:      -7.5      2.976      6.560
REMARK  Name = 
REMARK  6 active torsions:
REMARK  status: ('A' for Active; 'I' for Inactive)
REMARK    1  A    between atoms: C_1  and  C_2
REMARK    2  A    between atoms: C_2  and  O_3
REMARK    3  A    between atoms: C_2  and  C_11
REMARK    4  A    between atoms: O_3  and  C_4
REMARK    5  A    between atoms: N_13  and  C_14
REMARK    6  A    between atoms: C_19  and  C_20
REMARK                            x       y       z     vdW  Elec       q    Type
REMARK                         _______ _______ _______ _____ _____    ______ ____
ROOT
ATOM      1  C   UNL     1       5.628   4.879  19.001  0.00  0.00    +0.000 C 
ATOM      2  O   UNL     1       5.749   3.747  19.472  0.00  0.00    +0.000 OA
ATOM      3  N   UNL     1       4.433   5.380  18.476  0.00  0.00    +0.000 N 
ATOM      4  H   UNL     1       4.260   6.351  18.724  0.00  0.00    +0.000 HD
ENDROOT
BRANCH   3   5
ATOM      5  C   UNL     1       3.293   4.525  18.455  0.00  0.00    +0.000 A 
ATOM      6  C   UNL     1       3.366   3.389  17.633  0.00  0.00    +0.000 A 
ATOM      7  C   UNL     1       2.338   2.450  17.611  0.00  0.00    +0.000 A 
ATOM      8  C   UNL     1       1.256   2.609  18.465  0.00  0.00    +0.000 A 
ATOM      9  C   UNL     1       1.177   3.729  19.295  0.00  0.00    +0.000 A 
ATOM     10  C   UNL     1       2.141   4.753  19.239  0.00  0.00    +0.000 A 
BRANCH  10  11
ATOM     11  C   UNL     1       2.013   5.959  20.117  0.00  0.00    +0.000 C 
ATOM     12  O   UNL     1       2.172   5.792  21.328  0.00  0.00    +0.000 OA
ATOM     13  N   UNL     1       1.718   7.244  19.587  0.00  0.00    +0.000 N 
ATOM     14  C   UNL     1       1.594   8.300  20.596  0.00  0.00    +0.000 C 
ATOM     15  C   UNL     1       0.893   9.565  20.100  0.00  0.00    +0.000 C 
ATOM     16  C   UNL     1       1.456  10.050  18.772  0.00  0.00    +0.000 C 
ATOM     17  C   UNL     1       1.438   8.916  17.757  0.00  0.00    +0.000 C 
ATOM     18  C   UNL     1       2.213   7.705  18.280  0.00  0.00    +0.000 C 
ENDBRANCH  10  11
ENDBRANCH   3   5
BRANCH   1  20
ATOM     19  C   UNL     1       7.953   5.523  19.920  0.00  0.00    +0.000 C 
ATOM     20  C   UNL     1       6.820   5.864  18.939  0.00  0.00    +0.000 C 
BRANCH  20  21
ATOM     21  O   UNL     1       7.343   6.150  17.639  0.00  0.00    +0.000 OA
BRANCH  21  22
ATOM     22  C   UNL     1       6.803   5.533  16.542  0.00  0.00    +0.000 A 
ATOM     23  C   UNL     1       7.126   4.258  16.068  0.00  0.00    +0.000 A 
ATOM     24  C   UNL     1       6.484   3.729  14.947  0.00  0.00    +0.000 A 
ATOM     25  C   UNL     1       5.530   4.485  14.285  0.00  0.00    +0.000 A 
ATOM     26  F   UNL     1       4.927   3.980  13.202  0.00  0.00    +0.000 F 
ATOM     27  C   UNL     1       5.200   5.759  14.730  0.00  0.00    +0.000 A 
ATOM     28  C   UNL     1       5.830   6.277  15.865  0.00  0.00    +0.000 A 
ENDBRANCH  21  22
ENDBRANCH  20  21
ENDBRANCH   1  20
TORSDOF 5
ENDMDL
MODEL 9
REMARK VINA RESULT:      -7.5      1.971      4.451
REMARK  Name = 
REMARK  6 active torsions:
REMARK  status: ('A' for Active; 'I' for Inactive)
REMARK    1  A    between atoms: C_1  and  C_2
REMARK    2  A    between atoms: C_2  and  O_3
REMARK    3  A    between atoms: C_2  and  C_11
REMARK    4  A    between atoms: O_3  and  C_4
REMARK    5  A    between atoms: N_13  and  C_14
REMARK    6  A    between atoms: C_19  and  C_20
REMARK                            x       y       z     vdW  Elec       q    Type
REMARK                         _______ _______ _______ _____ _____    ______ ____
ROOT
ATOM      1  C   UNL     1       3.031   7.877  17.699  0.00  0.00    +0.000 C 
ATOM      2  O   UNL     1       3.258   8.134  16.515  0.00  0.00    +0.000 OA
ATOM      3  N   UNL     1       3.631   6.823  18.395  0.00  0.00    +0.000 N 
ATOM      4  H   UNL     1       3.895   7.067  19.347  0.00  0.00    +0.000 HD
ENDROOT
BRANCH   3   5
ATOM      5  C   UNL     1       4.535   5.976  17.691  0.00  0.00    +0.000 A 
ATOM      6  C   UNL     1       5.798   6.508  17.386  0.00  0.00    +0.000 A 
ATOM      7  C   UNL     1       6.779   5.729  16.777  0.00  0.00    +0.000 A 
ATOM      8  C   UNL     1       6.522   4.388  16.529  0.00  0.00    +0.000 A 
ATOM      9  C   UNL     1       5.273   3.844  16.837  0.00  0.00    +0.000 A 
ATOM     10  C   UNL     1       4.227   4.645  17.333  0.00  0.00    +0.000 A 
BRANCH  10  11
ATOM     11  C   UNL     1       2.888   4.042  17.624  0.00  0.00    +0.000 C 
ATOM     12  O   UNL     1       2.138   3.848  16.664  0.00  0.00    +0.000 OA
ATOM     13  N   UNL     1       2.488   3.708  18.945  0.00  0.00    +0.000 N 
ATOM     14  C   UNL     1       1.130   3.161  19.046  0.00  0.00    +0.000 C 
ATOM     15  C   UNL     1       0.548   3.181  20.459  0.00  0.00    +0.000 C 
ATOM     16  C   UNL     1       1.516   2.610  21.487  0.00  0.00    +0.000 C 
ATOM     17  C   UNL     1       2.859   3.318  21.381  0.00  0.00    +0.000 C 
ATOM     18  C   UNL     1       3.424   3.205  19.963  0.00  0.00    +0.000 C 
ENDBRANCH  10  11
ENDBRANCH   3   5
BRANCH   1  20
ATOM     19  C   UNL     1       0.765   9.114  17.761  0.00  0.00    +0.000 C 
ATOM     20  C   UNL     1       2.032   8.712  18.534  0.00  0.00    +0.000 C 
BRANCH  20  21
ATOM     21  O   UNL     1       1.696   8.197  19.826  0.00  0.00    +0.000 OA
BRANCH  21  22
ATOM     22  C   UNL     1       0.985   8.976  20.700  0.00  0.00    +0.000 A 
ATOM     23  C   UNL     1       0.947  10.373  20.719  0.00  0.00    +0.000 A 
ATOM     24  C   UNL     1       0.162  11.054  21.652  0.00  0.00    +0.000 A 
ATOM     25  C   UNL     1      -0.572  10.336  22.582  0.00  0.00    +0.000 A 
ATOM     26  F   UNL     1      -1.313  10.992  23.483  0.00  0.00    +0.000 F 
ATOM     27  C   UNL     1      -0.541   8.947  22.590  0.00  0.00    +0.000 A 
ATOM     28  C   UNL     1       0.230   8.269  21.643  0.00  0.00    +0.000 A 
ENDBRANCH  21  22
ENDBRANCH  20  21
ENDBRANCH   1  20
TORSDOF 5
ENDMDL
