MODEL 1
REMARK VINA RESULT:      -8.4      0.000      0.000
REMARK  Name = 
REMARK  8 active torsions:
REMARK  status: ('A' for Active; 'I' for Inactive)
REMARK    1  A    between atoms: C_1  and  C_2
REMARK    2  A    between atoms: C_2  and  C_3
REMARK    3  A    between atoms: C_2  and  O_4
REMARK    4  A    between atoms: O_4  and  C_5
REMARK    5  A    between atoms: C_8  and  N_9
REMARK    6  A    between atoms: C_19  and  C_21
REMARK    7  A    between atoms: C_21  and  C_22
REMARK    8  A    between atoms: C_22  and  C_23
REMARK                            x       y       z     vdW  Elec       q    Type
REMARK                         _______ _______ _______ _____ _____    ______ ____
ROOT
ATOM      1  N   UNL     1       0.563  12.014  19.725  0.00  0.00    +0.000 N 
ATOM      2  C   UNL     1       0.882  10.685  20.002  0.00  0.00    +0.000 A 
ATOM      3  N   UNL     1       0.745  10.202  21.244  0.00  0.00    +0.000 NA
ATOM      4  C   UNL     1       1.068   8.925  21.471  0.00  0.00    +0.000 A 
ATOM      5  C   UNL     1       1.532   8.086  20.494  0.00  0.00    +0.000 A 
ATOM      6  C   UNL     1       1.681   8.662  19.242  0.00  0.00    +0.000 A 
ATOM      7  N   UNL     1       1.351   9.950  18.982  0.00  0.00    +0.000 NA
ATOM      8  C   UNL     1       2.177   7.830  18.087  0.00  0.00    +0.000 C 
ATOM      9  C   UNL     1       2.941   6.604  18.581  0.00  0.00    +0.000 C 
ATOM     10  N   UNL     1       2.153   5.896  19.593  0.00  0.00    +0.000 N 
ATOM     11  C   UNL     1       1.681   4.594  19.505  0.00  0.00    +0.000 C 
ATOM     12  O   UNL     1       1.039   4.069  20.412  0.00  0.00    +0.000 OA
ATOM     13  C   UNL     1       1.871   6.664  20.799  0.00  0.00    +0.000 C 
ATOM     14  H   UNL     1       0.844  12.237  18.783  0.00  0.00    +0.000 HD
ENDROOT
BRANCH   1  18
ATOM     15  C   UNL     1       0.041  15.169  22.499  0.00  0.00    +0.000 A 
ATOM     16  C   UNL     1       1.270  14.939  21.885  0.00  0.00    +0.000 A 
ATOM     17  C   UNL     1       1.414  13.921  20.936  0.00  0.00    +0.000 A 
ATOM     18  C   UNL     1       0.344  13.085  20.602  0.00  0.00    +0.000 A 
ATOM     19  C   UNL     1      -0.897  13.363  21.189  0.00  0.00    +0.000 A 
ATOM     20  C   UNL     1      -1.047  14.379  22.137  0.00  0.00    +0.000 A 
BRANCH  15  21
ATOM     21  O   UNL     1      -0.216  16.109  23.456  0.00  0.00    +0.000 OA
BRANCH  21  23
ATOM     22  C   UNL     1       0.336  18.308  22.746  0.00  0.00    +0.000 C 
ATOM     23  C   UNL     1       0.737  17.156  23.658  0.00  0.00    +0.000 C 
ATOM     24  C   UNL     1       0.717  17.597  25.119  0.00  0.00    +0.000 C 
ENDBRANCH  21  23
ENDBRANCH  15  21
ENDBRANCH   1  18
BRANCH  11  25
ATOM     25  C   UNL     1       1.998   3.843  18.224  0.00  0.00    +0.000 C 
BRANCH  25  26
ATOM     26  C   UNL     1       3.240   2.967  18.358  0.00  0.00    +0.000 C 
BRANCH  26  27
ATOM     27  C   UNL     1       4.438   3.607  17.691  0.00  0.00    +0.000 A 
ATOM     28  C   UNL     1       5.512   4.091  18.480  0.00  0.00    +0.000 A 
ATOM     29  C   UNL     1       6.638   4.679  17.893  0.00  0.00    +0.000 A 
ATOM     30  C   UNL     1       6.650   4.754  16.520  0.00  0.00    +0.000 A 
ATOM     31  N   UNL     1       7.581   5.261  15.666  0.00  0.00    +0.000 N 
ATOM     32  C   UNL     1       7.111   5.095  14.383  0.00  0.00    +0.000 A 
ATOM     33  O   UNL     1       7.701   5.443  13.373  0.00  0.00    +0.000 OA
ATOM     34  O   UNL     1       5.853   4.463  14.384  0.00  0.00    +0.000 OA
ATOM     35  C   UNL     1       5.621   4.281  15.735  0.00  0.00    +0.000 A 
ATOM     36  C   UNL     1       4.501   3.700  16.289  0.00  0.00    +0.000 A 
ATOM     37  H   UNL     1       8.462   5.697  15.885  0.00  0.00    +0.000 HD
ENDBRANCH  26  27
ENDBRANCH  25  26
ENDBRANCH  11  25
TORSDOF 6
ENDMDL
MODEL 2
REMARK VINA RESULT:      -8.3      1.717      2.131
REMARK  Name = 
REMARK  8 active torsions:
REMARK  status: ('A' for Active; 'I' for Inactive)
REMARK    1  A    between atoms: C_1  and  C_2
REMARK    2  A    between atoms: C_2  and  C_3
REMARK    3  A    between atoms: C_2  and  O_4
REMARK    4  A    between atoms: O_4  and  C_5
REMARK    5  A    between atoms: C_8  and  N_9
REMARK    6  A    between atoms: C_19  and  C_21
REMARK    7  A    between atoms: C_21  and  C_22
REMARK    8  A    between atoms: C_22  and  C_23
REMARK                            x       y       z     vdW  Elec       q    Type
REMARK                         _______ _______ _______ _____ _____    ______ ____
ROOT
ATOM      1  N   UNL     1       1.208  12.190  18.040  0.00  0.00    +0.000 N 
ATOM      2  C   UNL     1       1.352  10.931  18.621  0.00  0.00    +0.000 A 
ATOM      3  N   UNL     1       0.905  10.706  19.864  0.00  0.00    +0.000 NA
ATOM      4  C   UNL     1       1.068   9.488  20.390  0.00  0.00    +0.000 A 
ATOM      5  C   UNL     1       1.669   8.458  19.718  0.00  0.00    +0.000 A 
ATOM      6  C   UNL     1       2.137   8.771  18.452  0.00  0.00    +0.000 A 
ATOM      7  N   UNL     1       1.976   9.994  17.891  0.00  0.00    +0.000 NA
ATOM      8  C   UNL     1       2.809   7.712  17.616  0.00  0.00    +0.000 C 
ATOM      9  C   UNL     1       3.345   6.580  18.490  0.00  0.00    +0.000 C 
ATOM     10  N   UNL     1       2.298   6.113  19.403  0.00  0.00    +0.000 N 
ATOM     11  C   UNL     1       1.756   4.837  19.447  0.00  0.00    +0.000 C 
ATOM     12  O   UNL     1       0.890   4.522  20.260  0.00  0.00    +0.000 OA
ATOM     13  C   UNL     1       1.818   7.112  20.349  0.00  0.00    +0.000 C 
ATOM     14  H   UNL     1       1.708  12.214  17.164  0.00  0.00    +0.000 HD
ENDROOT
BRANCH   1  18
ATOM     15  C   UNL     1       0.106  15.938  19.668  0.00  0.00    +0.000 A 
ATOM     16  C   UNL     1      -0.835  14.931  19.468  0.00  0.00    +0.000 A 
ATOM     17  C   UNL     1      -0.445  13.681  18.971  0.00  0.00    +0.000 A 
ATOM     18  C   UNL     1       0.885  13.419  18.630  0.00  0.00    +0.000 A 
ATOM     19  C   UNL     1       1.825  14.425  18.887  0.00  0.00    +0.000 A 
ATOM     20  C   UNL     1       1.443  15.674  19.383  0.00  0.00    +0.000 A 
BRANCH  15  21
ATOM     21  O   UNL     1      -0.154  17.201  20.118  0.00  0.00    +0.000 OA
BRANCH  21  23
ATOM     22  C   UNL     1      -1.779  18.451  21.320  0.00  0.00    +0.000 C 
ATOM     23  C   UNL     1      -1.493  17.697  20.027  0.00  0.00    +0.000 C 
ATOM     24  C   UNL     1      -1.618  18.628  18.825  0.00  0.00    +0.000 C 
ENDBRANCH  21  23
ENDBRANCH  15  21
ENDBRANCH   1  18
BRANCH  11  25
ATOM     25  C   UNL     1       2.289   3.839  18.435  0.00  0.00    +0.000 C 
BRANCH  25  26
ATOM     26  C   UNL     1       3.639   3.258  18.848  0.00  0.00    +0.000 C 
BRANCH  26  27
ATOM     27  C   UNL     1       4.755   3.793  17.978  0.00  0.00    +0.000 A 
ATOM     28  C   UNL     1       5.962   4.242  18.572  0.00  0.00    +0.000 A 
ATOM     29  C   UNL     1       7.017   4.733  17.794  0.00  0.00    +0.000 A 
ATOM     30  C   UNL     1       6.825   4.747  16.433  0.00  0.00    +0.000 A 
ATOM     31  N   UNL     1       7.642   5.158  15.425  0.00  0.00    +0.000 N 
ATOM     32  C   UNL     1       6.975   4.966  14.237  0.00  0.00    +0.000 A 
ATOM     33  O   UNL     1       7.424   5.233  13.133  0.00  0.00    +0.000 OA
ATOM     34  O   UNL     1       5.699   4.415  14.457  0.00  0.00    +0.000 OA
ATOM     35  C   UNL     1       5.665   4.307  15.835  0.00  0.00    +0.000 A 
ATOM     36  C   UNL     1       4.611   3.821  16.579  0.00  0.00    +0.000 A 
ATOM     37  H   UNL     1       8.569   5.548  15.488  0.00  0.00    +0.000 HD
ENDBRANCH  26  27
ENDBRANCH  25  26
ENDBRANCH  11  25
TORSDOF 6
ENDMDL
MODEL 3
REMARK VINA RESULT:      -8.3      1.061      1.328
REMARK  Name = 
REMARK  8 active torsions:
REMARK  status: ('A' for Active; 'I' for Inactive)
REMARK    1  A    between atoms: C_1  and  C_2
REMARK    2  A    between atoms: C_2  and  C_3
REMARK    3  A    between atoms: C_2  and  O_4
REMARK    4  A    between atoms: O_4  and  C_5
REMARK    5  A    between atoms: C_8  and  N_9
REMARK    6  A    between atoms: C_19  and  C_21
REMARK    7  A    between atoms: C_21  and  C_22
REMARK    8  A    between atoms: C_22  and  C_23
REMARK                            x       y       z     vdW  Elec       q    Type
REMARK                         _______ _______ _______ _____ _____    ______ ____
ROOT
ATOM      1  N   UNL     1       0.976  12.114  18.521  0.00  0.00    +0.000 N 
ATOM      2  C   UNL     1       1.187  10.828  19.016  0.00  0.00    +0.000 A 
ATOM      3  N   UNL     1       0.890  10.537  20.289  0.00  0.00    +0.000 NA
ATOM      4  C   UNL     1       1.113   9.295  20.728  0.00  0.00    +0.000 A 
ATOM      5  C   UNL     1       1.630   8.304  19.937  0.00  0.00    +0.000 A 
ATOM      6  C   UNL     1       1.946   8.685  18.643  0.00  0.00    +0.000 A 
ATOM      7  N   UNL     1       1.720   9.934  18.169  0.00  0.00    +0.000 NA
ATOM      8  C   UNL     1       2.514   7.674  17.680  0.00  0.00    +0.000 C 
ATOM      9  C   UNL     1       3.149   6.502  18.425  0.00  0.00    +0.000 C 
ATOM     10  N   UNL     1       2.218   5.982  19.430  0.00  0.00    +0.000 N 
ATOM     11  C   UNL     1       1.684   4.702  19.471  0.00  0.00    +0.000 C 
ATOM     12  O   UNL     1       0.920   4.341  20.363  0.00  0.00    +0.000 OA
ATOM     13  C   UNL     1       1.853   6.928  20.476  0.00  0.00    +0.000 C 
ATOM     14  H   UNL     1       1.369  12.187  17.595  0.00  0.00    +0.000 HD
ENDROOT
BRANCH   1  18
ATOM     15  C   UNL     1       0.241  15.825  20.421  0.00  0.00    +0.000 A 
ATOM     16  C   UNL     1      -0.586  15.356  19.403  0.00  0.00    +0.000 A 
ATOM     17  C   UNL     1      -0.356  14.105  18.817  0.00  0.00    +0.000 A 
ATOM     18  C   UNL     1       0.726  13.310  19.209  0.00  0.00    +0.000 A 
ATOM     19  C   UNL     1       1.515  13.774  20.268  0.00  0.00    +0.000 A 
ATOM     20  C   UNL     1       1.290  15.020  20.858  0.00  0.00    +0.000 A 
BRANCH  15  21
ATOM     21  O   UNL     1       0.136  17.034  21.048  0.00  0.00    +0.000 OA
BRANCH  21  23
ATOM     22  C   UNL     1       1.787  18.623  21.677  0.00  0.00    +0.000 C 
ATOM     23  C   UNL     1       1.064  17.347  22.090  0.00  0.00    +0.000 C 
ATOM     24  C   UNL     1       0.315  17.557  23.403  0.00  0.00    +0.000 C 
ENDBRANCH  21  23
ENDBRANCH  15  21
ENDBRANCH   1  18
BRANCH  11  25
ATOM     25  C   UNL     1       2.093   3.761  18.353  0.00  0.00    +0.000 C 
BRANCH  25  26
ATOM     26  C   UNL     1       3.404   3.038  18.653  0.00  0.00    +0.000 C 
BRANCH  26  27
ATOM     27  C   UNL     1       4.559   3.663  17.902  0.00  0.00    +0.000 A 
ATOM     28  C   UNL     1       5.653   4.212  18.618  0.00  0.00    +0.000 A 
ATOM     29  C   UNL     1       6.742   4.788  17.951  0.00  0.00    +0.000 A 
ATOM     30  C   UNL     1       6.697   4.783  16.577  0.00  0.00    +0.000 A 
ATOM     31  N   UNL     1       7.581   5.259  15.658  0.00  0.00    +0.000 N 
ATOM     32  C   UNL     1       7.064   5.009  14.408  0.00  0.00    +0.000 A 
ATOM     33  O   UNL     1       7.606   5.310  13.356  0.00  0.00    +0.000 OA
ATOM     34  O   UNL     1       5.822   4.354  14.496  0.00  0.00    +0.000 OA
ATOM     35  C   UNL     1       5.648   4.246  15.864  0.00  0.00    +0.000 A 
ATOM     36  C   UNL     1       4.564   3.675  16.496  0.00  0.00    +0.000 A 
ATOM     37  H   UNL     1       8.460   5.725  15.816  0.00  0.00    +0.000 HD
ENDBRANCH  26  27
ENDBRANCH  25  26
ENDBRANCH  11  25
TORSDOF 6
ENDMDL
MODEL 4
REMARK VINA RESULT:      -8.2      1.696      1.932
REMARK  Name = 
REMARK  8 active torsions:
REMARK  status: ('A' for Active; 'I' for Inactive)
REMARK    1  A    between atoms: C_1  and  C_2
REMARK    2  A    between atoms: C_2  and  C_3
REMARK    3  A    between atoms: C_2  and  O_4
REMARK    4  A    between atoms: O_4  and  C_5
REMARK    5  A    between atoms: C_8  and  N_9
REMARK    6  A    between atoms: C_19  and  C_21
REMARK    7  A    between atoms: C_21  and  C_22
REMARK    8  A    between atoms: C_22  and  C_23
REMARK                            x       y       z     vdW  Elec       q    Type
REMARK                         _______ _______ _______ _____ _____    ______ ____
ROOT
ATOM      1  N   UNL     1      -0.835  12.039  19.046  0.00  0.00    +0.000 N 
ATOM      2  C   UNL     1      -0.184  10.892  19.498  0.00  0.00    +0.000 A 
ATOM      3  N   UNL     1      -0.230  10.555  20.794  0.00  0.00    +0.000 NA
ATOM      4  C   UNL     1       0.412   9.452  21.190  0.00  0.00    +0.000 A 
ATOM      5  C   UNL     1       1.114   8.648  20.333  0.00  0.00    +0.000 A 
ATOM      6  C   UNL     1       1.148   9.075  19.015  0.00  0.00    +0.000 A 
ATOM      7  N   UNL     1       0.497  10.183  18.585  0.00  0.00    +0.000 NA
ATOM      8  C   UNL     1       1.885   8.264  17.981  0.00  0.00    +0.000 C 
ATOM      9  C   UNL     1       2.930   7.361  18.633  0.00  0.00    +0.000 C 
ATOM     10  N   UNL     1       2.324   6.606  19.733  0.00  0.00    +0.000 N 
ATOM     11  C   UNL     1       2.218   5.225  19.822  0.00  0.00    +0.000 C 
ATOM     12  O   UNL     1       1.709   4.670  20.792  0.00  0.00    +0.000 OA
ATOM     13  C   UNL     1       1.809   7.421  20.826  0.00  0.00    +0.000 C 
ATOM     14  H   UNL     1      -0.592  12.205  18.082  0.00  0.00    +0.000 HD
ENDROOT
BRANCH   1  18
ATOM     15  C   UNL     1      -2.258  15.285  21.361  0.00  0.00    +0.000 A 
ATOM     16  C   UNL     1      -1.040  15.354  20.688  0.00  0.00    +0.000 A 
ATOM     17  C   UNL     1      -0.606  14.289  19.889  0.00  0.00    +0.000 A 
ATOM     18  C   UNL     1      -1.360  13.117  19.772  0.00  0.00    +0.000 A 
ATOM     19  C   UNL     1      -2.604  13.086  20.413  0.00  0.00    +0.000 A 
ATOM     20  C   UNL     1      -3.044  14.145  21.210  0.00  0.00    +0.000 A 
BRANCH  15  21
ATOM     21  O   UNL     1      -2.774  16.242  22.188  0.00  0.00    +0.000 OA
BRANCH  21  23
ATOM     22  C   UNL     1      -4.633  17.419  21.292  0.00  0.00    +0.000 C 
ATOM     23  C   UNL     1      -3.148  17.502  21.625  0.00  0.00    +0.000 C 
ATOM     24  C   UNL     1      -2.887  18.616  22.634  0.00  0.00    +0.000 C 
ENDBRANCH  21  23
ENDBRANCH  15  21
ENDBRANCH   1  18
BRANCH  11  25
ATOM     25  C   UNL     1       2.766   4.427  18.653  0.00  0.00    +0.000 C 
BRANCH  25  26
ATOM     26  C   UNL     1       4.187   3.931  18.904  0.00  0.00    +0.000 C 
BRANCH  26  27
ATOM     27  C   UNL     1       5.127   4.380  17.807  0.00  0.00    +0.000 A 
ATOM     28  C   UNL     1       6.172   5.293  18.100  0.00  0.00    +0.000 A 
ATOM     29  C   UNL     1       7.064   5.719  17.109  0.00  0.00    +0.000 A 
ATOM     30  C   UNL     1       6.880   5.202  15.849  0.00  0.00    +0.000 A 
ATOM     31  N   UNL     1       7.564   5.416  14.692  0.00  0.00    +0.000 N 
ATOM     32  C   UNL     1       6.974   4.657  13.707  0.00  0.00    +0.000 A 
ATOM     33  O   UNL     1       7.342   4.617  12.543  0.00  0.00    +0.000 OA
ATOM     34  O   UNL     1       5.887   3.924  14.217  0.00  0.00    +0.000 OA
ATOM     35  C   UNL     1       5.877   4.307  15.546  0.00  0.00    +0.000 A 
ATOM     36  C   UNL     1       4.985   3.873  16.503  0.00  0.00    +0.000 A 
ATOM     37  H   UNL     1       8.356   6.018  14.534  0.00  0.00    +0.000 HD
ENDBRANCH  26  27
ENDBRANCH  25  26
ENDBRANCH  11  25
TORSDOF 6
ENDMDL
MODEL 5
REMARK VINA RESULT:      -8.1      5.470      8.171
REMARK  Name = 
REMARK  8 active torsions:
REMARK  status: ('A' for Active; 'I' for Inactive)
REMARK    1  A    between atoms: C_1  and  C_2
REMARK    2  A    between atoms: C_2  and  C_3
REMARK    3  A    between atoms: C_2  and  O_4
REMARK    4  A    between atoms: O_4  and  C_5
REMARK    5  A    between atoms: C_8  and  N_9
REMARK    6  A    between atoms: C_19  and  C_21
REMARK    7  A    between atoms: C_21  and  C_22
REMARK    8  A    between atoms: C_22  and  C_23
REMARK                            x       y       z     vdW  Elec       q    Type
REMARK                         _______ _______ _______ _____ _____    ______ ____
ROOT
ATOM      1  N   UNL     1       8.417  10.140  17.647  0.00  0.00    +0.000 N 
ATOM      2  C   UNL     1       8.109   8.809  17.926  0.00  0.00    +0.000 A 
ATOM      3  N   UNL     1       8.643   8.202  18.994  0.00  0.00    +0.000 NA
ATOM      4  C   UNL     1       8.330   6.923  19.224  0.00  0.00    +0.000 A 
ATOM      5  C   UNL     1       7.486   6.204  18.420  0.00  0.00    +0.000 A 
ATOM      6  C   UNL     1       6.998   6.885  17.317  0.00  0.00    +0.000 A 
ATOM      7  N   UNL     1       7.292   8.183  17.065  0.00  0.00    +0.000 NA
ATOM      8  C   UNL     1       6.054   6.195  16.366  0.00  0.00    +0.000 C 
ATOM      9  C   UNL     1       6.181   4.677  16.470  0.00  0.00    +0.000 C 
ATOM     10  N   UNL     1       6.100   4.261  17.873  0.00  0.00    +0.000 N 
ATOM     11  C   UNL     1       5.137   3.433  18.431  0.00  0.00    +0.000 C 
ATOM     12  O   UNL     1       5.154   3.120  19.619  0.00  0.00    +0.000 OA
ATOM     13  C   UNL     1       7.161   4.779  18.727  0.00  0.00    +0.000 C 
ATOM     14  H   UNL     1       8.034  10.392  16.749  0.00  0.00    +0.000 HD
ENDROOT
BRANCH   1  18
ATOM     15  C   UNL     1      11.362  12.736  19.229  0.00  0.00    +0.000 A 
ATOM     16  C   UNL     1      10.268  12.332  19.991  0.00  0.00    +0.000 A 
ATOM     17  C   UNL     1       9.328  11.436  19.468  0.00  0.00    +0.000 A 
ATOM     18  C   UNL     1       9.438  10.951  18.161  0.00  0.00    +0.000 A 
ATOM     19  C   UNL     1      10.571  11.326  17.429  0.00  0.00    +0.000 A 
ATOM     20  C   UNL     1      11.514  12.219  17.946  0.00  0.00    +0.000 A 
BRANCH  15  21
ATOM     21  O   UNL     1      12.326  13.623  19.617  0.00  0.00    +0.000 OA
BRANCH  21  23
ATOM     22  C   UNL     1      11.264  15.223  18.218  0.00  0.00    +0.000 C 
ATOM     23  C   UNL     1      12.052  15.022  19.507  0.00  0.00    +0.000 C 
ATOM     24  C   UNL     1      11.238  15.485  20.711  0.00  0.00    +0.000 C 
ENDBRANCH  21  23
ENDBRANCH  15  21
ENDBRANCH   1  18
BRANCH  11  25
ATOM     25  C   UNL     1       4.053   2.929  17.496  0.00  0.00    +0.000 C 
BRANCH  25  26
ATOM     26  C   UNL     1       3.104   4.041  17.056  0.00  0.00    +0.000 C 
BRANCH  26  27
ATOM     27  C   UNL     1       2.578   4.816  18.244  0.00  0.00    +0.000 A 
ATOM     28  C   UNL     1       2.084   4.123  19.378  0.00  0.00    +0.000 A 
ATOM     29  C   UNL     1       1.601   4.812  20.497  0.00  0.00    +0.000 A 
ATOM     30  C   UNL     1       1.639   6.185  20.440  0.00  0.00    +0.000 A 
ATOM     31  N   UNL     1       1.249   7.123  21.346  0.00  0.00    +0.000 N 
ATOM     32  C   UNL     1       1.497   8.363  20.803  0.00  0.00    +0.000 A 
ATOM     33  O   UNL     1       1.261   9.427  21.354  0.00  0.00    +0.000 OA
ATOM     34  O   UNL     1       2.065   8.248  19.521  0.00  0.00    +0.000 OA
ATOM     35  C   UNL     1       2.124   6.877  19.352  0.00  0.00    +0.000 A 
ATOM     36  C   UNL     1       2.604   6.222  18.238  0.00  0.00    +0.000 A 
ATOM     37  H   UNL     1       0.839   6.985  22.256  0.00  0.00    +0.000 HD
ENDBRANCH  26  27
ENDBRANCH  25  26
ENDBRANCH  11  25
TORSDOF 6
ENDMDL
MODEL 6
REMARK VINA RESULT:      -8.0      1.818      2.069
REMARK  Name = 
REMARK  8 active torsions:
REMARK  status: ('A' for Active; 'I' for Inactive)
REMARK    1  A    between atoms: C_1  and  C_2
REMARK    2  A    between atoms: C_2  and  C_3
REMARK    3  A    between atoms: C_2  and  O_4
REMARK    4  A    between atoms: O_4  and  C_5
REMARK    5  A    between atoms: C_8  and  N_9
REMARK    6  A    between atoms: C_19  and  C_21
REMARK    7  A    between atoms: C_21  and  C_22
REMARK    8  A    between atoms: C_22  and  C_23
REMARK                            x       y       z     vdW  Elec       q    Type
REMARK                         _______ _______ _______ _____ _____    ______ ____
ROOT
ATOM      1  N   UNL     1      -1.346  12.365  19.175  0.00  0.00    +0.000 N 
ATOM      2  C   UNL     1      -0.567  11.272  19.551  0.00  0.00    +0.000 A 
ATOM      3  N   UNL     1      -0.420  10.960  20.845  0.00  0.00    +0.000 NA
ATOM      4  C   UNL     1       0.341   9.909  21.166  0.00  0.00    +0.000 A 
ATOM      5  C   UNL     1       0.977   9.135  20.234  0.00  0.00    +0.000 A 
ATOM      6  C   UNL     1       0.809   9.535  18.918  0.00  0.00    +0.000 A 
ATOM      7  N   UNL     1       0.035  10.590  18.565  0.00  0.00    +0.000 NA
ATOM      8  C   UNL     1       1.457   8.752  17.806  0.00  0.00    +0.000 C 
ATOM      9  C   UNL     1       2.636   7.932  18.325  0.00  0.00    +0.000 C 
ATOM     10  N   UNL     1       2.231   7.163  19.505  0.00  0.00    +0.000 N 
ATOM     11  C   UNL     1       2.230   5.780  19.623  0.00  0.00    +0.000 C 
ATOM     12  O   UNL     1       1.890   5.213  20.659  0.00  0.00    +0.000 OA
ATOM     13  C   UNL     1       1.810   7.965  20.645  0.00  0.00    +0.000 C 
ATOM     14  H   UNL     1      -1.243  12.527  18.185  0.00  0.00    +0.000 HD
ENDROOT
BRANCH   1  18
ATOM     15  C   UNL     1      -2.677  15.545  21.632  0.00  0.00    +0.000 A 
ATOM     16  C   UNL     1      -1.496  15.641  20.900  0.00  0.00    +0.000 A 
ATOM     17  C   UNL     1      -1.094  14.598  20.056  0.00  0.00    +0.000 A 
ATOM     18  C   UNL     1      -1.842  13.422  19.951  0.00  0.00    +0.000 A 
ATOM     19  C   UNL     1      -3.052  13.364  20.654  0.00  0.00    +0.000 A 
ATOM     20  C   UNL     1      -3.459  14.402  21.497  0.00  0.00    +0.000 A 
BRANCH  15  21
ATOM     21  O   UNL     1      -3.157  16.479  22.506  0.00  0.00    +0.000 OA
BRANCH  21  23
ATOM     22  C   UNL     1      -4.132  15.954  24.608  0.00  0.00    +0.000 C 
ATOM     23  C   UNL     1      -2.843  16.341  23.895  0.00  0.00    +0.000 C 
ATOM     24  C   UNL     1      -1.783  15.259  24.079  0.00  0.00    +0.000 C 
ENDBRANCH  21  23
ENDBRANCH  15  21
ENDBRANCH   1  18
BRANCH  11  25
ATOM     25  C   UNL     1       2.672   4.995  18.401  0.00  0.00    +0.000 C 
BRANCH  25  26
ATOM     26  C   UNL     1       3.991   4.262  18.629  0.00  0.00    +0.000 C 
BRANCH  26  27
ATOM     27  C   UNL     1       4.992   4.582  17.540  0.00  0.00    +0.000 A 
ATOM     28  C   UNL     1       6.115   5.397  17.829  0.00  0.00    +0.000 A 
ATOM     29  C   UNL     1       7.064   5.702  16.845  0.00  0.00    +0.000 A 
ATOM     30  C   UNL     1       6.854   5.165  15.597  0.00  0.00    +0.000 A 
ATOM     31  N   UNL     1       7.577   5.274  14.450  0.00  0.00    +0.000 N 
ATOM     32  C   UNL     1       6.935   4.545  13.475  0.00  0.00    +0.000 A 
ATOM     33  O   UNL     1       7.319   4.432  12.322  0.00  0.00    +0.000 OA
ATOM     34  O   UNL     1       5.771   3.938  13.983  0.00  0.00    +0.000 OA
ATOM     35  C   UNL     1       5.774   4.363  15.299  0.00  0.00    +0.000 A 
ATOM     36  C   UNL     1       4.826   4.049  16.249  0.00  0.00    +0.000 A 
ATOM     37  H   UNL     1       8.428   5.790  14.291  0.00  0.00    +0.000 HD
ENDBRANCH  26  27
ENDBRANCH  25  26
ENDBRANCH  11  25
TORSDOF 6
ENDMDL
MODEL 7
REMARK VINA RESULT:      -8.0      1.496      1.620
REMARK  Name = 
REMARK  8 active torsions:
REMARK  status: ('A' for Active; 'I' for Inactive)
REMARK    1  A    between atoms: C_1  and  C_2
REMARK    2  A    between atoms: C_2  and  C_3
REMARK    3  A    between atoms: C_2  and  O_4
REMARK    4  A    between atoms: O_4  and  C_5
REMARK    5  A    between atoms: C_8  and  N_9
REMARK    6  A    between atoms: C_19  and  C_21
REMARK    7  A    between atoms: C_21  and  C_22
REMARK    8  A    between atoms: C_22  and  C_23
REMARK                            x       y       z     vdW  Elec       q    Type
REMARK                         _______ _______ _______ _____ _____    ______ ____
ROOT
ATOM      1  N   UNL     1       0.551  11.950  18.538  0.00  0.00    +0.000 N 
ATOM      2  C   UNL     1       0.864  10.712  19.099  0.00  0.00    +0.000 A 
ATOM      3  N   UNL     1       0.538  10.445  20.370  0.00  0.00    +0.000 NA
ATOM      4  C   UNL     1       0.862   9.251  20.875  0.00  0.00    +0.000 A 
ATOM      5  C   UNL     1       1.509   8.285  20.152  0.00  0.00    +0.000 A 
ATOM      6  C   UNL     1       1.845   8.642  18.856  0.00  0.00    +0.000 A 
ATOM      7  N   UNL     1       1.520   9.842  18.317  0.00  0.00    +0.000 NA
ATOM      8  C   UNL     1       2.554   7.654  17.965  0.00  0.00    +0.000 C 
ATOM      9  C   UNL     1       3.265   6.583  18.788  0.00  0.00    +0.000 C 
ATOM     10  N   UNL     1       2.344   6.014  19.776  0.00  0.00    +0.000 N 
ATOM     11  C   UNL     1       1.937   4.690  19.853  0.00  0.00    +0.000 C 
ATOM     12  O   UNL     1       1.172   4.292  20.728  0.00  0.00    +0.000 OA
ATOM     13  C   UNL     1       1.840   6.962  20.761  0.00  0.00    +0.000 C 
ATOM     14  H   UNL     1       0.977  12.023  17.627  0.00  0.00    +0.000 HD
ENDROOT
BRANCH   1  18
ATOM     15  C   UNL     1      -0.462  15.565  20.491  0.00  0.00    +0.000 A 
ATOM     16  C   UNL     1       0.545  15.519  19.530  0.00  0.00    +0.000 A 
ATOM     17  C   UNL     1       0.836  14.324  18.860  0.00  0.00    +0.000 A 
ATOM     18  C   UNL     1       0.153  13.141  19.159  0.00  0.00    +0.000 A 
ATOM     19  C   UNL     1      -0.890  13.218  20.089  0.00  0.00    +0.000 A 
ATOM     20  C   UNL     1      -1.186  14.407  20.761  0.00  0.00    +0.000 A 
BRANCH  15  21
ATOM     21  O   UNL     1      -0.818  16.659  21.229  0.00  0.00    +0.000 OA
BRANCH  21  23
ATOM     22  C   UNL     1      -2.436  18.295  21.820  0.00  0.00    +0.000 C 
ATOM     23  C   UNL     1      -1.734  17.598  20.661  0.00  0.00    +0.000 C 
ATOM     24  C   UNL     1      -0.974  18.610  19.808  0.00  0.00    +0.000 C 
ENDBRANCH  21  23
ENDBRANCH  15  21
ENDBRANCH   1  18
BRANCH  11  25
ATOM     25  C   UNL     1       2.487   3.749  18.797  0.00  0.00    +0.000 C 
BRANCH  25  26
ATOM     26  C   UNL     1       3.893   3.259  19.132  0.00  0.00    +0.000 C 
BRANCH  26  27
ATOM     27  C   UNL     1       4.919   3.842  18.185  0.00  0.00    +0.000 A 
ATOM     28  C   UNL     1       6.056   4.515  18.700  0.00  0.00    +0.000 A 
ATOM     29  C   UNL     1       7.027   5.056  17.850  0.00  0.00    +0.000 A 
ATOM     30  C   UNL     1       6.825   4.894  16.499  0.00  0.00    +0.000 A 
ATOM     31  N   UNL     1       7.570   5.298  15.435  0.00  0.00    +0.000 N 
ATOM     32  C   UNL     1       6.927   4.887  14.290  0.00  0.00    +0.000 A 
ATOM     33  O   UNL     1       7.327   5.089  13.154  0.00  0.00    +0.000 OA
ATOM     34  O   UNL     1       5.741   4.194  14.597  0.00  0.00    +0.000 OA
ATOM     35  C   UNL     1       5.732   4.235  15.980  0.00  0.00    +0.000 A 
ATOM     36  C   UNL     1       4.761   3.695  16.795  0.00  0.00    +0.000 A 
ATOM     37  H   UNL     1       8.435   5.816  15.434  0.00  0.00    +0.000 HD
ENDBRANCH  26  27
ENDBRANCH  25  26
ENDBRANCH  11  25
TORSDOF 6
ENDMDL
MODEL 8
REMARK VINA RESULT:      -7.8      3.424     12.673
REMARK  Name = 
REMARK  8 active torsions:
REMARK  status: ('A' for Active; 'I' for Inactive)
REMARK    1  A    between atoms: C_1  and  C_2
REMARK    2  A    between atoms: C_2  and  C_3
REMARK    3  A    between atoms: C_2  and  O_4
REMARK    4  A    between atoms: O_4  and  C_5
REMARK    5  A    between atoms: C_8  and  N_9
REMARK    6  A    between atoms: C_19  and  C_21
REMARK    7  A    between atoms: C_21  and  C_22
REMARK    8  A    between atoms: C_22  and  C_23
REMARK                            x       y       z     vdW  Elec       q    Type
REMARK                         _______ _______ _______ _____ _____    ______ ____
ROOT
ATOM      1  N   UNL     1       3.308   5.821  18.292  0.00  0.00    +0.000 N 
ATOM      2  C   UNL     1       2.681   7.027  18.604  0.00  0.00    +0.000 A 
ATOM      3  N   UNL     1       2.509   7.963  17.662  0.00  0.00    +0.000 NA
ATOM      4  C   UNL     1       1.911   9.108  18.001  0.00  0.00    +0.000 A 
ATOM      5  C   UNL     1       1.463   9.370  19.268  0.00  0.00    +0.000 A 
ATOM      6  C   UNL     1       1.704   8.373  20.199  0.00  0.00    +0.000 A 
ATOM      7  N   UNL     1       2.300   7.198  19.879  0.00  0.00    +0.000 NA
ATOM      8  C   UNL     1       1.248   8.549  21.624  0.00  0.00    +0.000 C 
ATOM      9  C   UNL     1       1.047  10.026  21.958  0.00  0.00    +0.000 C 
ATOM     10  N   UNL     1       0.218  10.664  20.933  0.00  0.00    +0.000 N 
ATOM     11  C   UNL     1      -1.020  11.259  21.129  0.00  0.00    +0.000 C 
ATOM     12  O   UNL     1      -1.643  11.790  20.213  0.00  0.00    +0.000 OA
ATOM     13  C   UNL     1       0.792  10.665  19.594  0.00  0.00    +0.000 C 
ATOM     14  H   UNL     1       3.465   5.295  19.138  0.00  0.00    +0.000 HD
ENDROOT
BRANCH   1  18
ATOM     15  C   UNL     1       5.718   4.652  15.015  0.00  0.00    +0.000 A 
ATOM     16  C   UNL     1       5.057   3.710  15.800  0.00  0.00    +0.000 A 
ATOM     17  C   UNL     1       4.227   4.116  16.852  0.00  0.00    +0.000 A 
ATOM     18  C   UNL     1       4.065   5.469  17.166  0.00  0.00    +0.000 A 
ATOM     19  C   UNL     1       4.695   6.402  16.335  0.00  0.00    +0.000 A 
ATOM     20  C   UNL     1       5.525   6.004  15.283  0.00  0.00    +0.000 A 
BRANCH  15  21
ATOM     21  O   UNL     1       6.573   4.380  13.984  0.00  0.00    +0.000 OA
BRANCH  21  23
ATOM     22  C   UNL     1       4.852   3.851  12.434  0.00  0.00    +0.000 C 
ATOM     23  C   UNL     1       6.186   3.401  13.016  0.00  0.00    +0.000 C 
ATOM     24  C   UNL     1       7.246   3.311  11.922  0.00  0.00    +0.000 C 
ENDBRANCH  21  23
ENDBRANCH  15  21
ENDBRANCH   1  18
BRANCH  11  25
ATOM     25  C   UNL     1      -1.573  11.223  22.543  0.00  0.00    +0.000 C 
BRANCH  25  26
ATOM     26  C   UNL     1      -1.690  12.616  23.155  0.00  0.00    +0.000 C 
BRANCH  26  27
ATOM     27  C   UNL     1      -3.138  13.019  23.328  0.00  0.00    +0.000 A 
ATOM     28  C   UNL     1      -3.954  12.339  24.268  0.00  0.00    +0.000 A 
ATOM     29  C   UNL     1      -5.294  12.695  24.459  0.00  0.00    +0.000 A 
ATOM     30  C   UNL     1      -5.770  13.737  23.699  0.00  0.00    +0.000 A 
ATOM     31  N   UNL     1      -7.004  14.309  23.649  0.00  0.00    +0.000 N 
ATOM     32  C   UNL     1      -6.963  15.319  22.716  0.00  0.00    +0.000 A 
ATOM     33  O   UNL     1      -7.906  16.037  22.422  0.00  0.00    +0.000 OA
ATOM     34  O   UNL     1      -5.683  15.424  22.141  0.00  0.00    +0.000 OA
ATOM     35  C   UNL     1      -4.992  14.416  22.787  0.00  0.00    +0.000 A 
ATOM     36  C   UNL     1      -3.670  14.084  22.580  0.00  0.00    +0.000 A 
ATOM     37  H   UNL     1      -7.830  14.066  24.172  0.00  0.00    +0.000 HD
ENDBRANCH  26  27
ENDBRANCH  25  26
ENDBRANCH  11  25
TORSDOF 6
ENDMDL
MODEL 9
REMARK VINA RESULT:      -7.8      3.139     12.787
REMARK  Name = 
REMARK  8 active torsions:
REMARK  status: ('A' for Active; 'I' for Inactive)
REMARK    1  A    between atoms: C_1  and  C_2
REMARK    2  A    between atoms: C_2  and  C_3
REMARK    3  A    between atoms: C_2  and  O_4
REMARK    4  A    between atoms: O_4  and  C_5
REMARK    5  A    between atoms: C_8  and  N_9
REMARK    6  A    between atoms: C_19  and  C_21
REMARK    7  A    between atoms: C_21  and  C_22
REMARK    8  A    between atoms: C_22  and  C_23
REMARK                            x       y       z     vdW  Elec       q    Type
REMARK                         _______ _______ _______ _____ _____    ______ ____
ROOT
ATOM      1  N   UNL     1       2.969   5.714  19.242  0.00  0.00    +0.000 N 
ATOM      2  C   UNL     1       2.392   6.982  19.283  0.00  0.00    +0.000 A 
ATOM      3  N   UNL     1       2.395   7.762  18.194  0.00  0.00    +0.000 NA
ATOM      4  C   UNL     1       1.839   8.974  18.276  0.00  0.00    +0.000 A 
ATOM      5  C   UNL     1       1.264   9.457  19.420  0.00  0.00    +0.000 A 
ATOM      6  C   UNL     1       1.327   8.612  20.516  0.00  0.00    +0.000 A 
ATOM      7  N   UNL     1       1.876   7.374  20.458  0.00  0.00    +0.000 NA
ATOM      8  C   UNL     1       0.720   9.036  21.829  0.00  0.00    +0.000 C 
ATOM      9  C   UNL     1       0.580  10.555  21.904  0.00  0.00    +0.000 C 
ATOM     10  N   UNL     1      -0.077  11.060  20.696  0.00  0.00    +0.000 N 
ATOM     11  C   UNL     1      -1.287  11.737  20.642  0.00  0.00    +0.000 C 
ATOM     12  O   UNL     1      -1.761  12.143  19.583  0.00  0.00    +0.000 OA
ATOM     13  C   UNL     1       0.648  10.818  19.456  0.00  0.00    +0.000 C 
ATOM     14  H   UNL     1       2.990   5.324  20.171  0.00  0.00    +0.000 HD
ENDROOT
BRANCH   1  18
ATOM     15  C   UNL     1       5.607   4.199  16.298  0.00  0.00    +0.000 A 
ATOM     16  C   UNL     1       6.060   5.038  17.314  0.00  0.00    +0.000 A 
ATOM     17  C   UNL     1       5.183   5.493  18.306  0.00  0.00    +0.000 A 
ATOM     18  C   UNL     1       3.827   5.150  18.288  0.00  0.00    +0.000 A 
ATOM     19  C   UNL     1       3.402   4.265  17.290  0.00  0.00    +0.000 A 
ATOM     20  C   UNL     1       4.271   3.806  16.298  0.00  0.00    +0.000 A 
BRANCH  15  21
ATOM     21  O   UNL     1       6.356   3.715  15.264  0.00  0.00    +0.000 OA
BRANCH  21  23
ATOM     22  C   UNL     1       7.565   5.153  13.809  0.00  0.00    +0.000 C 
ATOM     23  C   UNL     1       6.272   4.369  13.994  0.00  0.00    +0.000 C 
ATOM     24  C   UNL     1       6.112   3.330  12.888  0.00  0.00    +0.000 C 
ENDBRANCH  21  23
ENDBRANCH  15  21
ENDBRANCH   1  18
BRANCH  11  25
ATOM     25  C   UNL     1      -2.003  11.954  21.963  0.00  0.00    +0.000 C 
BRANCH  25  26
ATOM     26  C   UNL     1      -3.414  12.505  21.774  0.00  0.00    +0.000 C 
BRANCH  26  27
ATOM     27  C   UNL     1      -3.697  13.632  22.742  0.00  0.00    +0.000 A 
ATOM     28  C   UNL     1      -2.999  13.698  23.975  0.00  0.00    +0.000 A 
ATOM     29  C   UNL     1      -3.232  14.734  24.887  0.00  0.00    +0.000 A 
ATOM     30  C   UNL     1      -4.158  15.682  24.522  0.00  0.00    +0.000 A 
ATOM     31  N   UNL     1      -4.601  16.790  25.176  0.00  0.00    +0.000 N 
ATOM     32  C   UNL     1      -5.539  17.404  24.379  0.00  0.00    +0.000 A 
ATOM     33  O   UNL     1      -6.139  18.428  24.668  0.00  0.00    +0.000 OA
ATOM     34  O   UNL     1      -5.719  16.698  23.174  0.00  0.00    +0.000 OA
ATOM     35  C   UNL     1      -4.839  15.641  23.325  0.00  0.00    +0.000 A 
ATOM     36  C   UNL     1      -4.630  14.631  22.411  0.00  0.00    +0.000 A 
ATOM     37  H   UNL     1      -4.330  17.133  26.084  0.00  0.00    +0.000 HD
ENDBRANCH  26  27
ENDBRANCH  25  26
ENDBRANCH  11  25
TORSDOF 6
ENDMDL
