MODEL 1
REMARK VINA RESULT:      -8.7      0.000      0.000
REMARK  Name = 
REMARK  4 active torsions:
REMARK  status: ('A' for Active; 'I' for Inactive)
REMARK    1  A    between atoms: C_2  and  C_23
REMARK    2  A    between atoms: N_3  and  C_4
REMARK    3  A    between atoms: C_9  and  N_10
REMARK    4  A    between atoms: C_11  and  C_13
REMARK                            x       y       z     vdW  Elec       q    Type
REMARK                         _______ _______ _______ _____ _____    ______ ____
ROOT
ATOM      1  C   UNL     1       2.410   4.503  20.011  0.00  0.00    +0.000 A 
ATOM      2  C   UNL     1       1.682   4.217  21.182  0.00  0.00    +0.000 A 
ATOM      3  C   UNL     1       1.478   2.905  21.594  0.00  0.00    +0.000 A 
ATOM      4  C   UNL     1       2.040   1.871  20.858  0.00  0.00    +0.000 A 
ATOM      5  C   UNL     1       2.776   2.150  19.699  0.00  0.00    +0.000 A 
ATOM      6  C   UNL     1       2.953   3.462  19.231  0.00  0.00    +0.000 A 
ENDROOT
BRANCH   1   9
ATOM      7  O   UNL     1       1.434   6.902  21.308  0.00  0.00    +0.000 OA
ATOM      8  C   UNL     1       1.906   6.914  20.175  0.00  0.00    +0.000 C 
ATOM      9  N   UNL     1       2.492   5.831  19.547  0.00  0.00    +0.000 N 
ATOM     10  H   UNL     1       2.944   5.934  18.654  0.00  0.00    +0.000 HD
BRANCH   8  11
ATOM     11  C   UNL     1       1.865   8.180  19.394  0.00  0.00    +0.000 A 
ATOM     12  C   UNL     1       2.511   8.338  18.159  0.00  0.00    +0.000 A 
ATOM     13  C   UNL     1       2.379   9.531  17.451  0.00  0.00    +0.000 A 
ATOM     14  C   UNL     1       1.622  10.576  17.979  0.00  0.00    +0.000 A 
ATOM     15  C   UNL     1       1.000  10.440  19.217  0.00  0.00    +0.000 A 
ATOM     16  C   UNL     1       1.122   9.244  19.924  0.00  0.00    +0.000 A 
ENDBRANCH   8  11
ENDBRANCH   1   9
BRANCH   6  17
ATOM     17  N   UNL     1       3.700   3.768  18.040  0.00  0.00    +0.000 N 
ATOM     18  C   UNL     1       5.063   4.042  18.006  0.00  0.00    +0.000 C 
ATOM     19  O   UNL     1       5.799   4.009  18.989  0.00  0.00    +0.000 OA
ATOM     20  H   UNL     1       3.197   3.792  17.161  0.00  0.00    +0.000 HD
BRANCH  18  21
ATOM     21  C   UNL     1       5.713   4.385  16.702  0.00  0.00    +0.000 A 
ATOM     22  C   UNL     1       6.775   5.279  16.766  0.00  0.00    +0.000 A 
ATOM     23  N   UNL     1       7.472   5.683  15.681  0.00  0.00    +0.000 NA
ATOM     24  C   UNL     1       7.132   5.122  14.515  0.00  0.00    +0.000 A 
ATOM     25  C   UNL     1       7.865   5.492  13.395  0.00  0.00    +0.000 A 
ATOM     26  C   UNL     1       7.646   4.891  12.162  0.00  0.00    +0.000 A 
ATOM     27  C   UNL     1       6.665   3.916  12.057  0.00  0.00    +0.000 A 
ATOM     28  C   UNL     1       5.885   3.578  13.176  0.00  0.00    +0.000 A 
ATOM     29  C   UNL     1       6.083   4.163  14.429  0.00  0.00    +0.000 A 
ATOM     30  N   UNL     1       5.334   3.808  15.526  0.00  0.00    +0.000 NA
ENDBRANCH  18  21
ENDBRANCH   6  17
TORSDOF 4
ENDMDL
MODEL 2
REMARK VINA RESULT:      -8.7      1.963      7.704
REMARK  Name = 
REMARK  4 active torsions:
REMARK  status: ('A' for Active; 'I' for Inactive)
REMARK    1  A    between atoms: C_2  and  C_23
REMARK    2  A    between atoms: N_3  and  C_4
REMARK    3  A    between atoms: C_9  and  N_10
REMARK    4  A    between atoms: C_11  and  C_13
REMARK                            x       y       z     vdW  Elec       q    Type
REMARK                         _______ _______ _______ _____ _____    ______ ____
ROOT
ATOM      1  C   UNL     1       5.114   4.586  17.026  0.00  0.00    +0.000 A 
ATOM      2  C   UNL     1       5.823   3.677  16.219  0.00  0.00    +0.000 A 
ATOM      3  C   UNL     1       6.359   4.073  14.998  0.00  0.00    +0.000 A 
ATOM      4  C   UNL     1       6.223   5.395  14.598  0.00  0.00    +0.000 A 
ATOM      5  C   UNL     1       5.528   6.307  15.403  0.00  0.00    +0.000 A 
ATOM      6  C   UNL     1       4.933   5.923  16.615  0.00  0.00    +0.000 A 
ENDROOT
BRANCH   1   9
ATOM      7  O   UNL     1       3.444   2.240  17.335  0.00  0.00    +0.000 OA
ATOM      8  C   UNL     1       3.603   3.056  18.237  0.00  0.00    +0.000 C 
ATOM      9  N   UNL     1       4.472   4.129  18.194  0.00  0.00    +0.000 N 
ATOM     10  H   UNL     1       4.623   4.704  19.007  0.00  0.00    +0.000 HD
BRANCH   8  11
ATOM     11  C   UNL     1       2.816   2.899  19.491  0.00  0.00    +0.000 A 
ATOM     12  C   UNL     1       3.400   2.566  20.722  0.00  0.00    +0.000 A 
ATOM     13  C   UNL     1       2.612   2.497  21.870  0.00  0.00    +0.000 A 
ATOM     14  C   UNL     1       1.242   2.741  21.793  0.00  0.00    +0.000 A 
ATOM     15  C   UNL     1       0.648   3.045  20.571  0.00  0.00    +0.000 A 
ATOM     16  C   UNL     1       1.435   3.124  19.422  0.00  0.00    +0.000 A 
ENDBRANCH   8  11
ENDBRANCH   1   9
BRANCH   6  17
ATOM     17  N   UNL     1       4.211   6.843  17.452  0.00  0.00    +0.000 N 
ATOM     18  C   UNL     1       2.868   6.721  17.793  0.00  0.00    +0.000 C 
ATOM     19  O   UNL     1       2.152   5.783  17.455  0.00  0.00    +0.000 OA
ATOM     20  H   UNL     1       4.714   7.644  17.816  0.00  0.00    +0.000 HD
BRANCH  18  21
ATOM     21  C   UNL     1       2.225   7.773  18.643  0.00  0.00    +0.000 A 
ATOM     22  C   UNL     1       1.785   8.910  17.978  0.00  0.00    +0.000 A 
ATOM     23  N   UNL     1       1.177   9.945  18.599  0.00  0.00    +0.000 NA
ATOM     24  C   UNL     1       0.950   9.800  19.909  0.00  0.00    +0.000 A 
ATOM     25  C   UNL     1       0.288  10.835  20.557  0.00  0.00    +0.000 A 
ATOM     26  C   UNL     1      -0.073  10.731  21.894  0.00  0.00    +0.000 A 
ATOM     27  C   UNL     1       0.250   9.574  22.588  0.00  0.00    +0.000 A 
ATOM     28  C   UNL     1       0.968   8.548  21.950  0.00  0.00    +0.000 A 
ATOM     29  C   UNL     1       1.344   8.622  20.607  0.00  0.00    +0.000 A 
ATOM     30  N   UNL     1       2.023   7.603  19.981  0.00  0.00    +0.000 NA
ENDBRANCH  18  21
ENDBRANCH   6  17
TORSDOF 4
ENDMDL
MODEL 3
REMARK VINA RESULT:      -8.6      4.445      6.414
REMARK  Name = 
REMARK  4 active torsions:
REMARK  status: ('A' for Active; 'I' for Inactive)
REMARK    1  A    between atoms: C_2  and  C_23
REMARK    2  A    between atoms: N_3  and  C_4
REMARK    3  A    between atoms: C_9  and  N_10
REMARK    4  A    between atoms: C_11  and  C_13
REMARK                            x       y       z     vdW  Elec       q    Type
REMARK                         _______ _______ _______ _____ _____    ______ ____
ROOT
ATOM      1  C   UNL     1       5.093   5.927  16.954  0.00  0.00    +0.000 A 
ATOM      2  C   UNL     1       4.547   4.668  16.641  0.00  0.00    +0.000 A 
ATOM      3  C   UNL     1       5.294   3.714  15.959  0.00  0.00    +0.000 A 
ATOM      4  C   UNL     1       6.609   4.002  15.622  0.00  0.00    +0.000 A 
ATOM      5  C   UNL     1       7.162   5.249  15.941  0.00  0.00    +0.000 A 
ATOM      6  C   UNL     1       6.415   6.249  16.583  0.00  0.00    +0.000 A 
ENDROOT
BRANCH   1   9
ATOM      7  O   UNL     1       3.368   5.685  19.268  0.00  0.00    +0.000 OA
ATOM      8  C   UNL     1       3.396   6.696  18.573  0.00  0.00    +0.000 C 
ATOM      9  N   UNL     1       4.275   6.919  17.530  0.00  0.00    +0.000 N 
ATOM     10  H   UNL     1       4.306   7.810  17.063  0.00  0.00    +0.000 HD
BRANCH   8  11
ATOM     11  C   UNL     1       2.425   7.787  18.857  0.00  0.00    +0.000 A 
ATOM     12  C   UNL     1       1.834   7.976  20.114  0.00  0.00    +0.000 A 
ATOM     13  C   UNL     1       0.980   9.057  20.327  0.00  0.00    +0.000 A 
ATOM     14  C   UNL     1       0.699   9.941  19.287  0.00  0.00    +0.000 A 
ATOM     15  C   UNL     1       1.259   9.747  18.027  0.00  0.00    +0.000 A 
ATOM     16  C   UNL     1       2.121   8.671  17.813  0.00  0.00    +0.000 A 
ENDBRANCH   8  11
ENDBRANCH   1   9
BRANCH   6  17
ATOM     17  N   UNL     1       6.963   7.537  16.914  0.00  0.00    +0.000 N 
ATOM     18  C   UNL     1       7.842   7.780  17.964  0.00  0.00    +0.000 C 
ATOM     19  O   UNL     1       8.291   6.910  18.705  0.00  0.00    +0.000 OA
ATOM     20  H   UNL     1       6.684   8.328  16.345  0.00  0.00    +0.000 HD
BRANCH  18  21
ATOM     21  C   UNL     1       8.309   9.179  18.225  0.00  0.00    +0.000 A 
ATOM     22  C   UNL     1       7.783  10.162  17.396  0.00  0.00    +0.000 A 
ATOM     23  N   UNL     1       8.096  11.472  17.507  0.00  0.00    +0.000 NA
ATOM     24  C   UNL     1       8.907  11.805  18.518  0.00  0.00    +0.000 A 
ATOM     25  C   UNL     1       9.206  13.152  18.676  0.00  0.00    +0.000 A 
ATOM     26  C   UNL     1       9.960  13.599  19.751  0.00  0.00    +0.000 A 
ATOM     27  C   UNL     1      10.429  12.674  20.672  0.00  0.00    +0.000 A 
ATOM     28  C   UNL     1      10.174  11.304  20.486  0.00  0.00    +0.000 A 
ATOM     29  C   UNL     1       9.418  10.824  19.416  0.00  0.00    +0.000 A 
ATOM     30  N   UNL     1       9.148   9.485  19.254  0.00  0.00    +0.000 NA
ENDBRANCH  18  21
ENDBRANCH   6  17
TORSDOF 4
ENDMDL
MODEL 4
REMARK VINA RESULT:      -8.5      2.760      7.016
REMARK  Name = 
REMARK  4 active torsions:
REMARK  status: ('A' for Active; 'I' for Inactive)
REMARK    1  A    between atoms: C_2  and  C_23
REMARK    2  A    between atoms: N_3  and  C_4
REMARK    3  A    between atoms: C_9  and  N_10
REMARK    4  A    between atoms: C_11  and  C_13
REMARK                            x       y       z     vdW  Elec       q    Type
REMARK                         _______ _______ _______ _____ _____    ______ ____
ROOT
ATOM      1  C   UNL     1       3.343   3.785  17.980  0.00  0.00    +0.000 A 
ATOM      2  C   UNL     1       3.553   2.393  17.939  0.00  0.00    +0.000 A 
ATOM      3  C   UNL     1       2.545   1.508  18.304  0.00  0.00    +0.000 A 
ATOM      4  C   UNL     1       1.306   2.011  18.672  0.00  0.00    +0.000 A 
ATOM      5  C   UNL     1       1.087   3.394  18.704  0.00  0.00    +0.000 A 
ATOM      6  C   UNL     1       2.101   4.313  18.391  0.00  0.00    +0.000 A 
ENDROOT
BRANCH   1   9
ATOM      7  O   UNL     1       5.843   3.990  19.427  0.00  0.00    +0.000 OA
ATOM      8  C   UNL     1       5.537   4.772  18.532  0.00  0.00    +0.000 C 
ATOM      9  N   UNL     1       4.418   4.660  17.729  0.00  0.00    +0.000 N 
ATOM     10  H   UNL     1       4.277   5.283  16.951  0.00  0.00    +0.000 HD
BRANCH   8  11
ATOM     11  C   UNL     1       6.424   5.935  18.262  0.00  0.00    +0.000 A 
ATOM     12  C   UNL     1       6.122   6.923  17.313  0.00  0.00    +0.000 A 
ATOM     13  C   UNL     1       6.968   8.020  17.156  0.00  0.00    +0.000 A 
ATOM     14  C   UNL     1       8.123   8.128  17.928  0.00  0.00    +0.000 A 
ATOM     15  C   UNL     1       8.447   7.139  18.853  0.00  0.00    +0.000 A 
ATOM     16  C   UNL     1       7.598   6.045  19.020  0.00  0.00    +0.000 A 
ENDBRANCH   8  11
ENDBRANCH   1   9
BRANCH   6  17
ATOM     17  N   UNL     1       1.898   5.736  18.422  0.00  0.00    +0.000 N 
ATOM     18  C   UNL     1       2.121   6.545  19.531  0.00  0.00    +0.000 C 
ATOM     19  O   UNL     1       2.563   6.142  20.604  0.00  0.00    +0.000 OA
ATOM     20  H   UNL     1       1.562   6.183  17.577  0.00  0.00    +0.000 HD
BRANCH  18  21
ATOM     21  C   UNL     1       1.832   8.012  19.443  0.00  0.00    +0.000 A 
ATOM     22  C   UNL     1       2.082   8.610  18.214  0.00  0.00    +0.000 A 
ATOM     23  N   UNL     1       1.865   9.921  17.969  0.00  0.00    +0.000 NA
ATOM     24  C   UNL     1       1.324  10.630  18.966  0.00  0.00    +0.000 A 
ATOM     25  C   UNL     1       1.053  11.970  18.719  0.00  0.00    +0.000 A 
ATOM     26  C   UNL     1       0.406  12.757  19.661  0.00  0.00    +0.000 A 
ATOM     27  C   UNL     1       0.039  12.188  20.873  0.00  0.00    +0.000 A 
ATOM     28  C   UNL     1       0.360  10.847  21.147  0.00  0.00    +0.000 A 
ATOM     29  C   UNL     1       1.008  10.030  20.219  0.00  0.00    +0.000 A 
ATOM     30  N   UNL     1       1.295   8.711  20.482  0.00  0.00    +0.000 NA
ENDBRANCH  18  21
ENDBRANCH   6  17
TORSDOF 4
ENDMDL
MODEL 5
REMARK VINA RESULT:      -8.3      2.869      7.507
REMARK  Name = 
REMARK  4 active torsions:
REMARK  status: ('A' for Active; 'I' for Inactive)
REMARK    1  A    between atoms: C_2  and  C_23
REMARK    2  A    between atoms: N_3  and  C_4
REMARK    3  A    between atoms: C_9  and  N_10
REMARK    4  A    between atoms: C_11  and  C_13
REMARK                            x       y       z     vdW  Elec       q    Type
REMARK                         _______ _______ _______ _____ _____    ______ ____
ROOT
ATOM      1  C   UNL     1       3.371   3.776  18.593  0.00  0.00    +0.000 A 
ATOM      2  C   UNL     1       3.717   2.437  18.330  0.00  0.00    +0.000 A 
ATOM      3  C   UNL     1       2.758   1.431  18.363  0.00  0.00    +0.000 A 
ATOM      4  C   UNL     1       1.436   1.767  18.619  0.00  0.00    +0.000 A 
ATOM      5  C   UNL     1       1.083   3.100  18.871  0.00  0.00    +0.000 A 
ATOM      6  C   UNL     1       2.039   4.128  18.895  0.00  0.00    +0.000 A 
ENDROOT
BRANCH   1   9
ATOM      7  O   UNL     1       4.518   5.343  16.444  0.00  0.00    +0.000 OA
ATOM      8  C   UNL     1       4.953   5.384  17.591  0.00  0.00    +0.000 C 
ATOM      9  N   UNL     1       4.382   4.753  18.680  0.00  0.00    +0.000 N 
ATOM     10  H   UNL     1       4.737   4.907  19.610  0.00  0.00    +0.000 HD
BRANCH   8  11
ATOM     11  C   UNL     1       6.186   6.172  17.862  0.00  0.00    +0.000 A 
ATOM     12  C   UNL     1       6.503   7.353  17.176  0.00  0.00    +0.000 A 
ATOM     13  C   UNL     1       7.643   8.076  17.524  0.00  0.00    +0.000 A 
ATOM     14  C   UNL     1       8.478   7.617  18.541  0.00  0.00    +0.000 A 
ATOM     15  C   UNL     1       8.187   6.431  19.209  0.00  0.00    +0.000 A 
ATOM     16  C   UNL     1       7.042   5.710  18.870  0.00  0.00    +0.000 A 
ENDBRANCH   8  11
ENDBRANCH   1   9
BRANCH   6  17
ATOM     17  N   UNL     1       1.698   5.500  19.157  0.00  0.00    +0.000 N 
ATOM     18  C   UNL     1       1.879   6.145  20.376  0.00  0.00    +0.000 C 
ATOM     19  O   UNL     1       2.397   5.627  21.361  0.00  0.00    +0.000 OA
ATOM     20  H   UNL     1       1.290   6.037  18.400  0.00  0.00    +0.000 HD
BRANCH  18  21
ATOM     21  C   UNL     1       1.444   7.570  20.527  0.00  0.00    +0.000 A 
ATOM     22  C   UNL     1       1.581   8.372  19.401  0.00  0.00    +0.000 A 
ATOM     23  N   UNL     1       1.226   9.676  19.371  0.00  0.00    +0.000 NA
ATOM     24  C   UNL     1       0.661  10.163  20.482  0.00  0.00    +0.000 A 
ATOM     25  C   UNL     1       0.250  11.489  20.457  0.00  0.00    +0.000 A 
ATOM     26  C   UNL     1      -0.430  12.051  21.528  0.00  0.00    +0.000 A 
ATOM     27  C   UNL     1      -0.687  11.268  22.644  0.00  0.00    +0.000 A 
ATOM     28  C   UNL     1      -0.225   9.941  22.695  0.00  0.00    +0.000 A 
ATOM     29  C   UNL     1       0.460   9.348  21.633  0.00  0.00    +0.000 A 
ATOM     30  N   UNL     1       0.886   8.041  21.678  0.00  0.00    +0.000 NA
ENDBRANCH  18  21
ENDBRANCH   6  17
TORSDOF 4
ENDMDL
MODEL 6
REMARK VINA RESULT:      -8.3      4.301      6.262
REMARK  Name = 
REMARK  4 active torsions:
REMARK  status: ('A' for Active; 'I' for Inactive)
REMARK    1  A    between atoms: C_2  and  C_23
REMARK    2  A    between atoms: N_3  and  C_4
REMARK    3  A    between atoms: C_9  and  N_10
REMARK    4  A    between atoms: C_11  and  C_13
REMARK                            x       y       z     vdW  Elec       q    Type
REMARK                         _______ _______ _______ _____ _____    ______ ____
ROOT
ATOM      1  C   UNL     1       5.102   5.972  16.920  0.00  0.00    +0.000 A 
ATOM      2  C   UNL     1       4.584   4.710  16.574  0.00  0.00    +0.000 A 
ATOM      3  C   UNL     1       5.346   3.796  15.855  0.00  0.00    +0.000 A 
ATOM      4  C   UNL     1       6.650   4.126  15.514  0.00  0.00    +0.000 A 
ATOM      5  C   UNL     1       7.176   5.376  15.865  0.00  0.00    +0.000 A 
ATOM      6  C   UNL     1       6.412   6.337  16.545  0.00  0.00    +0.000 A 
ENDROOT
BRANCH   1   9
ATOM      7  O   UNL     1       3.314   5.584  19.164  0.00  0.00    +0.000 OA
ATOM      8  C   UNL     1       3.360   6.637  18.536  0.00  0.00    +0.000 C 
ATOM      9  N   UNL     1       4.267   6.925  17.534  0.00  0.00    +0.000 N 
ATOM     10  H   UNL     1       4.310   7.844  17.126  0.00  0.00    +0.000 HD
BRANCH   8  11
ATOM     11  C   UNL     1       2.380   7.709  18.861  0.00  0.00    +0.000 A 
ATOM     12  C   UNL     1       1.858   7.902  20.148  0.00  0.00    +0.000 A 
ATOM     13  C   UNL     1       0.991   8.965  20.396  0.00  0.00    +0.000 A 
ATOM     14  C   UNL     1       0.628   9.826  19.362  0.00  0.00    +0.000 A 
ATOM     15  C   UNL     1       1.118   9.626  18.074  0.00  0.00    +0.000 A 
ATOM     16  C   UNL     1       1.993   8.569  17.824  0.00  0.00    +0.000 A 
ENDBRANCH   8  11
ENDBRANCH   1   9
BRANCH   6  17
ATOM     17  N   UNL     1       6.932   7.627  16.910  0.00  0.00    +0.000 N 
ATOM     18  C   UNL     1       7.820   7.860  17.956  0.00  0.00    +0.000 C 
ATOM     19  O   UNL     1       8.300   6.978  18.663  0.00  0.00    +0.000 OA
ATOM     20  H   UNL     1       6.626   8.429  16.370  0.00  0.00    +0.000 HD
BRANCH  18  21
ATOM     21  C   UNL     1       8.255   9.261  18.255  0.00  0.00    +0.000 A 
ATOM     22  C   UNL     1       9.237   9.399  19.229  0.00  0.00    +0.000 A 
ATOM     23  N   UNL     1       9.743  10.594  19.608  0.00  0.00    +0.000 NA
ATOM     24  C   UNL     1       9.295  11.666  18.944  0.00  0.00    +0.000 A 
ATOM     25  C   UNL     1       9.835  12.898  19.289  0.00  0.00    +0.000 A 
ATOM     26  C   UNL     1       9.501  14.049  18.590  0.00  0.00    +0.000 A 
ATOM     27  C   UNL     1       8.601  13.958  17.539  0.00  0.00    +0.000 A 
ATOM     28  C   UNL     1       8.011  12.722  17.221  0.00  0.00    +0.000 A 
ATOM     29  C   UNL     1       8.328  11.546  17.905  0.00  0.00    +0.000 A 
ATOM     30  N   UNL     1       7.769  10.335  17.572  0.00  0.00    +0.000 NA
ENDBRANCH  18  21
ENDBRANCH   6  17
TORSDOF 4
ENDMDL
MODEL 7
REMARK VINA RESULT:      -8.2      1.985      7.619
REMARK  Name = 
REMARK  4 active torsions:
REMARK  status: ('A' for Active; 'I' for Inactive)
REMARK    1  A    between atoms: C_2  and  C_23
REMARK    2  A    between atoms: N_3  and  C_4
REMARK    3  A    between atoms: C_9  and  N_10
REMARK    4  A    between atoms: C_11  and  C_13
REMARK                            x       y       z     vdW  Elec       q    Type
REMARK                         _______ _______ _______ _____ _____    ______ ____
ROOT
ATOM      1  C   UNL     1       5.078   4.547  16.989  0.00  0.00    +0.000 A 
ATOM      2  C   UNL     1       5.793   3.670  16.151  0.00  0.00    +0.000 A 
ATOM      3  C   UNL     1       6.304   4.104  14.933  0.00  0.00    +0.000 A 
ATOM      4  C   UNL     1       6.138   5.431  14.565  0.00  0.00    +0.000 A 
ATOM      5  C   UNL     1       5.438   6.312  15.400  0.00  0.00    +0.000 A 
ATOM      6  C   UNL     1       4.866   5.889  16.611  0.00  0.00    +0.000 A 
ENDROOT
BRANCH   1   9
ATOM      7  O   UNL     1       3.155   2.392  17.203  0.00  0.00    +0.000 OA
ATOM      8  C   UNL     1       3.470   3.088  18.163  0.00  0.00    +0.000 C 
ATOM      9  N   UNL     1       4.461   4.051  18.154  0.00  0.00    +0.000 N 
ATOM     10  H   UNL     1       4.734   4.519  19.003  0.00  0.00    +0.000 HD
BRANCH   8  11
ATOM     11  C   UNL     1       2.753   2.897  19.453  0.00  0.00    +0.000 A 
ATOM     12  C   UNL     1       3.401   2.524  20.640  0.00  0.00    +0.000 A 
ATOM     13  C   UNL     1       2.677   2.424  21.827  0.00  0.00    +0.000 A 
ATOM     14  C   UNL     1       1.306   2.677  21.833  0.00  0.00    +0.000 A 
ATOM     15  C   UNL     1       0.648   3.020  20.654  0.00  0.00    +0.000 A 
ATOM     16  C   UNL     1       1.371   3.130  19.467  0.00  0.00    +0.000 A 
ENDBRANCH   8  11
ENDBRANCH   1   9
BRANCH   6  17
ATOM     17  N   UNL     1       4.139   6.776  17.478  0.00  0.00    +0.000 N 
ATOM     18  C   UNL     1       2.791   6.649  17.795  0.00  0.00    +0.000 C 
ATOM     19  O   UNL     1       2.073   5.733  17.404  0.00  0.00    +0.000 OA
ATOM     20  H   UNL     1       4.643   7.556  17.886  0.00  0.00    +0.000 HD
BRANCH  18  21
ATOM     21  C   UNL     1       2.143   7.667  18.683  0.00  0.00    +0.000 A 
ATOM     22  C   UNL     1       2.045   7.329  20.027  0.00  0.00    +0.000 A 
ATOM     23  N   UNL     1       1.496   8.140  20.958  0.00  0.00    +0.000 NA
ATOM     24  C   UNL     1       1.096   9.345  20.534  0.00  0.00    +0.000 A 
ATOM     25  C   UNL     1       0.569  10.210  21.484  0.00  0.00    +0.000 A 
ATOM     26  C   UNL     1       0.217  11.511  21.154  0.00  0.00    +0.000 A 
ATOM     27  C   UNL     1       0.387  11.940  19.846  0.00  0.00    +0.000 A 
ATOM     28  C   UNL     1       0.870  11.051  18.870  0.00  0.00    +0.000 A 
ATOM     29  C   UNL     1       1.234   9.737  19.171  0.00  0.00    +0.000 A 
ATOM     30  N   UNL     1       1.731   8.880  18.218  0.00  0.00    +0.000 NA
ENDBRANCH  18  21
ENDBRANCH   6  17
TORSDOF 4
ENDMDL
MODEL 8
REMARK VINA RESULT:      -8.1      3.350      5.473
REMARK  Name = 
REMARK  4 active torsions:
REMARK  status: ('A' for Active; 'I' for Inactive)
REMARK    1  A    between atoms: C_2  and  C_23
REMARK    2  A    between atoms: N_3  and  C_4
REMARK    3  A    between atoms: C_9  and  N_10
REMARK    4  A    between atoms: C_11  and  C_13
REMARK                            x       y       z     vdW  Elec       q    Type
REMARK                         _______ _______ _______ _____ _____    ______ ____
ROOT
ATOM      1  C   UNL     1      -0.386   9.883  20.849  0.00  0.00    +0.000 A 
ATOM      2  C   UNL     1      -1.149  10.434  21.896  0.00  0.00    +0.000 A 
ATOM      3  C   UNL     1      -0.771  10.260  23.223  0.00  0.00    +0.000 A 
ATOM      4  C   UNL     1       0.398   9.569  23.507  0.00  0.00    +0.000 A 
ATOM      5  C   UNL     1       1.167   9.028  22.469  0.00  0.00    +0.000 A 
ATOM      6  C   UNL     1       0.783   9.144  21.123  0.00  0.00    +0.000 A 
ENDROOT
BRANCH   1   9
ATOM      7  O   UNL     1      -1.840  12.061  19.609  0.00  0.00    +0.000 OA
ATOM      8  C   UNL     1      -1.640  10.994  19.036  0.00  0.00    +0.000 C 
ATOM      9  N   UNL     1      -0.860   9.964  19.524  0.00  0.00    +0.000 N 
ATOM     10  H   UNL     1      -0.661   9.154  18.960  0.00  0.00    +0.000 HD
BRANCH   8  11
ATOM     11  C   UNL     1      -2.269  10.766  17.706  0.00  0.00    +0.000 A 
ATOM     12  C   UNL     1      -1.777   9.839  16.777  0.00  0.00    +0.000 A 
ATOM     13  C   UNL     1      -2.451   9.631  15.575  0.00  0.00    +0.000 A 
ATOM     14  C   UNL     1      -3.605  10.359  15.288  0.00  0.00    +0.000 A 
ATOM     15  C   UNL     1      -4.086  11.302  16.191  0.00  0.00    +0.000 A 
ATOM     16  C   UNL     1      -3.419  11.506  17.398  0.00  0.00    +0.000 A 
ENDBRANCH   8  11
ENDBRANCH   1   9
BRANCH   6  17
ATOM     17  N   UNL     1       1.556   8.591  20.044  0.00  0.00    +0.000 N 
ATOM     18  C   UNL     1       1.935   7.257  19.940  0.00  0.00    +0.000 C 
ATOM     19  O   UNL     1       1.612   6.383  20.740  0.00  0.00    +0.000 OA
ATOM     20  H   UNL     1       1.852   9.220  19.306  0.00  0.00    +0.000 HD
BRANCH  18  21
ATOM     21  C   UNL     1       2.776   6.818  18.782  0.00  0.00    +0.000 A 
ATOM     22  C   UNL     1       3.259   7.829  17.961  0.00  0.00    +0.000 A 
ATOM     23  N   UNL     1       4.039   7.600  16.880  0.00  0.00    +0.000 NA
ATOM     24  C   UNL     1       4.390   6.328  16.662  0.00  0.00    +0.000 A 
ATOM     25  C   UNL     1       5.226   6.077  15.582  0.00  0.00    +0.000 A 
ATOM     26  C   UNL     1       5.719   4.803  15.336  0.00  0.00    +0.000 A 
ATOM     27  C   UNL     1       5.352   3.767  16.182  0.00  0.00    +0.000 A 
ATOM     28  C   UNL     1       4.462   4.007  17.244  0.00  0.00    +0.000 A 
ATOM     29  C   UNL     1       3.952   5.277  17.518  0.00  0.00    +0.000 A 
ATOM     30  N   UNL     1       3.104   5.511  18.575  0.00  0.00    +0.000 NA
ENDBRANCH  18  21
ENDBRANCH   6  17
TORSDOF 4
ENDMDL
MODEL 9
REMARK VINA RESULT:      -8.1      2.777      6.893
REMARK  Name = 
REMARK  4 active torsions:
REMARK  status: ('A' for Active; 'I' for Inactive)
REMARK    1  A    between atoms: C_2  and  C_23
REMARK    2  A    between atoms: N_3  and  C_4
REMARK    3  A    between atoms: C_9  and  N_10
REMARK    4  A    between atoms: C_11  and  C_13
REMARK                            x       y       z     vdW  Elec       q    Type
REMARK                         _______ _______ _______ _____ _____    ______ ____
ROOT
ATOM      1  C   UNL     1       3.240   3.796  18.111  0.00  0.00    +0.000 A 
ATOM      2  C   UNL     1       3.431   2.411  17.948  0.00  0.00    +0.000 A 
ATOM      3  C   UNL     1       2.457   1.504  18.350  0.00  0.00    +0.000 A 
ATOM      4  C   UNL     1       1.267   1.981  18.880  0.00  0.00    +0.000 A 
ATOM      5  C   UNL     1       1.065   3.359  19.033  0.00  0.00    +0.000 A 
ATOM      6  C   UNL     1       2.052   4.296  18.684  0.00  0.00    +0.000 A 
ENDROOT
BRANCH   1   9
ATOM      7  O   UNL     1       5.862   3.919  19.335  0.00  0.00    +0.000 OA
ATOM      8  C   UNL     1       5.479   4.751  18.518  0.00  0.00    +0.000 C 
ATOM      9  N   UNL     1       4.292   4.686  17.815  0.00  0.00    +0.000 N 
ATOM     10  H   UNL     1       4.084   5.353  17.090  0.00  0.00    +0.000 HD
BRANCH   8  11
ATOM     11  C   UNL     1       6.344   5.929  18.237  0.00  0.00    +0.000 A 
ATOM     12  C   UNL     1       5.994   6.932  17.322  0.00  0.00    +0.000 A 
ATOM     13  C   UNL     1       6.822   8.041  17.153  0.00  0.00    +0.000 A 
ATOM     14  C   UNL     1       8.007   8.145  17.880  0.00  0.00    +0.000 A 
ATOM     15  C   UNL     1       8.377   7.141  18.771  0.00  0.00    +0.000 A 
ATOM     16  C   UNL     1       7.547   6.035  18.949  0.00  0.00    +0.000 A 
ENDBRANCH   8  11
ENDBRANCH   1   9
BRANCH   6  17
ATOM     17  N   UNL     1       1.866   5.713  18.839  0.00  0.00    +0.000 N 
ATOM     18  C   UNL     1       1.876   6.387  20.056  0.00  0.00    +0.000 C 
ATOM     19  O   UNL     1       2.091   5.852  21.140  0.00  0.00    +0.000 OA
ATOM     20  H   UNL     1       1.711   6.263  18.002  0.00  0.00    +0.000 HD
BRANCH  18  21
ATOM     21  C   UNL     1       1.631   7.864  20.082  0.00  0.00    +0.000 A 
ATOM     22  C   UNL     1       1.242   8.396  21.306  0.00  0.00    +0.000 A 
ATOM     23  N   UNL     1       0.992   9.710  21.498  0.00  0.00    +0.000 NA
ATOM     24  C   UNL     1       1.201  10.514  20.448  0.00  0.00    +0.000 A 
ATOM     25  C   UNL     1       0.991  11.873  20.637  0.00  0.00    +0.000 A 
ATOM     26  C   UNL     1       1.273  12.790  19.634  0.00  0.00    +0.000 A 
ATOM     27  C   UNL     1       1.761  12.328  18.421  0.00  0.00    +0.000 A 
ATOM     28  C   UNL     1       1.924  10.948  18.207  0.00  0.00    +0.000 A 
ATOM     29  C   UNL     1       1.650  10.001  19.197  0.00  0.00    +0.000 A 
ATOM     30  N   UNL     1       1.837   8.655  18.992  0.00  0.00    +0.000 NA
ENDBRANCH  18  21
ENDBRANCH   6  17
TORSDOF 4
ENDMDL
