MODEL 1
REMARK VINA RESULT:      -8.0      0.000      0.000
REMARK  Name = 
REMARK  9 active torsions:
REMARK  status: ('A' for Active; 'I' for Inactive)
REMARK    1  A    between atoms: C_1  and  C_2
REMARK    2  A    between atoms: N_4  and  C_5
REMARK    3  A    between atoms: C_7  and  O_8
REMARK    4  A    between atoms: C_9  and  C_10
REMARK    5  A    between atoms: C_10  and  C_11
REMARK    6  A    between atoms: C_11  and  C_12
REMARK    7  A    between atoms: N_14  and  C_15
REMARK    8  A    between atoms: C_15  and  C_16
REMARK    9  A    between atoms: C_16  and  N_17
REMARK                            x       y       z     vdW  Elec       q    Type
REMARK                         _______ _______ _______ _____ _____    ______ ____
ROOT
ATOM      1  C   UNL     1       3.376   5.520  18.455  0.00  0.00    +0.000 C 
ATOM      2  C   UNL     1       4.138   5.892  17.187  0.00  0.00    +0.000 C 
ATOM      3  C   UNL     1       5.261   4.882  17.174  0.00  0.00    +0.000 C 
ATOM      4  C   UNL     1       5.547   4.644  18.658  0.00  0.00    +0.000 C 
ATOM      5  O   UNL     1       4.324   4.931  19.365  0.00  0.00    +0.000 OA
ENDROOT
BRANCH   1   9
ATOM      6  C   UNL     1       1.539  10.108  18.116  0.00  0.00    +0.000 C 
ATOM      7  C   UNL     1       1.800   8.851  18.870  0.00  0.00    +0.000 A 
ATOM      8  C   UNL     1       2.564   7.854  18.423  0.00  0.00    +0.000 A 
ATOM      9  N   UNL     1       2.699   6.648  19.080  0.00  0.00    +0.000 N 
ATOM     10  C   UNL     1       2.076   6.427  20.305  0.00  0.00    +0.000 A 
ATOM     11  O   UNL     1       2.069   5.345  20.888  0.00  0.00    +0.000 OA
ATOM     12  N   UNL     1       1.428   7.509  20.841  0.00  0.00    +0.000 N 
ATOM     13  C   UNL     1       1.125   8.661  20.180  0.00  0.00    +0.000 A 
ATOM     14  O   UNL     1       0.338   9.484  20.625  0.00  0.00    +0.000 OA
ATOM     15  H   UNL     1       0.952   7.361  21.717  0.00  0.00    +0.000 HD
ENDBRANCH   1   9
BRANCH   3  16
ATOM     16  O   UNL     1       4.822   3.679  16.538  0.00  0.00    +0.000 OA
ATOM     17  H   UNL     1       5.597   3.166  16.249  0.00  0.00    +0.000 HD
ENDBRANCH   3  16
BRANCH   4  18
ATOM     18  C   UNL     1       6.651   5.552  19.200  0.00  0.00    +0.000 C 
BRANCH  18  19
ATOM     19  C   UNL     1       7.700   5.895  18.134  0.00  0.00    +0.000 C 
BRANCH  19  20
ATOM     20  C   UNL     1       7.706   7.381  17.856  0.00  0.00    +0.000 C 
ATOM     21  O   UNL     1       7.002   7.903  16.997  0.00  0.00    +0.000 OA
ATOM     22  N   UNL     1       8.555   8.107  18.663  0.00  0.00    +0.000 N 
ATOM     23  H   UNL     1       9.266   7.641  19.218  0.00  0.00    +0.000 HD
BRANCH  22  24
ATOM     24  C   UNL     1       8.685   9.532  18.431  0.00  0.00    +0.000 C 
BRANCH  24  25
ATOM     25  C   UNL     1       9.264  10.323  19.620  0.00  0.00    +0.000 C 
BRANCH  25  26
ATOM     26  N   UNL     1      10.002  11.542  19.218  0.00  0.00    +0.000 NA
ATOM     27  C   UNL     1      11.441  11.394  19.506  0.00  0.00    +0.000 C 
ATOM     28  C   UNL     1      12.214  12.660  19.154  0.00  0.00    +0.000 C 
ATOM     29  C   UNL     1      12.015  13.036  17.694  0.00  0.00    +0.000 C 
ATOM     30  C   UNL     1      10.529  13.100  17.362  0.00  0.00    +0.000 C 
ATOM     31  C   UNL     1       9.803  11.818  17.781  0.00  0.00    +0.000 C 
ENDBRANCH  25  26
ENDBRANCH  24  25
ENDBRANCH  22  24
ENDBRANCH  19  20
ENDBRANCH  18  19
ENDBRANCH   4  18
TORSDOF 8
ENDMDL
MODEL 2
REMARK VINA RESULT:      -8.0      1.178      1.257
REMARK  Name = 
REMARK  9 active torsions:
REMARK  status: ('A' for Active; 'I' for Inactive)
REMARK    1  A    between atoms: C_1  and  C_2
REMARK    2  A    between atoms: N_4  and  C_5
REMARK    3  A    between atoms: C_7  and  O_8
REMARK    4  A    between atoms: C_9  and  C_10
REMARK    5  A    between atoms: C_10  and  C_11
REMARK    6  A    between atoms: C_11  and  C_12
REMARK    7  A    between atoms: N_14  and  C_15
REMARK    8  A    between atoms: C_15  and  C_16
REMARK    9  A    between atoms: C_16  and  N_17
REMARK                            x       y       z     vdW  Elec       q    Type
REMARK                         _______ _______ _______ _____ _____    ______ ____
ROOT
ATOM      1  C   UNL     1       3.571   4.667  18.983  0.00  0.00    +0.000 C 
ATOM      2  C   UNL     1       3.327   4.309  17.520  0.00  0.00    +0.000 C 
ATOM      3  C   UNL     1       4.551   3.495  17.174  0.00  0.00    +0.000 C 
ATOM      4  C   UNL     1       5.650   4.118  18.037  0.00  0.00    +0.000 C 
ATOM      5  O   UNL     1       4.997   4.704  19.180  0.00  0.00    +0.000 OA
ENDROOT
BRANCH   1   9
ATOM      6  C   UNL     1       2.070   9.237  17.800  0.00  0.00    +0.000 C 
ATOM      7  C   UNL     1       2.228   8.117  18.768  0.00  0.00    +0.000 A 
ATOM      8  C   UNL     1       2.927   7.008  18.523  0.00  0.00    +0.000 A 
ATOM      9  N   UNL     1       2.966   5.929  19.383  0.00  0.00    +0.000 N 
ATOM     10  C   UNL     1       2.309   5.969  20.609  0.00  0.00    +0.000 A 
ATOM     11  O   UNL     1       2.216   5.009  21.371  0.00  0.00    +0.000 OA
ATOM     12  N   UNL     1       1.731   7.168  20.931  0.00  0.00    +0.000 N 
ATOM     13  C   UNL     1       1.521   8.205  20.072  0.00  0.00    +0.000 A 
ATOM     14  O   UNL     1       0.787   9.144  20.345  0.00  0.00    +0.000 OA
ATOM     15  H   UNL     1       1.232   7.208  21.806  0.00  0.00    +0.000 HD
ENDBRANCH   1   9
BRANCH   3  16
ATOM     16  O   UNL     1       4.336   2.126  17.527  0.00  0.00    +0.000 OA
ATOM     17  H   UNL     1       3.498   2.048  18.017  0.00  0.00    +0.000 HD
ENDBRANCH   3  16
BRANCH   4  18
ATOM     18  C   UNL     1       6.430   5.210  17.304  0.00  0.00    +0.000 C 
BRANCH  18  19
ATOM     19  C   UNL     1       7.471   5.889  18.205  0.00  0.00    +0.000 C 
BRANCH  19  20
ATOM     20  C   UNL     1       7.623   7.346  17.833  0.00  0.00    +0.000 C 
ATOM     21  O   UNL     1       7.088   7.843  16.846  0.00  0.00    +0.000 OA
ATOM     22  N   UNL     1       8.395   8.078  18.707  0.00  0.00    +0.000 N 
ATOM     23  H   UNL     1       8.984   7.614  19.391  0.00  0.00    +0.000 HD
BRANCH  22  24
ATOM     24  C   UNL     1       8.659   9.471  18.402  0.00  0.00    +0.000 C 
BRANCH  24  25
ATOM     25  C   UNL     1       9.542  10.195  19.437  0.00  0.00    +0.000 C 
BRANCH  25  26
ATOM     26  N   UNL     1       9.368  11.665  19.440  0.00  0.00    +0.000 NA
ATOM     27  C   UNL     1      10.040  12.265  20.608  0.00  0.00    +0.000 C 
ATOM     28  C   UNL     1       9.825  13.773  20.663  0.00  0.00    +0.000 C 
ATOM     29  C   UNL     1      10.310  14.443  19.388  0.00  0.00    +0.000 C 
ATOM     30  C   UNL     1       9.692  13.770  18.168  0.00  0.00    +0.000 C 
ATOM     31  C   UNL     1       9.903  12.253  18.195  0.00  0.00    +0.000 C 
ENDBRANCH  25  26
ENDBRANCH  24  25
ENDBRANCH  22  24
ENDBRANCH  19  20
ENDBRANCH  18  19
ENDBRANCH   4  18
TORSDOF 8
ENDMDL
MODEL 3
REMARK VINA RESULT:      -7.8      1.190      1.421
REMARK  Name = 
REMARK  9 active torsions:
REMARK  status: ('A' for Active; 'I' for Inactive)
REMARK    1  A    between atoms: C_1  and  C_2
REMARK    2  A    between atoms: N_4  and  C_5
REMARK    3  A    between atoms: C_7  and  O_8
REMARK    4  A    between atoms: C_9  and  C_10
REMARK    5  A    between atoms: C_10  and  C_11
REMARK    6  A    between atoms: C_11  and  C_12
REMARK    7  A    between atoms: N_14  and  C_15
REMARK    8  A    between atoms: C_15  and  C_16
REMARK    9  A    between atoms: C_16  and  N_17
REMARK                            x       y       z     vdW  Elec       q    Type
REMARK                         _______ _______ _______ _____ _____    ______ ____
ROOT
ATOM      1  C   UNL     1       3.593   4.705  18.884  0.00  0.00    +0.000 C 
ATOM      2  C   UNL     1       3.209   4.261  17.476  0.00  0.00    +0.000 C 
ATOM      3  C   UNL     1       4.427   3.483  17.036  0.00  0.00    +0.000 C 
ATOM      4  C   UNL     1       5.582   4.196  17.741  0.00  0.00    +0.000 C 
ATOM      5  O   UNL     1       5.028   4.813  18.920  0.00  0.00    +0.000 OA
ENDROOT
BRANCH   1   9
ATOM      6  C   UNL     1       2.025   9.255  17.712  0.00  0.00    +0.000 C 
ATOM      7  C   UNL     1       2.205   8.137  18.679  0.00  0.00    +0.000 A 
ATOM      8  C   UNL     1       2.916   7.037  18.429  0.00  0.00    +0.000 A 
ATOM      9  N   UNL     1       2.975   5.959  19.288  0.00  0.00    +0.000 N 
ATOM     10  C   UNL     1       2.326   5.991  20.519  0.00  0.00    +0.000 A 
ATOM     11  O   UNL     1       2.250   5.029  21.281  0.00  0.00    +0.000 OA
ATOM     12  N   UNL     1       1.735   7.183  20.845  0.00  0.00    +0.000 N 
ATOM     13  C   UNL     1       1.506   8.216  19.987  0.00  0.00    +0.000 A 
ATOM     14  O   UNL     1       0.762   9.146  20.265  0.00  0.00    +0.000 OA
ATOM     15  H   UNL     1       1.241   7.216  21.723  0.00  0.00    +0.000 HD
ENDBRANCH   1   9
BRANCH   3  16
ATOM     16  O   UNL     1       4.318   2.127  17.475  0.00  0.00    +0.000 OA
ATOM     17  H   UNL     1       5.174   1.679  17.353  0.00  0.00    +0.000 HD
ENDBRANCH   3  16
BRANCH   4  18
ATOM     18  C   UNL     1       6.224   5.281  16.876  0.00  0.00    +0.000 C 
BRANCH  18  19
ATOM     19  C   UNL     1       5.946   6.693  17.409  0.00  0.00    +0.000 C 
BRANCH  19  20
ATOM     20  C   UNL     1       7.228   7.347  17.871  0.00  0.00    +0.000 C 
ATOM     21  O   UNL     1       8.080   6.755  18.528  0.00  0.00    +0.000 OA
ATOM     22  N   UNL     1       7.372   8.658  17.477  0.00  0.00    +0.000 N 
ATOM     23  H   UNL     1       6.580   9.180  17.116  0.00  0.00    +0.000 HD
BRANCH  22  24
ATOM     24  C   UNL     1       8.536   9.396  17.928  0.00  0.00    +0.000 C 
BRANCH  24  25
ATOM     25  C   UNL     1       8.295  10.903  18.139  0.00  0.00    +0.000 C 
BRANCH  25  26
ATOM     26  N   UNL     1       9.485  11.630  18.636  0.00  0.00    +0.000 NA
ATOM     27  C   UNL     1       9.799  11.224  20.019  0.00  0.00    +0.000 C 
ATOM     28  C   UNL     1      10.988  12.002  20.573  0.00  0.00    +0.000 C 
ATOM     29  C   UNL     1      12.215  11.829  19.693  0.00  0.00    +0.000 C 
ATOM     30  C   UNL     1      11.877  12.157  18.244  0.00  0.00    +0.000 C 
ATOM     31  C   UNL     1      10.648  11.378  17.762  0.00  0.00    +0.000 C 
ENDBRANCH  25  26
ENDBRANCH  24  25
ENDBRANCH  22  24
ENDBRANCH  19  20
ENDBRANCH  18  19
ENDBRANCH   4  18
TORSDOF 8
ENDMDL
MODEL 4
REMARK VINA RESULT:      -7.8      1.686      2.156
REMARK  Name = 
REMARK  9 active torsions:
REMARK  status: ('A' for Active; 'I' for Inactive)
REMARK    1  A    between atoms: C_1  and  C_2
REMARK    2  A    between atoms: N_4  and  C_5
REMARK    3  A    between atoms: C_7  and  O_8
REMARK    4  A    between atoms: C_9  and  C_10
REMARK    5  A    between atoms: C_10  and  C_11
REMARK    6  A    between atoms: C_11  and  C_12
REMARK    7  A    between atoms: N_14  and  C_15
REMARK    8  A    between atoms: C_15  and  C_16
REMARK    9  A    between atoms: C_16  and  N_17
REMARK                            x       y       z     vdW  Elec       q    Type
REMARK                         _______ _______ _______ _____ _____    ______ ____
ROOT
ATOM      1  C   UNL     1       4.674   4.375  17.918  0.00  0.00    +0.000 C 
ATOM      2  C   UNL     1       4.538   4.610  16.417  0.00  0.00    +0.000 C 
ATOM      3  C   UNL     1       5.896   4.201  15.898  0.00  0.00    +0.000 C 
ATOM      4  C   UNL     1       6.844   4.577  17.039  0.00  0.00    +0.000 C 
ATOM      5  O   UNL     1       6.065   4.543  18.251  0.00  0.00    +0.000 OA
ENDROOT
BRANCH   1   9
ATOM      6  C   UNL     1       2.046   8.554  18.325  0.00  0.00    +0.000 C 
ATOM      7  C   UNL     1       2.563   7.270  18.874  0.00  0.00    +0.000 A 
ATOM      8  C   UNL     1       3.465   6.503  18.261  0.00  0.00    +0.000 A 
ATOM      9  N   UNL     1       3.845   5.260  18.724  0.00  0.00    +0.000 N 
ATOM     10  C   UNL     1       3.337   4.756  19.918  0.00  0.00    +0.000 A 
ATOM     11  O   UNL     1       3.551   3.618  20.331  0.00  0.00    +0.000 OA
ATOM     12  N   UNL     1       2.539   5.613  20.629  0.00  0.00    +0.000 N 
ATOM     13  C   UNL     1       2.004   6.774  20.158  0.00  0.00    +0.000 A 
ATOM     14  O   UNL     1       1.109   7.368  20.743  0.00  0.00    +0.000 OA
ATOM     15  H   UNL     1       2.144   5.257  21.485  0.00  0.00    +0.000 HD
ENDBRANCH   1   9
BRANCH   3  16
ATOM     16  O   UNL     1       5.917   2.791  15.658  0.00  0.00    +0.000 OA
ATOM     17  H   UNL     1       6.412   2.351  16.372  0.00  0.00    +0.000 HD
ENDBRANCH   3  16
BRANCH   4  18
ATOM     18  C   UNL     1       7.438   5.976  16.877  0.00  0.00    +0.000 C 
BRANCH  18  19
ATOM     19  C   UNL     1       7.743   6.641  18.226  0.00  0.00    +0.000 C 
BRANCH  19  20
ATOM     20  C   UNL     1       7.954   8.127  18.049  0.00  0.00    +0.000 C 
ATOM     21  O   UNL     1       7.380   8.784  17.185  0.00  0.00    +0.000 OA
ATOM     22  N   UNL     1       8.829   8.689  18.951  0.00  0.00    +0.000 N 
ATOM     23  H   UNL     1       9.437   8.104  19.515  0.00  0.00    +0.000 HD
BRANCH  22  24
ATOM     24  C   UNL     1       9.152  10.096  18.822  0.00  0.00    +0.000 C 
BRANCH  24  25
ATOM     25  C   UNL     1       9.342  10.833  20.162  0.00  0.00    +0.000 C 
BRANCH  25  26
ATOM     26  N   UNL     1       9.870  12.208  20.012  0.00  0.00    +0.000 NA
ATOM     27  C   UNL     1       9.083  12.960  19.017  0.00  0.00    +0.000 C 
ATOM     28  C   UNL     1       9.644  14.362  18.804  0.00  0.00    +0.000 C 
ATOM     29  C   UNL     1       9.699  15.136  20.110  0.00  0.00    +0.000 C 
ATOM     30  C   UNL     1      10.432  14.327  21.174  0.00  0.00    +0.000 C 
ATOM     31  C   UNL     1       9.850  12.916  21.308  0.00  0.00    +0.000 C 
ENDBRANCH  25  26
ENDBRANCH  24  25
ENDBRANCH  22  24
ENDBRANCH  19  20
ENDBRANCH  18  19
ENDBRANCH   4  18
TORSDOF 8
ENDMDL
MODEL 5
REMARK VINA RESULT:      -7.7      2.303      3.208
REMARK  Name = 
REMARK  9 active torsions:
REMARK  status: ('A' for Active; 'I' for Inactive)
REMARK    1  A    between atoms: C_1  and  C_2
REMARK    2  A    between atoms: N_4  and  C_5
REMARK    3  A    between atoms: C_7  and  O_8
REMARK    4  A    between atoms: C_9  and  C_10
REMARK    5  A    between atoms: C_10  and  C_11
REMARK    6  A    between atoms: C_11  and  C_12
REMARK    7  A    between atoms: N_14  and  C_15
REMARK    8  A    between atoms: C_15  and  C_16
REMARK    9  A    between atoms: C_16  and  N_17
REMARK                            x       y       z     vdW  Elec       q    Type
REMARK                         _______ _______ _______ _____ _____    ______ ____
ROOT
ATOM      1  C   UNL     1       5.760   4.177  18.120  0.00  0.00    +0.000 C 
ATOM      2  C   UNL     1       5.577   5.073  16.899  0.00  0.00    +0.000 C 
ATOM      3  C   UNL     1       7.000   5.422  16.534  0.00  0.00    +0.000 C 
ATOM      4  C   UNL     1       7.719   5.453  17.884  0.00  0.00    +0.000 C 
ATOM      5  O   UNL     1       6.984   4.580  18.764  0.00  0.00    +0.000 OA
ENDROOT
BRANCH   1   9
ATOM      6  C   UNL     1       1.955   6.678  20.071  0.00  0.00    +0.000 C 
ATOM      7  C   UNL     1       2.803   5.459  19.953  0.00  0.00    +0.000 A 
ATOM      8  C   UNL     1       3.936   5.400  19.253  0.00  0.00    +0.000 A 
ATOM      9  N   UNL     1       4.646   4.234  19.057  0.00  0.00    +0.000 N 
ATOM     10  C   UNL     1       4.238   3.040  19.644  0.00  0.00    +0.000 A 
ATOM     11  O   UNL     1       4.762   1.950  19.424  0.00  0.00    +0.000 OA
ATOM     12  N   UNL     1       3.169   3.136  20.496  0.00  0.00    +0.000 N 
ATOM     13  C   UNL     1       2.336   4.209  20.607  0.00  0.00    +0.000 A 
ATOM     14  O   UNL     1       1.265   4.150  21.194  0.00  0.00    +0.000 OA
ATOM     15  H   UNL     1       2.845   2.278  20.913  0.00  0.00    +0.000 HD
ENDBRANCH   1   9
BRANCH   3  16
ATOM     16  O   UNL     1       7.545   4.407  15.687  0.00  0.00    +0.000 OA
ATOM     17  H   UNL     1       7.653   4.763  14.787  0.00  0.00    +0.000 HD
ENDBRANCH   3  16
BRANCH   4  18
ATOM     18  C   UNL     1       7.757   6.852  18.502  0.00  0.00    +0.000 C 
BRANCH  18  19
ATOM     19  C   UNL     1       7.853   7.956  17.440  0.00  0.00    +0.000 C 
BRANCH  19  20
ATOM     20  C   UNL     1       8.197   9.280  18.084  0.00  0.00    +0.000 C 
ATOM     21  O   UNL     1       7.747  10.352  17.688  0.00  0.00    +0.000 OA
ATOM     22  N   UNL     1       9.043   9.184  19.167  0.00  0.00    +0.000 N 
ATOM     23  H   UNL     1       9.555   8.327  19.348  0.00  0.00    +0.000 HD
BRANCH  22  24
ATOM     24  C   UNL     1       9.488  10.404  19.811  0.00  0.00    +0.000 C 
BRANCH  24  25
ATOM     25  C   UNL     1      10.544  11.196  19.016  0.00  0.00    +0.000 C 
BRANCH  25  26
ATOM     26  N   UNL     1      10.553  12.644  19.324  0.00  0.00    +0.000 NA
ATOM     27  C   UNL     1       9.483  13.338  18.581  0.00  0.00    +0.000 C 
ATOM     28  C   UNL     1       9.509  14.841  18.837  0.00  0.00    +0.000 C 
ATOM     29  C   UNL     1       9.388  15.146  20.321  0.00  0.00    +0.000 C 
ATOM     30  C   UNL     1      10.431  14.362  21.109  0.00  0.00    +0.000 C 
ATOM     31  C   UNL     1      10.383  12.868  20.774  0.00  0.00    +0.000 C 
ENDBRANCH  25  26
ENDBRANCH  24  25
ENDBRANCH  22  24
ENDBRANCH  19  20
ENDBRANCH  18  19
ENDBRANCH   4  18
TORSDOF 8
ENDMDL
MODEL 6
REMARK VINA RESULT:      -7.7      2.338      3.127
REMARK  Name = 
REMARK  9 active torsions:
REMARK  status: ('A' for Active; 'I' for Inactive)
REMARK    1  A    between atoms: C_1  and  C_2
REMARK    2  A    between atoms: N_4  and  C_5
REMARK    3  A    between atoms: C_7  and  O_8
REMARK    4  A    between atoms: C_9  and  C_10
REMARK    5  A    between atoms: C_10  and  C_11
REMARK    6  A    between atoms: C_11  and  C_12
REMARK    7  A    between atoms: N_14  and  C_15
REMARK    8  A    between atoms: C_15  and  C_16
REMARK    9  A    between atoms: C_16  and  N_17
REMARK                            x       y       z     vdW  Elec       q    Type
REMARK                         _______ _______ _______ _____ _____    ______ ____
ROOT
ATOM      1  C   UNL     1       5.419   4.206  17.494  0.00  0.00    +0.000 C 
ATOM      2  C   UNL     1       5.355   5.294  16.427  0.00  0.00    +0.000 C 
ATOM      3  C   UNL     1       6.814   5.614  16.199  0.00  0.00    +0.000 C 
ATOM      4  C   UNL     1       7.449   5.387  17.572  0.00  0.00    +0.000 C 
ATOM      5  O   UNL     1       6.619   4.428  18.258  0.00  0.00    +0.000 OA
ENDROOT
BRANCH   1   9
ATOM      6  C   UNL     1       2.078   6.640  20.223  0.00  0.00    +0.000 C 
ATOM      7  C   UNL     1       2.643   5.387  19.650  0.00  0.00    +0.000 A 
ATOM      8  C   UNL     1       3.802   5.320  18.994  0.00  0.00    +0.000 A 
ATOM      9  N   UNL     1       4.254   4.177  18.367  0.00  0.00    +0.000 N 
ATOM     10  C   UNL     1       3.533   2.989  18.440  0.00  0.00    +0.000 A 
ATOM     11  O   UNL     1       3.824   1.969  17.820  0.00  0.00    +0.000 OA
ATOM     12  N   UNL     1       2.429   3.016  19.252  0.00  0.00    +0.000 N 
ATOM     13  C   UNL     1       1.847   4.138  19.762  0.00  0.00    +0.000 A 
ATOM     14  O   UNL     1       0.734   4.126  20.269  0.00  0.00    +0.000 OA
ATOM     15  H   UNL     1       1.883   2.171  19.299  0.00  0.00    +0.000 HD
ENDBRANCH   1   9
BRANCH   3  16
ATOM     16  O   UNL     1       7.359   4.716  15.228  0.00  0.00    +0.000 OA
ATOM     17  H   UNL     1       8.122   5.137  14.794  0.00  0.00    +0.000 HD
ENDBRANCH   3  16
BRANCH   4  18
ATOM     18  C   UNL     1       7.517   6.664  18.410  0.00  0.00    +0.000 C 
BRANCH  18  19
ATOM     19  C   UNL     1       7.700   7.919  17.547  0.00  0.00    +0.000 C 
BRANCH  19  20
ATOM     20  C   UNL     1       8.475   8.975  18.303  0.00  0.00    +0.000 C 
ATOM     21  O   UNL     1       9.081   8.739  19.344  0.00  0.00    +0.000 OA
ATOM     22  N   UNL     1       8.460  10.221  17.717  0.00  0.00    +0.000 N 
ATOM     23  H   UNL     1       7.797  10.438  16.980  0.00  0.00    +0.000 HD
BRANCH  22  24
ATOM     24  C   UNL     1       9.116  11.318  18.401  0.00  0.00    +0.000 C 
BRANCH  24  25
ATOM     25  C   UNL     1      10.125  12.098  17.536  0.00  0.00    +0.000 C 
BRANCH  25  26
ATOM     26  N   UNL     1      10.446  13.442  18.067  0.00  0.00    +0.000 NA
ATOM     27  C   UNL     1      11.033  13.339  19.417  0.00  0.00    +0.000 C 
ATOM     28  C   UNL     1      11.319  14.714  20.008  0.00  0.00    +0.000 C 
ATOM     29  C   UNL     1      12.240  15.519  19.105  0.00  0.00    +0.000 C 
ATOM     30  C   UNL     1      11.690  15.554  17.684  0.00  0.00    +0.000 C 
ATOM     31  C   UNL     1      11.381  14.146  17.166  0.00  0.00    +0.000 C 
ENDBRANCH  25  26
ENDBRANCH  24  25
ENDBRANCH  22  24
ENDBRANCH  19  20
ENDBRANCH  18  19
ENDBRANCH   4  18
TORSDOF 8
ENDMDL
MODEL 7
REMARK VINA RESULT:      -7.7      4.258      8.566
REMARK  Name = 
REMARK  9 active torsions:
REMARK  status: ('A' for Active; 'I' for Inactive)
REMARK    1  A    between atoms: C_1  and  C_2
REMARK    2  A    between atoms: N_4  and  C_5
REMARK    3  A    between atoms: C_7  and  O_8
REMARK    4  A    between atoms: C_9  and  C_10
REMARK    5  A    between atoms: C_10  and  C_11
REMARK    6  A    between atoms: C_11  and  C_12
REMARK    7  A    between atoms: N_14  and  C_15
REMARK    8  A    between atoms: C_15  and  C_16
REMARK    9  A    between atoms: C_16  and  N_17
REMARK                            x       y       z     vdW  Elec       q    Type
REMARK                         _______ _______ _______ _____ _____    ______ ____
ROOT
ATOM      1  C   UNL     1       3.051   4.552  18.866  0.00  0.00    +0.000 C 
ATOM      2  C   UNL     1       3.015   4.460  20.388  0.00  0.00    +0.000 C 
ATOM      3  C   UNL     1       1.704   5.130  20.725  0.00  0.00    +0.000 C 
ATOM      4  C   UNL     1       1.553   6.192  19.633  0.00  0.00    +0.000 C 
ATOM      5  O   UNL     1       2.294   5.718  18.491  0.00  0.00    +0.000 OA
ENDROOT
BRANCH   1   9
ATOM      6  C   UNL     1       7.811   5.812  19.398  0.00  0.00    +0.000 C 
ATOM      7  C   UNL     1       6.691   5.213  18.621  0.00  0.00    +0.000 A 
ATOM      8  C   UNL     1       5.410   5.278  18.984  0.00  0.00    +0.000 A 
ATOM      9  N   UNL     1       4.398   4.618  18.317  0.00  0.00    +0.000 N 
ATOM     10  C   UNL     1       4.662   3.878  17.169  0.00  0.00    +0.000 A 
ATOM     11  O   UNL     1       3.829   3.182  16.591  0.00  0.00    +0.000 OA
ATOM     12  N   UNL     1       5.949   3.948  16.704  0.00  0.00    +0.000 N 
ATOM     13  C   UNL     1       7.016   4.443  17.393  0.00  0.00    +0.000 A 
ATOM     14  O   UNL     1       8.171   4.256  17.036  0.00  0.00    +0.000 OA
ATOM     15  H   UNL     1       6.164   3.400  15.886  0.00  0.00    +0.000 HD
ENDBRANCH   1   9
BRANCH   3  16
ATOM     16  O   UNL     1       0.642   4.175  20.659  0.00  0.00    +0.000 OA
ATOM     17  H   UNL     1       0.519   3.770  21.536  0.00  0.00    +0.000 HD
ENDBRANCH   3  16
BRANCH   4  18
ATOM     18  C   UNL     1       2.113   7.552  20.051  0.00  0.00    +0.000 C 
BRANCH  18  19
ATOM     19  C   UNL     1       1.445   8.093  21.322  0.00  0.00    +0.000 C 
BRANCH  19  20
ATOM     20  C   UNL     1       0.441   9.169  20.976  0.00  0.00    +0.000 C 
ATOM     21  O   UNL     1      -0.763   8.949  20.872  0.00  0.00    +0.000 OA
ATOM     22  N   UNL     1       0.985  10.422  20.807  0.00  0.00    +0.000 N 
ATOM     23  H   UNL     1       1.987  10.541  20.698  0.00  0.00    +0.000 HD
BRANCH  22  24
ATOM     24  C   UNL     1       0.114  11.510  20.405  0.00  0.00    +0.000 C 
BRANCH  24  25
ATOM     25  C   UNL     1       0.159  11.840  18.900  0.00  0.00    +0.000 C 
BRANCH  25  26
ATOM     26  N   UNL     1      -1.116  11.572  18.197  0.00  0.00    +0.000 NA
ATOM     27  C   UNL     1      -1.141  10.192  17.677  0.00  0.00    +0.000 C 
ATOM     28  C   UNL     1      -2.422   9.911  16.899  0.00  0.00    +0.000 C 
ATOM     29  C   UNL     1      -3.652  10.162  17.757  0.00  0.00    +0.000 C 
ATOM     30  C   UNL     1      -3.590  11.554  18.375  0.00  0.00    +0.000 C 
ATOM     31  C   UNL     1      -2.263  11.789  19.103  0.00  0.00    +0.000 C 
ENDBRANCH  25  26
ENDBRANCH  24  25
ENDBRANCH  22  24
ENDBRANCH  19  20
ENDBRANCH  18  19
ENDBRANCH   4  18
TORSDOF 8
ENDMDL
MODEL 8
REMARK VINA RESULT:      -7.7      2.167      3.087
REMARK  Name = 
REMARK  9 active torsions:
REMARK  status: ('A' for Active; 'I' for Inactive)
REMARK    1  A    between atoms: C_1  and  C_2
REMARK    2  A    between atoms: N_4  and  C_5
REMARK    3  A    between atoms: C_7  and  O_8
REMARK    4  A    between atoms: C_9  and  C_10
REMARK    5  A    between atoms: C_10  and  C_11
REMARK    6  A    between atoms: C_11  and  C_12
REMARK    7  A    between atoms: N_14  and  C_15
REMARK    8  A    between atoms: C_15  and  C_16
REMARK    9  A    between atoms: C_16  and  N_17
REMARK                            x       y       z     vdW  Elec       q    Type
REMARK                         _______ _______ _______ _____ _____    ______ ____
ROOT
ATOM      1  C   UNL     1       5.429   4.324  17.458  0.00  0.00    +0.000 C 
ATOM      2  C   UNL     1       5.191   5.048  16.137  0.00  0.00    +0.000 C 
ATOM      3  C   UNL     1       6.580   5.513  15.765  0.00  0.00    +0.000 C 
ATOM      4  C   UNL     1       7.243   5.778  17.118  0.00  0.00    +0.000 C 
ATOM      5  O   UNL     1       6.578   4.933  18.077  0.00  0.00    +0.000 OA
ENDROOT
BRANCH   1   9
ATOM      6  C   UNL     1       2.178   6.955  20.114  0.00  0.00    +0.000 C 
ATOM      7  C   UNL     1       2.716   5.664  19.602  0.00  0.00    +0.000 A 
ATOM      8  C   UNL     1       3.859   5.544  18.926  0.00  0.00    +0.000 A 
ATOM      9  N   UNL     1       4.284   4.361  18.357  0.00  0.00    +0.000 N 
ATOM     10  C   UNL     1       3.551   3.189  18.515  0.00  0.00    +0.000 A 
ATOM     11  O   UNL     1       3.816   2.130  17.949  0.00  0.00    +0.000 OA
ATOM     12  N   UNL     1       2.466   3.277  19.347  0.00  0.00    +0.000 N 
ATOM     13  C   UNL     1       1.908   4.433  19.804  0.00  0.00    +0.000 A 
ATOM     14  O   UNL     1       0.807   4.465  20.335  0.00  0.00    +0.000 OA
ATOM     15  H   UNL     1       1.911   2.443  19.456  0.00  0.00    +0.000 HD
ENDBRANCH   1   9
BRANCH   3  16
ATOM     16  O   UNL     1       7.262   4.476  15.055  0.00  0.00    +0.000 OA
ATOM     17  H   UNL     1       7.311   3.681  15.615  0.00  0.00    +0.000 HD
ENDBRANCH   3  16
BRANCH   4  18
ATOM     18  C   UNL     1       7.106   7.233  17.568  0.00  0.00    +0.000 C 
BRANCH  18  19
ATOM     19  C   UNL     1       8.274   7.682  18.455  0.00  0.00    +0.000 C 
BRANCH  19  20
ATOM     20  C   UNL     1       8.448   9.182  18.383  0.00  0.00    +0.000 C 
ATOM     21  O   UNL     1       7.878   9.881  17.549  0.00  0.00    +0.000 OA
ATOM     22  N   UNL     1       9.285   9.705  19.344  0.00  0.00    +0.000 N 
ATOM     23  H   UNL     1       9.894   9.099  19.884  0.00  0.00    +0.000 HD
BRANCH  22  24
ATOM     24  C   UNL     1       9.572  11.126  19.317  0.00  0.00    +0.000 C 
BRANCH  24  25
ATOM     25  C   UNL     1      10.659  11.538  18.306  0.00  0.00    +0.000 C 
BRANCH  25  26
ATOM     26  N   UNL     1      10.647  12.982  17.979  0.00  0.00    +0.000 NA
ATOM     27  C   UNL     1       9.392  13.607  18.439  0.00  0.00    +0.000 C 
ATOM     28  C   UNL     1       9.332  15.082  18.062  0.00  0.00    +0.000 C 
ATOM     29  C   UNL     1      10.523  15.842  18.623  0.00  0.00    +0.000 C 
ATOM     30  C   UNL     1      11.823  15.151  18.230  0.00  0.00    +0.000 C 
ATOM     31  C   UNL     1      11.803  13.663  18.595  0.00  0.00    +0.000 C 
ENDBRANCH  25  26
ENDBRANCH  24  25
ENDBRANCH  22  24
ENDBRANCH  19  20
ENDBRANCH  18  19
ENDBRANCH   4  18
TORSDOF 8
ENDMDL
MODEL 9
REMARK VINA RESULT:      -7.7      2.284      3.137
REMARK  Name = 
REMARK  9 active torsions:
REMARK  status: ('A' for Active; 'I' for Inactive)
REMARK    1  A    between atoms: C_1  and  C_2
REMARK    2  A    between atoms: N_4  and  C_5
REMARK    3  A    between atoms: C_7  and  O_8
REMARK    4  A    between atoms: C_9  and  C_10
REMARK    5  A    between atoms: C_10  and  C_11
REMARK    6  A    between atoms: C_11  and  C_12
REMARK    7  A    between atoms: N_14  and  C_15
REMARK    8  A    between atoms: C_15  and  C_16
REMARK    9  A    between atoms: C_16  and  N_17
REMARK                            x       y       z     vdW  Elec       q    Type
REMARK                         _______ _______ _______ _____ _____    ______ ____
ROOT
ATOM      1  C   UNL     1       5.220   4.016  17.279  0.00  0.00    +0.000 C 
ATOM      2  C   UNL     1       4.871   4.669  15.945  0.00  0.00    +0.000 C 
ATOM      3  C   UNL     1       6.228   5.048  15.402  0.00  0.00    +0.000 C 
ATOM      4  C   UNL     1       7.041   5.365  16.659  0.00  0.00    +0.000 C 
ATOM      5  O   UNL     1       6.450   4.609  17.734  0.00  0.00    +0.000 OA
ENDROOT
BRANCH   1   9
ATOM      6  C   UNL     1       2.251   6.939  19.957  0.00  0.00    +0.000 C 
ATOM      7  C   UNL     1       2.743   5.597  19.540  0.00  0.00    +0.000 A 
ATOM      8  C   UNL     1       3.807   5.398  18.761  0.00  0.00    +0.000 A 
ATOM      9  N   UNL     1       4.179   4.157  18.287  0.00  0.00    +0.000 N 
ATOM     10  C   UNL     1       3.480   3.012  18.656  0.00  0.00    +0.000 A 
ATOM     11  O   UNL     1       3.693   1.895  18.188  0.00  0.00    +0.000 OA
ATOM     12  N   UNL     1       2.492   3.197  19.586  0.00  0.00    +0.000 N 
ATOM     13  C   UNL     1       1.975   4.399  19.967  0.00  0.00    +0.000 A 
ATOM     14  O   UNL     1       0.938   4.493  20.608  0.00  0.00    +0.000 OA
ATOM     15  H   UNL     1       1.960   2.382  19.848  0.00  0.00    +0.000 HD
ENDBRANCH   1   9
BRANCH   3  16
ATOM     16  O   UNL     1       6.792   3.941  14.693  0.00  0.00    +0.000 OA
ATOM     17  H   UNL     1       7.250   4.267  13.899  0.00  0.00    +0.000 HD
ENDBRANCH   3  16
BRANCH   4  18
ATOM     18  C   UNL     1       7.008   6.849  17.026  0.00  0.00    +0.000 C 
BRANCH  18  19
ATOM     19  C   UNL     1       7.942   7.182  18.197  0.00  0.00    +0.000 C 
BRANCH  19  20
ATOM     20  C   UNL     1       8.199   8.670  18.262  0.00  0.00    +0.000 C 
ATOM     21  O   UNL     1       7.632   9.478  17.532  0.00  0.00    +0.000 OA
ATOM     22  N   UNL     1       9.109   9.048  19.225  0.00  0.00    +0.000 N 
ATOM     23  H   UNL     1       9.707   8.360  19.670  0.00  0.00    +0.000 HD
BRANCH  22  24
ATOM     24  C   UNL     1       9.476  10.447  19.322  0.00  0.00    +0.000 C 
BRANCH  24  25
ATOM     25  C   UNL     1       9.261  11.068  20.716  0.00  0.00    +0.000 C 
BRANCH  25  26
ATOM     26  N   UNL     1       9.338  12.546  20.724  0.00  0.00    +0.000 NA
ATOM     27  C   UNL     1       9.354  13.057  22.108  0.00  0.00    +0.000 C 
ATOM     28  C   UNL     1       9.376  14.581  22.142  0.00  0.00    +0.000 C 
ATOM     29  C   UNL     1      10.567  15.130  21.375  0.00  0.00    +0.000 C 
ATOM     30  C   UNL     1      10.612  14.537  19.972  0.00  0.00    +0.000 C 
ATOM     31  C   UNL     1      10.543  13.007  20.005  0.00  0.00    +0.000 C 
ENDBRANCH  25  26
ENDBRANCH  24  25
ENDBRANCH  22  24
ENDBRANCH  19  20
ENDBRANCH  18  19
ENDBRANCH   4  18
TORSDOF 8
ENDMDL
