MODEL 1
REMARK VINA RESULT:      -7.3      0.000      0.000
REMARK  Name = 
REMARK  3 active torsions:
REMARK  status: ('A' for Active; 'I' for Inactive)
REMARK    1  A    between atoms: C_1  and  C_2
REMARK    2  A    between atoms: N_13  and  C_14
REMARK    3  A    between atoms: C_28  and  C_29
REMARK                            x       y       z     vdW  Elec       q    Type
REMARK                         _______ _______ _______ _____ _____    ______ ____
ROOT
ATOM      1  C   UNL     1       2.094  11.977  18.362  0.00  0.00    +0.000 C 
ATOM      2  C   UNL     1       1.005  12.405  19.309  0.00  0.00    +0.000 A 
ATOM      3  C   UNL     1       1.179  13.563  20.114  0.00  0.00    +0.000 A 
ATOM      4  C   UNL     1       0.168  13.961  21.005  0.00  0.00    +0.000 A 
ATOM      5  N   UNL     1       0.152  15.001  21.906  0.00  0.00    +0.000 NA
ATOM      6  C   UNL     1      -1.002  14.934  22.539  0.00  0.00    +0.000 A 
ATOM      7  N   UNL     1      -1.379  15.733  23.586  0.00  0.00    +0.000 N 
ATOM      8  C   UNL     1      -0.320  16.434  24.351  0.00  0.00    +0.000 C 
ATOM      9  C   UNL     1      -0.813  16.482  25.809  0.00  0.00    +0.000 C 
ATOM     10  O   UNL     1      -2.049  17.222  25.912  0.00  0.00    +0.000 OA
ATOM     11  C   UNL     1      -3.077  16.631  25.092  0.00  0.00    +0.000 C 
ATOM     12  C   UNL     1      -2.631  16.500  23.613  0.00  0.00    +0.000 C 
ATOM     13  N   UNL     1      -1.768  13.843  22.071  0.00  0.00    +0.000 N 
ATOM     14  C   UNL     1      -0.996  13.223  21.087  0.00  0.00    +0.000 A 
ATOM     15  C   UNL     1      -1.159  12.045  20.330  0.00  0.00    +0.000 A 
ATOM     16  C   UNL     1      -0.172  11.657  19.420  0.00  0.00    +0.000 A 
ATOM     17  C   UNL     1      -0.422  10.416  18.598  0.00  0.00    +0.000 C 
ENDROOT
BRANCH  13  18
ATOM     18  C   UNL     1      -3.011  13.312  22.550  0.00  0.00    +0.000 A 
ATOM     19  C   UNL     1      -3.045  12.494  23.676  0.00  0.00    +0.000 A 
ATOM     20  C   UNL     1      -4.236  12.349  24.370  0.00  0.00    +0.000 A 
ATOM     21  C   UNL     1      -5.421  12.823  23.765  0.00  0.00    +0.000 A 
ATOM     22  C   UNL     1      -6.722  12.730  24.249  0.00  0.00    +0.000 A 
ATOM     23  N   UNL     1      -7.424  13.970  24.404  0.00  0.00    +0.000 N 
ATOM     24  N   UNL     1      -7.508  11.840  23.694  0.00  0.00    +0.000 NA
ATOM     25  C   UNL     1      -7.244  11.650  22.402  0.00  0.00    +0.000 A 
ATOM     26  N   UNL     1      -7.911  10.561  21.849  0.00  0.00    +0.000 N 
ATOM     27  N   UNL     1      -6.364  12.387  21.693  0.00  0.00    +0.000 NA
ATOM     28  C   UNL     1      -5.389  12.982  22.415  0.00  0.00    +0.000 A 
ATOM     29  C   UNL     1      -4.228  13.587  21.937  0.00  0.00    +0.000 A 
ATOM     30  H   UNL     1      -7.439  14.418  23.492  0.00  0.00    +0.000 HD
ATOM     31  H   UNL     1      -8.393  13.703  24.593  0.00  0.00    +0.000 HD
ATOM     32  H   UNL     1      -8.879  10.694  22.141  0.00  0.00    +0.000 HD
ATOM     33  H   UNL     1      -7.633   9.789  22.468  0.00  0.00    +0.000 HD
ENDBRANCH  13  18
TORSDOF 1
ENDMDL
MODEL 2
REMARK VINA RESULT:      -7.1      3.261      5.472
REMARK  Name = 
REMARK  3 active torsions:
REMARK  status: ('A' for Active; 'I' for Inactive)
REMARK    1  A    between atoms: C_1  and  C_2
REMARK    2  A    between atoms: N_13  and  C_14
REMARK    3  A    between atoms: C_28  and  C_29
REMARK                            x       y       z     vdW  Elec       q    Type
REMARK                         _______ _______ _______ _____ _____    ______ ____
ROOT
ATOM      1  C   UNL     1       1.165   9.359  17.870  0.00  0.00    +0.000 C 
ATOM      2  C   UNL     1       0.031  10.157  18.457  0.00  0.00    +0.000 A 
ATOM      3  C   UNL     1      -1.235  10.170  17.813  0.00  0.00    +0.000 A 
ATOM      4  C   UNL     1      -2.293  10.921  18.353  0.00  0.00    +0.000 A 
ATOM      5  N   UNL     1      -3.566  11.118  17.869  0.00  0.00    +0.000 NA
ATOM      6  C   UNL     1      -4.168  11.933  18.712  0.00  0.00    +0.000 A 
ATOM      7  N   UNL     1      -5.423  12.457  18.547  0.00  0.00    +0.000 N 
ATOM      8  C   UNL     1      -6.002  12.479  17.182  0.00  0.00    +0.000 C 
ATOM      9  C   UNL     1      -6.849  13.762  17.102  0.00  0.00    +0.000 C 
ATOM     10  O   UNL     1      -7.916  13.737  18.074  0.00  0.00    +0.000 OA
ATOM     11  C   UNL     1      -7.396  13.605  19.413  0.00  0.00    +0.000 C 
ATOM     12  C   UNL     1      -6.484  12.359  19.557  0.00  0.00    +0.000 C 
ATOM     13  N   UNL     1      -3.300  12.293  19.767  0.00  0.00    +0.000 N 
ATOM     14  C   UNL     1      -2.094  11.637  19.516  0.00  0.00    +0.000 A 
ATOM     15  C   UNL     1      -0.829  11.671  20.136  0.00  0.00    +0.000 A 
ATOM     16  C   UNL     1       0.222  10.906  19.623  0.00  0.00    +0.000 A 
ATOM     17  C   UNL     1       1.540  10.939  20.357  0.00  0.00    +0.000 C 
ENDROOT
BRANCH  13  18
ATOM     18  C   UNL     1      -3.476  13.245  20.824  0.00  0.00    +0.000 A 
ATOM     19  C   UNL     1      -3.438  14.612  20.561  0.00  0.00    +0.000 A 
ATOM     20  C   UNL     1      -4.023  15.490  21.461  0.00  0.00    +0.000 A 
ATOM     21  C   UNL     1      -4.402  14.992  22.727  0.00  0.00    +0.000 A 
ATOM     22  C   UNL     1      -4.946  15.699  23.794  0.00  0.00    +0.000 A 
ATOM     23  N   UNL     1      -6.211  15.231  24.278  0.00  0.00    +0.000 N 
ATOM     24  N   UNL     1      -4.154  15.966  24.805  0.00  0.00    +0.000 NA
ATOM     25  C   UNL     1      -3.236  15.021  25.007  0.00  0.00    +0.000 A 
ATOM     26  N   UNL     1      -2.255  15.382  25.925  0.00  0.00    +0.000 N 
ATOM     27  N   UNL     1      -3.202  13.845  24.346  0.00  0.00    +0.000 NA
ATOM     28  C   UNL     1      -3.796  13.843  23.131  0.00  0.00    +0.000 A 
ATOM     29  C   UNL     1      -3.702  12.866  22.143  0.00  0.00    +0.000 A 
ATOM     30  H   UNL     1      -6.084  14.261  24.552  0.00  0.00    +0.000 HD
ATOM     31  H   UNL     1      -6.366  15.742  25.150  0.00  0.00    +0.000 HD
ATOM     32  H   UNL     1      -2.784  15.736  26.722  0.00  0.00    +0.000 HD
ATOM     33  H   UNL     1      -1.895  16.263  25.534  0.00  0.00    +0.000 HD
ENDBRANCH  13  18
TORSDOF 1
ENDMDL
MODEL 3
REMARK VINA RESULT:      -6.7      3.178      6.924
REMARK  Name = 
REMARK  3 active torsions:
REMARK  status: ('A' for Active; 'I' for Inactive)
REMARK    1  A    between atoms: C_1  and  C_2
REMARK    2  A    between atoms: N_13  and  C_14
REMARK    3  A    between atoms: C_28  and  C_29
REMARK                            x       y       z     vdW  Elec       q    Type
REMARK                         _______ _______ _______ _____ _____    ______ ____
ROOT
ATOM      1  C   UNL     1       1.499   5.816  20.601  0.00  0.00    +0.000 C 
ATOM      2  C   UNL     1       1.230   7.296  20.663  0.00  0.00    +0.000 A 
ATOM      3  C   UNL     1       0.364   7.820  21.660  0.00  0.00    +0.000 A 
ATOM      4  C   UNL     1       0.104   9.199  21.715  0.00  0.00    +0.000 A 
ATOM      5  N   UNL     1      -0.735   9.901  22.549  0.00  0.00    +0.000 NA
ATOM      6  C   UNL     1      -0.664  11.164  22.180  0.00  0.00    +0.000 A 
ATOM      7  N   UNL     1      -1.420  12.185  22.697  0.00  0.00    +0.000 N 
ATOM      8  C   UNL     1      -2.678  11.840  23.400  0.00  0.00    +0.000 C 
ATOM      9  C   UNL     1      -3.662  12.983  23.091  0.00  0.00    +0.000 C 
ATOM     10  O   UNL     1      -3.163  14.243  23.591  0.00  0.00    +0.000 OA
ATOM     11  C   UNL     1      -1.882  14.561  23.010  0.00  0.00    +0.000 C 
ATOM     12  C   UNL     1      -0.849  13.426  23.234  0.00  0.00    +0.000 C 
ATOM     13  N   UNL     1       0.221  11.319  21.090  0.00  0.00    +0.000 N 
ATOM     14  C   UNL     1       0.701  10.041  20.799  0.00  0.00    +0.000 A 
ATOM     15  C   UNL     1       1.523   9.528  19.775  0.00  0.00    +0.000 A 
ATOM     16  C   UNL     1       1.810   8.161  19.728  0.00  0.00    +0.000 A 
ATOM     17  C   UNL     1       2.738   7.674  18.642  0.00  0.00    +0.000 C 
ENDROOT
BRANCH  13  18
ATOM     18  C   UNL     1       0.505  12.471  20.286  0.00  0.00    +0.000 A 
ATOM     19  C   UNL     1      -0.377  12.874  19.287  0.00  0.00    +0.000 A 
ATOM     20  C   UNL     1      -0.327  14.182  18.828  0.00  0.00    +0.000 A 
ATOM     21  C   UNL     1       0.780  14.976  19.201  0.00  0.00    +0.000 A 
ATOM     22  C   UNL     1       1.063  16.281  18.812  0.00  0.00    +0.000 A 
ATOM     23  N   UNL     1       1.221  17.232  19.873  0.00  0.00    +0.000 N 
ATOM     24  N   UNL     1       2.007  16.452  17.918  0.00  0.00    +0.000 NA
ATOM     25  C   UNL     1       2.974  15.539  18.006  0.00  0.00    +0.000 A 
ATOM     26  N   UNL     1       3.866  15.565  16.939  0.00  0.00    +0.000 N 
ATOM     27  N   UNL     1       3.062  14.622  18.991  0.00  0.00    +0.000 NA
ATOM     28  C   UNL     1       1.896  14.309  19.601  0.00  0.00    +0.000 A 
ATOM     29  C   UNL     1       1.649  13.243  20.462  0.00  0.00    +0.000 A 
ATOM     30  H   UNL     1       1.972  16.892  20.467  0.00  0.00    +0.000 HD
ATOM     31  H   UNL     1       1.590  18.072  19.422  0.00  0.00    +0.000 HD
ATOM     32  H   UNL     1       4.121  16.549  16.857  0.00  0.00    +0.000 HD
ATOM     33  H   UNL     1       3.246  15.465  16.125  0.00  0.00    +0.000 HD
ENDBRANCH  13  18
TORSDOF 1
ENDMDL
MODEL 4
REMARK VINA RESULT:      -6.7      2.778      4.221
REMARK  Name = 
REMARK  3 active torsions:
REMARK  status: ('A' for Active; 'I' for Inactive)
REMARK    1  A    between atoms: C_1  and  C_2
REMARK    2  A    between atoms: N_13  and  C_14
REMARK    3  A    between atoms: C_28  and  C_29
REMARK                            x       y       z     vdW  Elec       q    Type
REMARK                         _______ _______ _______ _____ _____    ______ ____
ROOT
ATOM      1  C   UNL     1       2.437   7.689  18.587  0.00  0.00    +0.000 C 
ATOM      2  C   UNL     1       1.743   8.943  19.048  0.00  0.00    +0.000 A 
ATOM      3  C   UNL     1       2.013  10.180  18.404  0.00  0.00    +0.000 A 
ATOM      4  C   UNL     1       1.374  11.354  18.836  0.00  0.00    +0.000 A 
ATOM      5  N   UNL     1       1.529  12.650  18.399  0.00  0.00    +0.000 NA
ATOM      6  C   UNL     1       0.740  13.396  19.146  0.00  0.00    +0.000 A 
ATOM      7  N   UNL     1       0.666  14.764  19.098  0.00  0.00    +0.000 N 
ATOM      8  C   UNL     1       1.800  15.508  18.500  0.00  0.00    +0.000 C 
ATOM      9  C   UNL     1       1.910  16.821  19.296  0.00  0.00    +0.000 C 
ATOM     10  O   UNL     1       0.703  17.605  19.169  0.00  0.00    +0.000 OA
ATOM     11  C   UNL     1      -0.444  16.869  19.641  0.00  0.00    +0.000 C 
ATOM     12  C   UNL     1      -0.590  15.504  18.920  0.00  0.00    +0.000 C 
ATOM     13  N   UNL     1       0.053  12.607  20.095  0.00  0.00    +0.000 N 
ATOM     14  C   UNL     1       0.479  11.294  19.885  0.00  0.00    +0.000 A 
ATOM     15  C   UNL     1       0.241  10.082  20.564  0.00  0.00    +0.000 A 
ATOM     16  C   UNL     1       0.850   8.903  20.124  0.00  0.00    +0.000 A 
ATOM     17  C   UNL     1       0.519   7.625  20.855  0.00  0.00    +0.000 C 
ENDROOT
BRANCH  13  18
ATOM     18  C   UNL     1      -0.795  12.998  21.183  0.00  0.00    +0.000 A 
ATOM     19  C   UNL     1      -0.251  13.530  22.349  0.00  0.00    +0.000 A 
ATOM     20  C   UNL     1      -1.057  14.286  23.187  0.00  0.00    +0.000 A 
ATOM     21  C   UNL     1      -2.452  14.270  22.961  0.00  0.00    +0.000 A 
ATOM     22  C   UNL     1      -3.443  14.900  23.706  0.00  0.00    +0.000 A 
ATOM     23  N   UNL     1      -4.288  15.807  22.986  0.00  0.00    +0.000 N 
ATOM     24  N   UNL     1      -4.170  14.149  24.498  0.00  0.00    +0.000 NA
ATOM     25  C   UNL     1      -4.350  12.918  24.022  0.00  0.00    +0.000 A 
ATOM     26  N   UNL     1      -4.926  12.042  24.937  0.00  0.00    +0.000 N 
ATOM     27  N   UNL     1      -3.958  12.516  22.795  0.00  0.00    +0.000 NA
ATOM     28  C   UNL     1      -2.937  13.217  22.251  0.00  0.00    +0.000 A 
ATOM     29  C   UNL     1      -2.179  12.882  21.132  0.00  0.00    +0.000 A 
ATOM     30  H   UNL     1      -4.722  15.277  22.236  0.00  0.00    +0.000 HD
ATOM     31  H   UNL     1      -5.046  16.032  23.635  0.00  0.00    +0.000 HD
ATOM     32  H   UNL     1      -5.730  12.557  25.295  0.00  0.00    +0.000 HD
ATOM     33  H   UNL     1      -4.289  12.109  25.742  0.00  0.00    +0.000 HD
ENDBRANCH  13  18
TORSDOF 1
ENDMDL
MODEL 5
REMARK VINA RESULT:      -6.6      1.126      2.029
REMARK  Name = 
REMARK  3 active torsions:
REMARK  status: ('A' for Active; 'I' for Inactive)
REMARK    1  A    between atoms: C_1  and  C_2
REMARK    2  A    between atoms: N_13  and  C_14
REMARK    3  A    between atoms: C_28  and  C_29
REMARK                            x       y       z     vdW  Elec       q    Type
REMARK                         _______ _______ _______ _____ _____    ______ ____
ROOT
ATOM      1  C   UNL     1       1.772  10.497  18.061  0.00  0.00    +0.000 C 
ATOM      2  C   UNL     1       0.726  11.288  18.801  0.00  0.00    +0.000 A 
ATOM      3  C   UNL     1       1.110  12.390  19.611  0.00  0.00    +0.000 A 
ATOM      4  C   UNL     1       0.138  13.124  20.310  0.00  0.00    +0.000 A 
ATOM      5  N   UNL     1       0.292  14.176  21.183  0.00  0.00    +0.000 NA
ATOM      6  C   UNL     1      -0.914  14.494  21.608  0.00  0.00    +0.000 A 
ATOM      7  N   UNL     1      -1.195  15.434  22.565  0.00  0.00    +0.000 N 
ATOM      8  C   UNL     1      -0.112  15.835  23.495  0.00  0.00    +0.000 C 
ATOM      9  C   UNL     1      -0.796  16.117  24.844  0.00  0.00    +0.000 C 
ATOM     10  O   UNL     1      -1.748  17.196  24.725  0.00  0.00    +0.000 OA
ATOM     11  C   UNL     1      -2.761  16.887  23.745  0.00  0.00    +0.000 C 
ATOM     12  C   UNL     1      -2.142  16.538  22.367  0.00  0.00    +0.000 C 
ATOM     13  N   UNL     1      -1.888  13.653  21.026  0.00  0.00    +0.000 N 
ATOM     14  C   UNL     1      -1.192  12.772  20.197  0.00  0.00    +0.000 A 
ATOM     15  C   UNL     1      -1.580  11.651  19.436  0.00  0.00    +0.000 A 
ATOM     16  C   UNL     1      -0.624  10.930  18.715  0.00  0.00    +0.000 A 
ATOM     17  C   UNL     1      -1.103   9.771  17.875  0.00  0.00    +0.000 C 
ENDROOT
BRANCH  13  18
ATOM     18  C   UNL     1      -3.294  13.546  21.288  0.00  0.00    +0.000 A 
ATOM     19  C   UNL     1      -4.214  14.252  20.519  0.00  0.00    +0.000 A 
ATOM     20  C   UNL     1      -5.533  13.826  20.484  0.00  0.00    +0.000 A 
ATOM     21  C   UNL     1      -5.946  12.858  21.426  0.00  0.00    +0.000 A 
ATOM     22  C   UNL     1      -7.222  12.335  21.609  0.00  0.00    +0.000 A 
ATOM     23  N   UNL     1      -7.338  10.911  21.501  0.00  0.00    +0.000 N 
ATOM     24  N   UNL     1      -7.903  12.760  22.646  0.00  0.00    +0.000 NA
ATOM     25  C   UNL     1      -7.128  13.054  23.689  0.00  0.00    +0.000 A 
ATOM     26  N   UNL     1      -7.798  13.710  24.717  0.00  0.00    +0.000 N 
ATOM     27  N   UNL     1      -5.801  12.811  23.739  0.00  0.00    +0.000 NA
ATOM     28  C   UNL     1      -5.178  12.735  22.542  0.00  0.00    +0.000 A 
ATOM     29  C   UNL     1      -3.807  12.739  22.297  0.00  0.00    +0.000 A 
ATOM     30  H   UNL     1      -6.712  10.508  22.193  0.00  0.00    +0.000 HD
ATOM     31  H   UNL     1      -8.282  10.697  21.832  0.00  0.00    +0.000 HD
ATOM     32  H   UNL     1      -8.633  13.143  24.865  0.00  0.00    +0.000 HD
ATOM     33  H   UNL     1      -8.208  14.521  24.236  0.00  0.00    +0.000 HD
ENDBRANCH  13  18
TORSDOF 1
ENDMDL
MODEL 6
REMARK VINA RESULT:      -6.5      3.400      5.492
REMARK  Name = 
REMARK  3 active torsions:
REMARK  status: ('A' for Active; 'I' for Inactive)
REMARK    1  A    between atoms: C_1  and  C_2
REMARK    2  A    between atoms: N_13  and  C_14
REMARK    3  A    between atoms: C_28  and  C_29
REMARK                            x       y       z     vdW  Elec       q    Type
REMARK                         _______ _______ _______ _____ _____    ______ ____
ROOT
ATOM      1  C   UNL     1       1.295   9.613  18.214  0.00  0.00    +0.000 C 
ATOM      2  C   UNL     1       0.078  10.328  18.736  0.00  0.00    +0.000 A 
ATOM      3  C   UNL     1      -1.115  10.355  17.965  0.00  0.00    +0.000 A 
ATOM      4  C   UNL     1      -2.250  11.029  18.445  0.00  0.00    +0.000 A 
ATOM      5  N   UNL     1      -3.473  11.226  17.845  0.00  0.00    +0.000 NA
ATOM      6  C   UNL     1      -4.188  11.954  18.679  0.00  0.00    +0.000 A 
ATOM      7  N   UNL     1      -5.439  12.452  18.422  0.00  0.00    +0.000 N 
ATOM      8  C   UNL     1      -5.874  12.564  17.009  0.00  0.00    +0.000 C 
ATOM      9  C   UNL     1      -6.756  13.823  16.937  0.00  0.00    +0.000 C 
ATOM     10  O   UNL     1      -7.917  13.690  17.786  0.00  0.00    +0.000 OA
ATOM     11  C   UNL     1      -7.532  13.469  19.158  0.00  0.00    +0.000 C 
ATOM     12  C   UNL     1      -6.594  12.243  19.304  0.00  0.00    +0.000 C 
ATOM     13  N   UNL     1      -3.449  12.256  19.844  0.00  0.00    +0.000 N 
ATOM     14  C   UNL     1      -2.199  11.657  19.673  0.00  0.00    +0.000 A 
ATOM     15  C   UNL     1      -1.007  11.679  20.424  0.00  0.00    +0.000 A 
ATOM     16  C   UNL     1       0.120  10.988  19.968  0.00  0.00    +0.000 A 
ATOM     17  C   UNL     1       1.353  11.002  20.838  0.00  0.00    +0.000 C 
ENDROOT
BRANCH  13  18
ATOM     18  C   UNL     1      -3.768  13.116  20.945  0.00  0.00    +0.000 A 
ATOM     19  C   UNL     1      -4.360  12.603  22.097  0.00  0.00    +0.000 A 
ATOM     20  C   UNL     1      -4.267  13.318  23.280  0.00  0.00    +0.000 A 
ATOM     21  C   UNL     1      -3.806  14.652  23.218  0.00  0.00    +0.000 A 
ATOM     22  C   UNL     1      -3.690  15.565  24.261  0.00  0.00    +0.000 A 
ATOM     23  N   UNL     1      -2.384  16.117  24.470  0.00  0.00    +0.000 N 
ATOM     24  N   UNL     1      -4.591  16.514  24.333  0.00  0.00    +0.000 NA
ATOM     25  C   UNL     1      -5.037  16.896  23.137  0.00  0.00    +0.000 A 
ATOM     26  N   UNL     1      -6.143  17.738  23.195  0.00  0.00    +0.000 N 
ATOM     27  N   UNL     1      -4.525  16.466  21.965  0.00  0.00    +0.000 NA
ATOM     28  C   UNL     1      -3.899  15.268  22.009  0.00  0.00    +0.000 A 
ATOM     29  C   UNL     1      -3.500  14.480  20.932  0.00  0.00    +0.000 A 
ATOM     30  H   UNL     1      -2.110  16.568  23.602  0.00  0.00    +0.000 HD
ATOM     31  H   UNL     1      -2.523  16.877  25.140  0.00  0.00    +0.000 HD
ATOM     32  H   UNL     1      -5.872  18.451  23.872  0.00  0.00    +0.000 HD
ATOM     33  H   UNL     1      -6.811  17.193  23.756  0.00  0.00    +0.000 HD
ENDBRANCH  13  18
TORSDOF 1
ENDMDL
MODEL 7
REMARK VINA RESULT:      -6.5      5.445      7.672
REMARK  Name = 
REMARK  3 active torsions:
REMARK  status: ('A' for Active; 'I' for Inactive)
REMARK    1  A    between atoms: C_1  and  C_2
REMARK    2  A    between atoms: N_13  and  C_14
REMARK    3  A    between atoms: C_28  and  C_29
REMARK                            x       y       z     vdW  Elec       q    Type
REMARK                         _______ _______ _______ _____ _____    ______ ____
ROOT
ATOM      1  C   UNL     1       9.464  16.188  17.888  0.00  0.00    +0.000 C 
ATOM      2  C   UNL     1       8.021  15.849  18.151  0.00  0.00    +0.000 A 
ATOM      3  C   UNL     1       7.110  16.871  18.533  0.00  0.00    +0.000 A 
ATOM      4  C   UNL     1       5.765  16.557  18.788  0.00  0.00    +0.000 A 
ATOM      5  N   UNL     1       4.741  17.369  19.219  0.00  0.00    +0.000 NA
ATOM      6  C   UNL     1       3.679  16.599  19.349  0.00  0.00    +0.000 A 
ATOM      7  N   UNL     1       2.467  17.000  19.849  0.00  0.00    +0.000 N 
ATOM      8  C   UNL     1       2.421  18.225  20.682  0.00  0.00    +0.000 C 
ATOM      9  C   UNL     1       1.330  17.976  21.739  0.00  0.00    +0.000 C 
ATOM     10  O   UNL     1       0.043  17.772  21.116  0.00  0.00    +0.000 OA
ATOM     11  C   UNL     1       0.078  16.650  20.210  0.00  0.00    +0.000 C 
ATOM     12  C   UNL     1       1.194  16.804  19.144  0.00  0.00    +0.000 C 
ATOM     13  N   UNL     1       3.984  15.262  19.012  0.00  0.00    +0.000 N 
ATOM     14  C   UNL     1       5.335  15.252  18.659  0.00  0.00    +0.000 A 
ATOM     15  C   UNL     1       6.239  14.222  18.330  0.00  0.00    +0.000 A 
ATOM     16  C   UNL     1       7.573  14.528  18.046  0.00  0.00    +0.000 A 
ATOM     17  C   UNL     1       8.485  13.393  17.649  0.00  0.00    +0.000 C 
ENDROOT
BRANCH  13  18
ATOM     18  C   UNL     1       3.190  14.074  19.129  0.00  0.00    +0.000 A 
ATOM     19  C   UNL     1       2.734  13.645  20.373  0.00  0.00    +0.000 A 
ATOM     20  C   UNL     1       1.647  12.788  20.436  0.00  0.00    +0.000 A 
ATOM     21  C   UNL     1       1.209  12.179  19.239  0.00  0.00    +0.000 A 
ATOM     22  C   UNL     1       0.186  11.250  19.079  0.00  0.00    +0.000 A 
ATOM     23  N   UNL     1      -0.858  11.616  18.167  0.00  0.00    +0.000 N 
ATOM     24  N   UNL     1       0.533  10.001  18.879  0.00  0.00    +0.000 NA
ATOM     25  C   UNL     1       1.676   9.883  18.204  0.00  0.00    +0.000 A 
ATOM     26  N   UNL     1       2.175   8.585  18.172  0.00  0.00    +0.000 N 
ATOM     27  N   UNL     1       2.342  10.921  17.655  0.00  0.00    +0.000 NA
ATOM     28  C   UNL     1       2.111  12.126  18.222  0.00  0.00    +0.000 A 
ATOM     29  C   UNL     1       2.826  13.306  18.029  0.00  0.00    +0.000 A 
ATOM     30  H   UNL     1      -0.419  11.786  17.266  0.00  0.00    +0.000 HD
ATOM     31  H   UNL     1      -1.411  10.765  18.044  0.00  0.00    +0.000 HD
ATOM     32  H   UNL     1       1.374   8.022  17.889  0.00  0.00    +0.000 HD
ATOM     33  H   UNL     1       2.231   8.341  19.170  0.00  0.00    +0.000 HD
ENDBRANCH  13  18
TORSDOF 1
ENDMDL
MODEL 8
REMARK VINA RESULT:      -6.4      8.578     12.628
REMARK  Name = 
REMARK  3 active torsions:
REMARK  status: ('A' for Active; 'I' for Inactive)
REMARK    1  A    between atoms: C_1  and  C_2
REMARK    2  A    between atoms: N_13  and  C_14
REMARK    3  A    between atoms: C_28  and  C_29
REMARK                            x       y       z     vdW  Elec       q    Type
REMARK                         _______ _______ _______ _____ _____    ______ ____
ROOT
ATOM      1  C   UNL     1       0.176  11.595  20.272  0.00  0.00    +0.000 C 
ATOM      2  C   UNL     1       0.859  10.340  19.797  0.00  0.00    +0.000 A 
ATOM      3  C   UNL     1       0.533   9.088  20.385  0.00  0.00    +0.000 A 
ATOM      4  C   UNL     1       1.175   7.917  19.951  0.00  0.00    +0.000 A 
ATOM      5  N   UNL     1       1.055   6.627  20.415  0.00  0.00    +0.000 NA
ATOM      6  C   UNL     1       1.894   5.893  19.711  0.00  0.00    +0.000 A 
ATOM      7  N   UNL     1       2.153   4.564  19.922  0.00  0.00    +0.000 N 
ATOM      8  C   UNL     1       1.820   3.985  21.246  0.00  0.00    +0.000 C 
ATOM      9  C   UNL     1       2.899   2.923  21.525  0.00  0.00    +0.000 C 
ATOM     10  O   UNL     1       2.869   1.881  20.525  0.00  0.00    +0.000 OA
ATOM     11  C   UNL     1       3.081   2.423  19.206  0.00  0.00    +0.000 C 
ATOM     12  C   UNL     1       2.060   3.542  18.872  0.00  0.00    +0.000 C 
ATOM     13  N   UNL     1       2.589   6.688  18.773  0.00  0.00    +0.000 N 
ATOM     14  C   UNL     1       2.118   7.990  18.945  0.00  0.00    +0.000 A 
ATOM     15  C   UNL     1       2.485   9.232  18.389  0.00  0.00    +0.000 A 
ATOM     16  C   UNL     1       1.833  10.400  18.795  0.00  0.00    +0.000 A 
ATOM     17  C   UNL     1       2.230  11.695  18.128  0.00  0.00    +0.000 C 
ENDROOT
BRANCH  13  18
ATOM     18  C   UNL     1       3.675   6.351  17.900  0.00  0.00    +0.000 A 
ATOM     19  C   UNL     1       4.440   7.349  17.302  0.00  0.00    +0.000 A 
ATOM     20  C   UNL     1       5.708   7.040  16.834  0.00  0.00    +0.000 A 
ATOM     21  C   UNL     1       6.072   5.678  16.745  0.00  0.00    +0.000 A 
ATOM     22  C   UNL     1       7.258   5.141  16.254  0.00  0.00    +0.000 A 
ATOM     23  N   UNL     1       7.990   4.305  17.159  0.00  0.00    +0.000 N 
ATOM     24  N   UNL     1       7.221   4.587  15.067  0.00  0.00    +0.000 NA
ATOM     25  C   UNL     1       6.048   4.013  14.799  0.00  0.00    +0.000 A 
ATOM     26  N   UNL     1       5.910   3.614  13.473  0.00  0.00    +0.000 N 
ATOM     27  N   UNL     1       5.047   3.882  15.695  0.00  0.00    +0.000 NA
ATOM     28  C   UNL     1       5.050   4.780  16.706  0.00  0.00    +0.000 A 
ATOM     29  C   UNL     1       4.027   5.036  17.617  0.00  0.00    +0.000 A 
ATOM     30  H   UNL     1       7.370   3.547  17.431  0.00  0.00    +0.000 HD
ATOM     31  H   UNL     1       8.717   3.869  16.586  0.00  0.00    +0.000 HD
ATOM     32  H   UNL     1       6.768   3.097  13.283  0.00  0.00    +0.000 HD
ATOM     33  H   UNL     1       6.098   4.484  12.957  0.00  0.00    +0.000 HD
ENDBRANCH  13  18
TORSDOF 1
ENDMDL
MODEL 9
REMARK VINA RESULT:      -6.4      2.999      4.582
REMARK  Name = 
REMARK  3 active torsions:
REMARK  status: ('A' for Active; 'I' for Inactive)
REMARK    1  A    between atoms: C_1  and  C_2
REMARK    2  A    between atoms: N_13  and  C_14
REMARK    3  A    between atoms: C_28  and  C_29
REMARK                            x       y       z     vdW  Elec       q    Type
REMARK                         _______ _______ _______ _____ _____    ______ ____
ROOT
ATOM      1  C   UNL     1       1.724  17.549  17.441  0.00  0.00    +0.000 C 
ATOM      2  C   UNL     1       0.936  16.646  18.352  0.00  0.00    +0.000 A 
ATOM      3  C   UNL     1       1.493  15.412  18.783  0.00  0.00    +0.000 A 
ATOM      4  C   UNL     1       0.757  14.562  19.626  0.00  0.00    +0.000 A 
ATOM      5  N   UNL     1       1.076  13.314  20.110  0.00  0.00    +0.000 NA
ATOM      6  C   UNL     1       0.044  12.911  20.822  0.00  0.00    +0.000 A 
ATOM      7  N   UNL     1      -0.084  11.676  21.403  0.00  0.00    +0.000 N 
ATOM      8  C   UNL     1       0.754  10.567  20.886  0.00  0.00    +0.000 C 
ATOM      9  C   UNL     1      -0.106   9.296  21.009  0.00  0.00    +0.000 C 
ATOM     10  O   UNL     1      -0.450   9.035  22.387  0.00  0.00    +0.000 OA
ATOM     11  C   UNL     1      -1.173  10.143  22.960  0.00  0.00    +0.000 C 
ATOM     12  C   UNL     1      -0.389  11.475  22.825  0.00  0.00    +0.000 C 
ATOM     13  N   UNL     1      -0.980  13.884  20.817  0.00  0.00    +0.000 N 
ATOM     14  C   UNL     1      -0.506  14.939  20.036  0.00  0.00    +0.000 A 
ATOM     15  C   UNL     1      -1.089  16.137  19.574  0.00  0.00    +0.000 A 
ATOM     16  C   UNL     1      -0.354  17.002  18.759  0.00  0.00    +0.000 A 
ATOM     17  C   UNL     1      -1.008  18.295  18.337  0.00  0.00    +0.000 C 
ENDROOT
BRANCH  13  18
ATOM     18  C   UNL     1      -2.315  13.825  21.339  0.00  0.00    +0.000 A 
ATOM     19  C   UNL     1      -3.333  13.214  20.612  0.00  0.00    +0.000 A 
ATOM     20  C   UNL     1      -4.471  12.782  21.275  0.00  0.00    +0.000 A 
ATOM     21  C   UNL     1      -4.668  13.208  22.608  0.00  0.00    +0.000 A 
ATOM     22  C   UNL     1      -5.755  12.948  23.436  0.00  0.00    +0.000 A 
ATOM     23  N   UNL     1      -5.456  12.304  24.681  0.00  0.00    +0.000 N 
ATOM     24  N   UNL     1      -6.608  13.924  23.633  0.00  0.00    +0.000 NA
ATOM     25  C   UNL     1      -6.032  15.126  23.618  0.00  0.00    +0.000 A 
ATOM     26  N   UNL     1      -6.940  16.180  23.605  0.00  0.00    +0.000 N 
ATOM     27  N   UNL     1      -4.699  15.326  23.551  0.00  0.00    +0.000 NA
ATOM     28  C   UNL     1      -3.987  14.321  22.993  0.00  0.00    +0.000 A 
ATOM     29  C   UNL     1      -2.657  14.353  22.578  0.00  0.00    +0.000 A 
ATOM     30  H   UNL     1      -4.798  12.901  25.174  0.00  0.00    +0.000 HD
ATOM     31  H   UNL     1      -6.324  12.353  25.218  0.00  0.00    +0.000 HD
ATOM     32  H   UNL     1      -7.589  15.953  24.357  0.00  0.00    +0.000 HD
ATOM     33  H   UNL     1      -7.522  15.965  22.784  0.00  0.00    +0.000 HD
ENDBRANCH  13  18
TORSDOF 1
ENDMDL
