MODEL 1
REMARK VINA RESULT:      -6.9      0.000      0.000
REMARK  Name = 
REMARK  7 active torsions:
REMARK  status: ('A' for Active; 'I' for Inactive)
REMARK    1  A    between atoms: C_1  and  C_2
REMARK    2  A    between atoms: C_2  and  N_3
REMARK    3  A    between atoms: C_4  and  C_6
REMARK    4  A    between atoms: C_6  and  C_7
REMARK    5  A    between atoms: N_11  and  C_12
REMARK    6  A    between atoms: C_12  and  C_13
REMARK    7  A    between atoms: C_16  and  C_17
REMARK                            x       y       z     vdW  Elec       q    Type
REMARK                         _______ _______ _______ _____ _____    ______ ____
ROOT
ATOM      1  C   UNL     1       1.645   3.995  19.604  0.00  0.00    +0.000 C 
ATOM      2  C   UNL     1       0.714   2.964  18.927  0.00  0.00    +0.000 C 
ATOM      3  C   UNL     1       0.775   4.933  20.459  0.00  0.00    +0.000 C 
ATOM      4  C   UNL     1       1.516   6.177  20.931  0.00  0.00    +0.000 C 
ATOM      5  C   UNL     1       2.241   6.875  19.783  0.00  0.00    +0.000 C 
ATOM      6  N   UNL     1       3.138   5.961  19.052  0.00  0.00    +0.000 NA
ATOM      7  C   UNL     1       2.367   4.812  18.503  0.00  0.00    +0.000 C 
ENDROOT
BRANCH   1   9
ATOM      8  N   UNL     1       3.842   2.865  19.853  0.00  0.00    +0.000 N 
ATOM      9  C   UNL     1       2.646   3.176  20.459  0.00  0.00    +0.000 C 
ATOM     10  O   UNL     1       2.399   2.841  21.616  0.00  0.00    +0.000 OA
ATOM     11  H   UNL     1       4.019   3.254  18.934  0.00  0.00    +0.000 HD
BRANCH   8  13
ATOM     12  C   UNL     1       4.940   0.686  19.754  0.00  0.00    +0.000 C 
ATOM     13  C   UNL     1       4.827   2.011  20.478  0.00  0.00    +0.000 C 
ENDBRANCH   8  13
ENDBRANCH   1   9
BRANCH   6  14
ATOM     14  C   UNL     1       3.807   6.732  17.973  0.00  0.00    +0.000 C 
BRANCH  14  15
ATOM     15  C   UNL     1       4.988   6.000  17.406  0.00  0.00    +0.000 A 
ATOM     16  C   UNL     1       6.046   5.455  18.108  0.00  0.00    +0.000 A 
ATOM     17  S   UNL     1       7.113   4.656  17.038  0.00  0.00    +0.000 S 
ATOM     18  C   UNL     1       6.104   5.084  15.706  0.00  0.00    +0.000 A 
ATOM     19  N   UNL     1       5.051   5.811  16.030  0.00  0.00    +0.000 NA
BRANCH  18  20
ATOM     20  C   UNL     1       6.448   4.691  14.329  0.00  0.00    +0.000 A 
ATOM     21  C   UNL     1       7.520   5.268  13.629  0.00  0.00    +0.000 A 
ATOM     22  C   UNL     1       7.806   4.890  12.313  0.00  0.00    +0.000 A 
ATOM     23  C   UNL     1       7.029   3.923  11.681  0.00  0.00    +0.000 A 
ATOM     24  C   UNL     1       5.979   3.318  12.368  0.00  0.00    +0.000 A 
ATOM     25  C   UNL     1       5.695   3.698  13.683  0.00  0.00    +0.000 A 
ENDBRANCH  18  20
ENDBRANCH  14  15
ENDBRANCH   6  14
TORSDOF 5
ENDMDL
MODEL 2
REMARK VINA RESULT:      -6.8      1.498      3.196
REMARK  Name = 
REMARK  7 active torsions:
REMARK  status: ('A' for Active; 'I' for Inactive)
REMARK    1  A    between atoms: C_1  and  C_2
REMARK    2  A    between atoms: C_2  and  N_3
REMARK    3  A    between atoms: C_4  and  C_6
REMARK    4  A    between atoms: C_6  and  C_7
REMARK    5  A    between atoms: N_11  and  C_12
REMARK    6  A    between atoms: C_12  and  C_13
REMARK    7  A    between atoms: C_16  and  C_17
REMARK                            x       y       z     vdW  Elec       q    Type
REMARK                         _______ _______ _______ _____ _____    ______ ____
ROOT
ATOM      1  C   UNL     1       1.976   3.148  20.578  0.00  0.00    +0.000 C 
ATOM      2  C   UNL     1       1.548   2.541  21.934  0.00  0.00    +0.000 C 
ATOM      3  C   UNL     1       1.455   2.229  19.459  0.00  0.00    +0.000 C 
ATOM      4  C   UNL     1       2.065   2.533  18.098  0.00  0.00    +0.000 C 
ATOM      5  C   UNL     1       3.588   2.628  18.166  0.00  0.00    +0.000 C 
ATOM      6  N   UNL     1       4.040   3.593  19.186  0.00  0.00    +0.000 NA
ATOM      7  C   UNL     1       3.524   3.206  20.527  0.00  0.00    +0.000 C 
ENDROOT
BRANCH   1   9
ATOM      8  N   UNL     1       2.233   5.617  20.518  0.00  0.00    +0.000 N 
ATOM      9  C   UNL     1       1.347   4.563  20.521  0.00  0.00    +0.000 C 
ATOM     10  O   UNL     1       0.132   4.738  20.459  0.00  0.00    +0.000 OA
ATOM     11  H   UNL     1       3.222   5.400  20.473  0.00  0.00    +0.000 HD
BRANCH   8  13
ATOM     12  C   UNL     1       2.205   7.754  19.337  0.00  0.00    +0.000 C 
ATOM     13  C   UNL     1       1.798   6.994  20.582  0.00  0.00    +0.000 C 
ENDBRANCH   8  13
ENDBRANCH   1   9
BRANCH   6  14
ATOM     14  C   UNL     1       5.525   3.627  19.165  0.00  0.00    +0.000 C 
BRANCH  14  15
ATOM     15  C   UNL     1       6.054   4.515  18.077  0.00  0.00    +0.000 A 
ATOM     16  C   UNL     1       6.589   5.780  18.220  0.00  0.00    +0.000 A 
ATOM     17  S   UNL     1       7.123   6.368  16.706  0.00  0.00    +0.000 S 
ATOM     18  C   UNL     1       6.609   4.905  15.952  0.00  0.00    +0.000 A 
ATOM     19  N   UNL     1       6.039   4.040  16.769  0.00  0.00    +0.000 NA
BRANCH  18  20
ATOM     20  C   UNL     1       6.769   4.694  14.502  0.00  0.00    +0.000 A 
ATOM     21  C   UNL     1       6.019   3.741  13.795  0.00  0.00    +0.000 A 
ATOM     22  C   UNL     1       6.212   3.549  12.423  0.00  0.00    +0.000 A 
ATOM     23  C   UNL     1       7.150   4.315  11.737  0.00  0.00    +0.000 A 
ATOM     24  C   UNL     1       7.884   5.285  12.415  0.00  0.00    +0.000 A 
ATOM     25  C   UNL     1       7.690   5.475  13.787  0.00  0.00    +0.000 A 
ENDBRANCH  18  20
ENDBRANCH  14  15
ENDBRANCH   6  14
TORSDOF 5
ENDMDL
MODEL 3
REMARK VINA RESULT:      -6.7      4.597      7.439
REMARK  Name = 
REMARK  7 active torsions:
REMARK  status: ('A' for Active; 'I' for Inactive)
REMARK    1  A    between atoms: C_1  and  C_2
REMARK    2  A    between atoms: C_2  and  N_3
REMARK    3  A    between atoms: C_4  and  C_6
REMARK    4  A    between atoms: C_6  and  C_7
REMARK    5  A    between atoms: N_11  and  C_12
REMARK    6  A    between atoms: C_12  and  C_13
REMARK    7  A    between atoms: C_16  and  C_17
REMARK                            x       y       z     vdW  Elec       q    Type
REMARK                         _______ _______ _______ _____ _____    ______ ____
ROOT
ATOM      1  C   UNL     1       3.000   4.616  18.502  0.00  0.00    +0.000 C 
ATOM      2  C   UNL     1       2.707   3.488  17.487  0.00  0.00    +0.000 C 
ATOM      3  C   UNL     1       2.004   4.479  19.668  0.00  0.00    +0.000 C 
ATOM      4  C   UNL     1       1.973   5.697  20.579  0.00  0.00    +0.000 C 
ATOM      5  C   UNL     1       1.828   6.995  19.788  0.00  0.00    +0.000 C 
ATOM      6  N   UNL     1       2.863   7.130  18.746  0.00  0.00    +0.000 NA
ATOM      7  C   UNL     1       2.796   5.982  17.800  0.00  0.00    +0.000 C 
ENDROOT
BRANCH   1   9
ATOM      8  N   UNL     1       5.339   5.438  18.639  0.00  0.00    +0.000 N 
ATOM      9  C   UNL     1       4.469   4.419  18.954  0.00  0.00    +0.000 C 
ATOM     10  O   UNL     1       4.835   3.424  19.577  0.00  0.00    +0.000 OA
ATOM     11  H   UNL     1       4.953   6.271  18.211  0.00  0.00    +0.000 HD
BRANCH   8  13
ATOM     12  C   UNL     1       7.491   4.763  17.701  0.00  0.00    +0.000 C 
ATOM     13  C   UNL     1       6.760   5.349  18.892  0.00  0.00    +0.000 C 
ENDBRANCH   8  13
ENDBRANCH   1   9
BRANCH   6  14
ATOM     14  C   UNL     1       2.650   8.423  18.046  0.00  0.00    +0.000 C 
BRANCH  14  15
ATOM     15  C   UNL     1       1.449   9.155  18.567  0.00  0.00    +0.000 A 
ATOM     16  C   UNL     1       1.299   9.730  19.815  0.00  0.00    +0.000 A 
ATOM     17  S   UNL     1      -0.215  10.516  19.923  0.00  0.00    +0.000 S 
ATOM     18  C   UNL     1      -0.581  10.044  18.305  0.00  0.00    +0.000 A 
ATOM     19  N   UNL     1       0.352   9.311  17.726  0.00  0.00    +0.000 NA
BRANCH  18  20
ATOM     20  C   UNL     1      -1.861  10.407  17.674  0.00  0.00    +0.000 A 
ATOM     21  C   UNL     1      -2.221   9.958  16.393  0.00  0.00    +0.000 A 
ATOM     22  C   UNL     1      -3.433  10.341  15.811  0.00  0.00    +0.000 A 
ATOM     23  C   UNL     1      -4.308  11.171  16.506  0.00  0.00    +0.000 A 
ATOM     24  C   UNL     1      -3.982  11.605  17.789  0.00  0.00    +0.000 A 
ATOM     25  C   UNL     1      -2.769  11.221  18.368  0.00  0.00    +0.000 A 
ENDBRANCH  18  20
ENDBRANCH  14  15
ENDBRANCH   6  14
TORSDOF 5
ENDMDL
MODEL 4
REMARK VINA RESULT:      -6.5      0.425      1.123
REMARK  Name = 
REMARK  7 active torsions:
REMARK  status: ('A' for Active; 'I' for Inactive)
REMARK    1  A    between atoms: C_1  and  C_2
REMARK    2  A    between atoms: C_2  and  N_3
REMARK    3  A    between atoms: C_4  and  C_6
REMARK    4  A    between atoms: C_6  and  C_7
REMARK    5  A    between atoms: N_11  and  C_12
REMARK    6  A    between atoms: C_12  and  C_13
REMARK    7  A    between atoms: C_16  and  C_17
REMARK                            x       y       z     vdW  Elec       q    Type
REMARK                         _______ _______ _______ _____ _____    ______ ____
ROOT
ATOM      1  C   UNL     1       1.518   3.680  19.358  0.00  0.00    +0.000 C 
ATOM      2  C   UNL     1       0.473   2.827  18.602  0.00  0.00    +0.000 C 
ATOM      3  C   UNL     1       0.774   4.517  20.414  0.00  0.00    +0.000 C 
ATOM      4  C   UNL     1       1.629   5.623  21.016  0.00  0.00    +0.000 C 
ATOM      5  C   UNL     1       2.323   6.454  19.939  0.00  0.00    +0.000 C 
ATOM      6  N   UNL     1       3.103   5.619  19.007  0.00  0.00    +0.000 NA
ATOM      7  C   UNL     1       2.219   4.620  18.346  0.00  0.00    +0.000 C 
ENDROOT
BRANCH   1   9
ATOM      8  N   UNL     1       3.536   2.245  19.180  0.00  0.00    +0.000 N 
ATOM      9  C   UNL     1       2.514   2.677  19.994  0.00  0.00    +0.000 C 
ATOM     10  O   UNL     1       2.413   2.305  21.162  0.00  0.00    +0.000 OA
ATOM     11  H   UNL     1       3.615   2.665  18.261  0.00  0.00    +0.000 HD
BRANCH   8  13
ATOM     12  C   UNL     1       5.195   1.626  20.862  0.00  0.00    +0.000 C 
ATOM     13  C   UNL     1       4.475   1.225  19.591  0.00  0.00    +0.000 C 
ENDBRANCH   8  13
ENDBRANCH   1   9
BRANCH   6  14
ATOM     14  C   UNL     1       3.750   6.514  18.013  0.00  0.00    +0.000 C 
BRANCH  14  15
ATOM     15  C   UNL     1       4.967   5.888  17.399  0.00  0.00    +0.000 A 
ATOM     16  C   UNL     1       6.115   5.481  18.053  0.00  0.00    +0.000 A 
ATOM     17  S   UNL     1       7.198   4.758  16.946  0.00  0.00    +0.000 S 
ATOM     18  C   UNL     1       6.077   5.030  15.664  0.00  0.00    +0.000 A 
ATOM     19  N   UNL     1       4.973   5.657  16.028  0.00  0.00    +0.000 NA
BRANCH  18  20
ATOM     20  C   UNL     1       6.382   4.625  14.281  0.00  0.00    +0.000 A 
ATOM     21  C   UNL     1       5.616   3.672  13.591  0.00  0.00    +0.000 A 
ATOM     22  C   UNL     1       5.948   3.292  12.287  0.00  0.00    +0.000 A 
ATOM     23  C   UNL     1       7.045   3.866  11.651  0.00  0.00    +0.000 A 
ATOM     24  C   UNL     1       7.801   4.834  12.308  0.00  0.00    +0.000 A 
ATOM     25  C   UNL     1       7.468   5.212  13.613  0.00  0.00    +0.000 A 
ENDBRANCH  18  20
ENDBRANCH  14  15
ENDBRANCH   6  14
TORSDOF 5
ENDMDL
MODEL 5
REMARK VINA RESULT:      -6.5      2.214      4.506
REMARK  Name = 
REMARK  7 active torsions:
REMARK  status: ('A' for Active; 'I' for Inactive)
REMARK    1  A    between atoms: C_1  and  C_2
REMARK    2  A    between atoms: C_2  and  N_3
REMARK    3  A    between atoms: C_4  and  C_6
REMARK    4  A    between atoms: C_6  and  C_7
REMARK    5  A    between atoms: N_11  and  C_12
REMARK    6  A    between atoms: C_12  and  C_13
REMARK    7  A    between atoms: C_16  and  C_17
REMARK                            x       y       z     vdW  Elec       q    Type
REMARK                         _______ _______ _______ _____ _____    ______ ____
ROOT
ATOM      1  C   UNL     1       2.030   3.738  20.490  0.00  0.00    +0.000 C 
ATOM      2  C   UNL     1       2.241   3.474  21.998  0.00  0.00    +0.000 C 
ATOM      3  C   UNL     1       0.729   3.035  20.061  0.00  0.00    +0.000 C 
ATOM      4  C   UNL     1       0.562   2.949  18.550  0.00  0.00    +0.000 C 
ATOM      5  C   UNL     1       1.816   2.406  17.870  0.00  0.00    +0.000 C 
ATOM      6  N   UNL     1       3.023   3.171  18.234  0.00  0.00    +0.000 NA
ATOM      7  C   UNL     1       3.227   3.141  19.708  0.00  0.00    +0.000 C 
ENDROOT
BRANCH   1   9
ATOM      8  N   UNL     1       2.697   5.816  19.305  0.00  0.00    +0.000 N 
ATOM      9  C   UNL     1       1.950   5.277  20.329  0.00  0.00    +0.000 C 
ATOM     10  O   UNL     1       1.246   5.976  21.055  0.00  0.00    +0.000 OA
ATOM     11  H   UNL     1       3.177   5.174  18.686  0.00  0.00    +0.000 HD
BRANCH   8  13
ATOM     12  C   UNL     1       3.222   7.557  17.676  0.00  0.00    +0.000 C 
ATOM     13  C   UNL     1       2.815   7.242  19.101  0.00  0.00    +0.000 C 
ENDBRANCH   8  13
ENDBRANCH   1   9
BRANCH   6  14
ATOM     14  C   UNL     1       4.181   2.581  17.513  0.00  0.00    +0.000 C 
BRANCH  14  15
ATOM     15  C   UNL     1       5.041   3.630  16.874  0.00  0.00    +0.000 A 
ATOM     16  C   UNL     1       5.276   3.806  15.524  0.00  0.00    +0.000 A 
ATOM     17  S   UNL     1       6.264   5.178  15.272  0.00  0.00    +0.000 S 
ATOM     18  C   UNL     1       6.320   5.455  16.974  0.00  0.00    +0.000 A 
ATOM     19  N   UNL     1       5.673   4.558  17.694  0.00  0.00    +0.000 NA
BRANCH  18  20
ATOM     20  C   UNL     1       7.079   6.583  17.540  0.00  0.00    +0.000 A 
ATOM     21  C   UNL     1       7.042   7.870  16.980  0.00  0.00    +0.000 A 
ATOM     22  C   UNL     1       7.793   8.914  17.528  0.00  0.00    +0.000 A 
ATOM     23  C   UNL     1       8.586   8.689  18.650  0.00  0.00    +0.000 A 
ATOM     24  C   UNL     1       8.614   7.426  19.237  0.00  0.00    +0.000 A 
ATOM     25  C   UNL     1       7.863   6.383  18.687  0.00  0.00    +0.000 A 
ENDBRANCH  18  20
ENDBRANCH  14  15
ENDBRANCH   6  14
TORSDOF 5
ENDMDL
MODEL 6
REMARK VINA RESULT:      -6.4      5.178      7.683
REMARK  Name = 
REMARK  7 active torsions:
REMARK  status: ('A' for Active; 'I' for Inactive)
REMARK    1  A    between atoms: C_1  and  C_2
REMARK    2  A    between atoms: C_2  and  N_3
REMARK    3  A    between atoms: C_4  and  C_6
REMARK    4  A    between atoms: C_6  and  C_7
REMARK    5  A    between atoms: N_11  and  C_12
REMARK    6  A    between atoms: C_12  and  C_13
REMARK    7  A    between atoms: C_16  and  C_17
REMARK                            x       y       z     vdW  Elec       q    Type
REMARK                         _______ _______ _______ _____ _____    ______ ____
ROOT
ATOM      1  C   UNL     1      -0.378  12.468  21.494  0.00  0.00    +0.000 C 
ATOM      2  C   UNL     1       0.361  13.821  21.388  0.00  0.00    +0.000 C 
ATOM      3  C   UNL     1      -1.086  12.417  22.859  0.00  0.00    +0.000 C 
ATOM      4  C   UNL     1      -1.590  11.028  23.225  0.00  0.00    +0.000 C 
ATOM      5  C   UNL     1      -0.507   9.966  23.045  0.00  0.00    +0.000 C 
ATOM      6  N   UNL     1       0.075   9.987  21.690  0.00  0.00    +0.000 NA
ATOM      7  C   UNL     1       0.663  11.325  21.403  0.00  0.00    +0.000 C 
ENDROOT
BRANCH   1   9
ATOM      8  N   UNL     1      -0.910  11.861  19.145  0.00  0.00    +0.000 N 
ATOM      9  C   UNL     1      -1.377  12.429  20.309  0.00  0.00    +0.000 C 
ATOM     10  O   UNL     1      -2.525  12.857  20.406  0.00  0.00    +0.000 OA
ATOM     11  H   UNL     1       0.013  11.442  19.164  0.00  0.00    +0.000 HD
BRANCH   8  13
ATOM     12  C   UNL     1      -2.050  10.443  17.517  0.00  0.00    +0.000 C 
ATOM     13  C   UNL     1      -1.681  11.855  17.923  0.00  0.00    +0.000 C 
ENDBRANCH   8  13
ENDBRANCH   1   9
BRANCH   6  14
ATOM     14  C   UNL     1       1.100   8.915  21.609  0.00  0.00    +0.000 C 
BRANCH  14  15
ATOM     15  C   UNL     1       1.484   8.609  20.192  0.00  0.00    +0.000 A 
ATOM     16  C   UNL     1       1.329   9.428  19.090  0.00  0.00    +0.000 A 
ATOM     17  S   UNL     1       1.982   8.677  17.701  0.00  0.00    +0.000 S 
ATOM     18  C   UNL     1       2.431   7.307  18.647  0.00  0.00    +0.000 A 
ATOM     19  N   UNL     1       2.084   7.384  19.918  0.00  0.00    +0.000 NA
BRANCH  18  20
ATOM     20  C   UNL     1       3.103   6.146  18.040  0.00  0.00    +0.000 A 
ATOM     21  C   UNL     1       4.349   6.249  17.399  0.00  0.00    +0.000 A 
ATOM     22  C   UNL     1       4.949   5.131  16.812  0.00  0.00    +0.000 A 
ATOM     23  C   UNL     1       4.317   3.892  16.864  0.00  0.00    +0.000 A 
ATOM     24  C   UNL     1       3.095   3.763  17.519  0.00  0.00    +0.000 A 
ATOM     25  C   UNL     1       2.496   4.882  18.105  0.00  0.00    +0.000 A 
ENDBRANCH  18  20
ENDBRANCH  14  15
ENDBRANCH   6  14
TORSDOF 5
ENDMDL
MODEL 7
REMARK VINA RESULT:      -6.4      2.224      4.579
REMARK  Name = 
REMARK  7 active torsions:
REMARK  status: ('A' for Active; 'I' for Inactive)
REMARK    1  A    between atoms: C_1  and  C_2
REMARK    2  A    between atoms: C_2  and  N_3
REMARK    3  A    between atoms: C_4  and  C_6
REMARK    4  A    between atoms: C_6  and  C_7
REMARK    5  A    between atoms: N_11  and  C_12
REMARK    6  A    between atoms: C_12  and  C_13
REMARK    7  A    between atoms: C_16  and  C_17
REMARK                            x       y       z     vdW  Elec       q    Type
REMARK                         _______ _______ _______ _____ _____    ______ ____
ROOT
ATOM      1  C   UNL     1       2.153   3.921  20.400  0.00  0.00    +0.000 C 
ATOM      2  C   UNL     1       2.449   3.858  21.915  0.00  0.00    +0.000 C 
ATOM      3  C   UNL     1       0.897   3.075  20.125  0.00  0.00    +0.000 C 
ATOM      4  C   UNL     1       0.672   2.796  18.645  0.00  0.00    +0.000 C 
ATOM      5  C   UNL     1       1.936   2.271  17.968  0.00  0.00    +0.000 C 
ATOM      6  N   UNL     1       3.091   3.163  18.177  0.00  0.00    +0.000 NA
ATOM      7  C   UNL     1       3.360   3.327  19.632  0.00  0.00    +0.000 C 
ENDROOT
BRANCH   1   9
ATOM      8  N   UNL     1       2.310   5.811  18.798  0.00  0.00    +0.000 N 
ATOM      9  C   UNL     1       1.941   5.419  20.064  0.00  0.00    +0.000 C 
ATOM     10  O   UNL     1       1.452   6.209  20.870  0.00  0.00    +0.000 OA
ATOM     11  H   UNL     1       2.616   5.092  18.153  0.00  0.00    +0.000 HD
BRANCH   8  13
ATOM     12  C   UNL     1       3.528   7.553  17.594  0.00  0.00    +0.000 C 
ATOM     13  C   UNL     1       2.281   7.193  18.375  0.00  0.00    +0.000 C 
ENDBRANCH   8  13
ENDBRANCH   1   9
BRANCH   6  14
ATOM     14  C   UNL     1       4.261   2.580  17.471  0.00  0.00    +0.000 C 
BRANCH  14  15
ATOM     15  C   UNL     1       5.131   3.635  16.855  0.00  0.00    +0.000 A 
ATOM     16  C   UNL     1       5.370   3.837  15.509  0.00  0.00    +0.000 A 
ATOM     17  S   UNL     1       6.370   5.206  15.288  0.00  0.00    +0.000 S 
ATOM     18  C   UNL     1       6.426   5.447  16.995  0.00  0.00    +0.000 A 
ATOM     19  N   UNL     1       5.770   4.541  17.696  0.00  0.00    +0.000 NA
BRANCH  18  20
ATOM     20  C   UNL     1       7.193   6.556  17.586  0.00  0.00    +0.000 A 
ATOM     21  C   UNL     1       7.956   6.403  18.755  0.00  0.00    +0.000 A 
ATOM     22  C   UNL     1       8.653   7.483  19.305  0.00  0.00    +0.000 A 
ATOM     23  C   UNL     1       8.606   8.730  18.688  0.00  0.00    +0.000 A 
ATOM     24  C   UNL     1       7.878   8.896  17.512  0.00  0.00    +0.000 A 
ATOM     25  C   UNL     1       7.180   7.815  16.964  0.00  0.00    +0.000 A 
ENDBRANCH  18  20
ENDBRANCH  14  15
ENDBRANCH   6  14
TORSDOF 5
ENDMDL
MODEL 8
REMARK VINA RESULT:      -6.3      1.500      3.077
REMARK  Name = 
REMARK  7 active torsions:
REMARK  status: ('A' for Active; 'I' for Inactive)
REMARK    1  A    between atoms: C_1  and  C_2
REMARK    2  A    between atoms: C_2  and  N_3
REMARK    3  A    between atoms: C_4  and  C_6
REMARK    4  A    between atoms: C_6  and  C_7
REMARK    5  A    between atoms: N_11  and  C_12
REMARK    6  A    between atoms: C_12  and  C_13
REMARK    7  A    between atoms: C_16  and  C_17
REMARK                            x       y       z     vdW  Elec       q    Type
REMARK                         _______ _______ _______ _____ _____    ______ ____
ROOT
ATOM      1  C   UNL     1       2.024   3.974  20.654  0.00  0.00    +0.000 C 
ATOM      2  C   UNL     1       2.296   3.943  22.175  0.00  0.00    +0.000 C 
ATOM      3  C   UNL     1       0.727   3.189  20.387  0.00  0.00    +0.000 C 
ATOM      4  C   UNL     1       0.507   2.875  18.913  0.00  0.00    +0.000 C 
ATOM      5  C   UNL     1       1.749   2.262  18.271  0.00  0.00    +0.000 C 
ATOM      6  N   UNL     1       2.949   3.097  18.469  0.00  0.00    +0.000 NA
ATOM      7  C   UNL     1       3.207   3.292  19.923  0.00  0.00    +0.000 C 
ENDROOT
BRANCH   1   9
ATOM      8  N   UNL     1       2.418   5.824  19.045  0.00  0.00    +0.000 N 
ATOM      9  C   UNL     1       1.898   5.470  20.269  0.00  0.00    +0.000 C 
ATOM     10  O   UNL     1       1.347   6.291  21.001  0.00  0.00    +0.000 OA
ATOM     11  H   UNL     1       2.771   5.081  18.452  0.00  0.00    +0.000 HD
BRANCH   8  13
ATOM     12  C   UNL     1       3.607   7.398  17.605  0.00  0.00    +0.000 C 
ATOM     13  C   UNL     1       2.480   7.196  18.597  0.00  0.00    +0.000 C 
ENDBRANCH   8  13
ENDBRANCH   1   9
BRANCH   6  14
ATOM     14  C   UNL     1       4.094   2.429  17.799  0.00  0.00    +0.000 C 
BRANCH  14  15
ATOM     15  C   UNL     1       5.053   3.417  17.205  0.00  0.00    +0.000 A 
ATOM     16  C   UNL     1       5.771   4.389  17.875  0.00  0.00    +0.000 A 
ATOM     17  S   UNL     1       6.789   5.226  16.786  0.00  0.00    +0.000 S 
ATOM     18  C   UNL     1       6.212   4.247  15.488  0.00  0.00    +0.000 A 
ATOM     19  N   UNL     1       5.288   3.370  15.835  0.00  0.00    +0.000 NA
BRANCH  18  20
ATOM     20  C   UNL     1       6.701   4.436  14.112  0.00  0.00    +0.000 A 
ATOM     21  C   UNL     1       7.657   5.410  13.781  0.00  0.00    +0.000 A 
ATOM     22  C   UNL     1       8.082   5.581  12.460  0.00  0.00    +0.000 A 
ATOM     23  C   UNL     1       7.565   4.773  11.452  0.00  0.00    +0.000 A 
ATOM     24  C   UNL     1       6.637   3.781  11.763  0.00  0.00    +0.000 A 
ATOM     25  C   UNL     1       6.212   3.613  13.085  0.00  0.00    +0.000 A 
ENDBRANCH  18  20
ENDBRANCH  14  15
ENDBRANCH   6  14
TORSDOF 5
ENDMDL
MODEL 9
REMARK VINA RESULT:      -6.3      1.153      1.332
REMARK  Name = 
REMARK  7 active torsions:
REMARK  status: ('A' for Active; 'I' for Inactive)
REMARK    1  A    between atoms: C_1  and  C_2
REMARK    2  A    between atoms: C_2  and  N_3
REMARK    3  A    between atoms: C_4  and  C_6
REMARK    4  A    between atoms: C_6  and  C_7
REMARK    5  A    between atoms: N_11  and  C_12
REMARK    6  A    between atoms: C_12  and  C_13
REMARK    7  A    between atoms: C_16  and  C_17
REMARK                            x       y       z     vdW  Elec       q    Type
REMARK                         _______ _______ _______ _____ _____    ______ ____
ROOT
ATOM      1  C   UNL     1       2.879   2.638  19.517  0.00  0.00    +0.000 C 
ATOM      2  C   UNL     1       2.891   1.378  18.622  0.00  0.00    +0.000 C 
ATOM      3  C   UNL     1       1.412   3.020  19.783  0.00  0.00    +0.000 C 
ATOM      4  C   UNL     1       1.251   4.409  20.386  0.00  0.00    +0.000 C 
ATOM      5  C   UNL     1       2.036   5.461  19.606  0.00  0.00    +0.000 C 
ATOM      6  N   UNL     1       3.458   5.100  19.460  0.00  0.00    +0.000 NA
ATOM      7  C   UNL     1       3.589   3.790  18.763  0.00  0.00    +0.000 C 
ENDROOT
BRANCH   1   9
ATOM      8  N   UNL     1       4.814   1.566  20.645  0.00  0.00    +0.000 N 
ATOM      9  C   UNL     1       3.633   2.252  20.815  0.00  0.00    +0.000 C 
ATOM     10  O   UNL     1       3.216   2.557  21.931  0.00  0.00    +0.000 OA
ATOM     11  H   UNL     1       5.147   1.431  19.697  0.00  0.00    +0.000 HD
BRANCH   8  13
ATOM     12  C   UNL     1       6.205  -0.291  21.406  0.00  0.00    +0.000 C 
ATOM     13  C   UNL     1       5.570   1.038  21.758  0.00  0.00    +0.000 C 
ENDBRANCH   8  13
ENDBRANCH   1   9
BRANCH   6  14
ATOM     14  C   UNL     1       4.137   6.185  18.707  0.00  0.00    +0.000 C 
BRANCH  14  15
ATOM     15  C   UNL     1       5.346   5.690  17.970  0.00  0.00    +0.000 A 
ATOM     16  C   UNL     1       6.566   5.334  18.513  0.00  0.00    +0.000 A 
ATOM     17  S   UNL     1       7.611   4.760  17.288  0.00  0.00    +0.000 S 
ATOM     18  C   UNL     1       6.379   5.019  16.109  0.00  0.00    +0.000 A 
ATOM     19  N   UNL     1       5.264   5.538  16.589  0.00  0.00    +0.000 NA
BRANCH  18  20
ATOM     20  C   UNL     1       6.607   4.718  14.685  0.00  0.00    +0.000 A 
ATOM     21  C   UNL     1       7.596   5.368  13.929  0.00  0.00    +0.000 A 
ATOM     22  C   UNL     1       7.770   5.076  12.573  0.00  0.00    +0.000 A 
ATOM     23  C   UNL     1       6.965   4.124  11.955  0.00  0.00    +0.000 A 
ATOM     24  C   UNL     1       5.997   3.448  12.694  0.00  0.00    +0.000 A 
ATOM     25  C   UNL     1       5.823   3.742  14.050  0.00  0.00    +0.000 A 
ENDBRANCH  18  20
ENDBRANCH  14  15
ENDBRANCH   6  14
TORSDOF 5
ENDMDL
