MODEL 1
REMARK VINA RESULT:      -7.7      0.000      0.000
REMARK  Name = 
REMARK  5 active torsions:
REMARK  status: ('A' for Active; 'I' for Inactive)
REMARK    1  A    between atoms: C_2  and  C_3
REMARK    2  A    between atoms: C_3  and  C_4
REMARK    3  A    between atoms: C_9  and  C_10
REMARK    4  A    between atoms: C_20  and  O_21
REMARK    5  A    between atoms: C_23  and  O_24
REMARK                            x       y       z     vdW  Elec       q    Type
REMARK                         _______ _______ _______ _____ _____    ______ ____
ROOT
ATOM      1  O   UNL     1       2.933   7.956  17.120  0.00  0.00    +0.000 OA
ATOM      2  C   UNL     1       3.726   7.321  17.815  0.00  0.00    +0.000 C 
ATOM      3  N   UNL     1       3.312   6.442  18.816  0.00  0.00    +0.000 N 
ATOM      4  C   UNL     1       1.887   6.313  19.094  0.00  0.00    +0.000 C 
ATOM      5  C   UNL     1       1.349   5.036  18.451  0.00  0.00    +0.000 C 
ATOM      6  C   UNL     1       2.169   3.817  18.939  0.00  0.00    +0.000 C 
ATOM      7  C   UNL     1       3.663   4.032  18.652  0.00  0.00    +0.000 C 
ATOM      8  C   UNL     1       4.130   5.329  19.307  0.00  0.00    +0.000 C 
ATOM      9  C   UNL     1       1.593   2.460  18.427  0.00  0.00    +0.000 C 
ATOM     10  C   UNL     1       0.830   2.324  19.762  0.00  0.00    +0.000 C 
ATOM     11  C   UNL     1       1.798   3.352  20.386  0.00  0.00    +0.000 C 
ENDROOT
BRANCH   9  12
ATOM     12  O   UNL     1       2.527   1.399  18.130  0.00  0.00    +0.000 OA
ATOM     13  H   UNL     1       2.010   0.599  17.983  0.00  0.00    +0.000 HD
ENDBRANCH   9  12
BRANCH  11  14
ATOM     14  O   UNL     1       2.877   2.827  21.188  0.00  0.00    +0.000 OA
ATOM     15  H   UNL     1       2.471   2.296  21.893  0.00  0.00    +0.000 HD
ENDBRANCH  11  14
BRANCH   2  16
ATOM     16  C   UNL     1       5.232   7.428  17.635  0.00  0.00    +0.000 C 
BRANCH  16  17
ATOM     17  C   UNL     1       5.882   6.332  16.823  0.00  0.00    +0.000 A 
ATOM     18  C   UNL     1       5.332   6.053  15.558  0.00  0.00    +0.000 A 
ATOM     19  C   UNL     1       5.783   4.982  14.798  0.00  0.00    +0.000 A 
ATOM     20  C   UNL     1       6.785   4.158  15.295  0.00  0.00    +0.000 A 
ATOM     21  C   UNL     1       7.372   4.442  16.525  0.00  0.00    +0.000 A 
ATOM     22  C   UNL     1       6.962   5.553  17.294  0.00  0.00    +0.000 A 
BRANCH  22  23
ATOM     23  C   UNL     1       7.735   5.817  18.571  0.00  0.00    +0.000 C 
ATOM     24  F   UNL     1       8.385   7.010  18.626  0.00  0.00    +0.000 F 
ATOM     25  F   UNL     1       6.931   5.788  19.674  0.00  0.00    +0.000 F 
ATOM     26  F   UNL     1       8.692   4.872  18.796  0.00  0.00    +0.000 F 
ENDBRANCH  22  23
ENDBRANCH  16  17
ENDBRANCH   2  16
TORSDOF 5
ENDMDL
MODEL 2
REMARK VINA RESULT:      -7.7      3.684      6.149
REMARK  Name = 
REMARK  5 active torsions:
REMARK  status: ('A' for Active; 'I' for Inactive)
REMARK    1  A    between atoms: C_2  and  C_3
REMARK    2  A    between atoms: C_3  and  C_4
REMARK    3  A    between atoms: C_9  and  C_10
REMARK    4  A    between atoms: C_20  and  O_21
REMARK    5  A    between atoms: C_23  and  O_24
REMARK                            x       y       z     vdW  Elec       q    Type
REMARK                         _______ _______ _______ _____ _____    ______ ____
ROOT
ATOM      1  O   UNL     1       1.250   4.688  19.429  0.00  0.00    +0.000 OA
ATOM      2  C   UNL     1       2.279   5.309  19.692  0.00  0.00    +0.000 C 
ATOM      3  N   UNL     1       3.544   4.870  19.298  0.00  0.00    +0.000 N 
ATOM      4  C   UNL     1       3.660   3.596  18.599  0.00  0.00    +0.000 C 
ATOM      5  C   UNL     1       3.834   3.842  17.101  0.00  0.00    +0.000 C 
ATOM      6  C   UNL     1       5.047   4.773  16.860  0.00  0.00    +0.000 C 
ATOM      7  C   UNL     1       4.881   6.079  17.651  0.00  0.00    +0.000 C 
ATOM      8  C   UNL     1       4.696   5.761  19.132  0.00  0.00    +0.000 C 
ATOM      9  C   UNL     1       5.366   4.963  15.344  0.00  0.00    +0.000 C 
ATOM     10  C   UNL     1       6.414   3.835  15.463  0.00  0.00    +0.000 C 
ATOM     11  C   UNL     1       6.428   4.049  16.992  0.00  0.00    +0.000 C 
ENDROOT
BRANCH   9  12
ATOM     12  O   UNL     1       5.876   6.245  14.917  0.00  0.00    +0.000 OA
ATOM     13  H   UNL     1       5.738   6.304  13.965  0.00  0.00    +0.000 HD
ENDBRANCH   9  12
BRANCH  11  14
ATOM     14  O   UNL     1       7.514   4.831  17.530  0.00  0.00    +0.000 OA
ATOM     15  H   UNL     1       7.133   5.414  18.207  0.00  0.00    +0.000 HD
ENDBRANCH  11  14
BRANCH   2  16
ATOM     16  C   UNL     1       2.265   6.620  20.460  0.00  0.00    +0.000 C 
BRANCH  16  17
ATOM     17  C   UNL     1       1.812   7.837  19.687  0.00  0.00    +0.000 A 
ATOM     18  C   UNL     1       2.245   7.953  18.354  0.00  0.00    +0.000 A 
ATOM     19  C   UNL     1       1.984   9.097  17.609  0.00  0.00    +0.000 A 
ATOM     20  C   UNL     1       1.297  10.155  18.190  0.00  0.00    +0.000 A 
ATOM     21  C   UNL     1       0.823  10.043  19.494  0.00  0.00    +0.000 A 
ATOM     22  C   UNL     1       1.036   8.872  20.254  0.00  0.00    +0.000 A 
BRANCH  22  23
ATOM     23  C   UNL     1       0.395   8.828  21.627  0.00  0.00    +0.000 C 
ATOM     24  F   UNL     1       1.254   8.683  22.671  0.00  0.00    +0.000 F 
ATOM     25  F   UNL     1      -0.319   9.960  21.897  0.00  0.00    +0.000 F 
ATOM     26  F   UNL     1      -0.495   7.801  21.745  0.00  0.00    +0.000 F 
ENDBRANCH  22  23
ENDBRANCH  16  17
ENDBRANCH   2  16
TORSDOF 5
ENDMDL
MODEL 3
REMARK VINA RESULT:      -7.0      2.777      3.522
REMARK  Name = 
REMARK  5 active torsions:
REMARK  status: ('A' for Active; 'I' for Inactive)
REMARK    1  A    between atoms: C_2  and  C_3
REMARK    2  A    between atoms: C_3  and  C_4
REMARK    3  A    between atoms: C_9  and  C_10
REMARK    4  A    between atoms: C_20  and  O_21
REMARK    5  A    between atoms: C_23  and  O_24
REMARK                            x       y       z     vdW  Elec       q    Type
REMARK                         _______ _______ _______ _____ _____    ______ ____
ROOT
ATOM      1  O   UNL     1       5.165   6.943  15.560  0.00  0.00    +0.000 OA
ATOM      2  C   UNL     1       5.637   5.953  16.118  0.00  0.00    +0.000 C 
ATOM      3  N   UNL     1       5.175   5.492  17.351  0.00  0.00    +0.000 N 
ATOM      4  C   UNL     1       4.132   6.245  18.037  0.00  0.00    +0.000 C 
ATOM      5  C   UNL     1       2.783   5.555  17.843  0.00  0.00    +0.000 C 
ATOM      6  C   UNL     1       2.873   4.084  18.316  0.00  0.00    +0.000 C 
ATOM      7  C   UNL     1       4.012   3.358  17.585  0.00  0.00    +0.000 C 
ATOM      8  C   UNL     1       5.323   4.107  17.806  0.00  0.00    +0.000 C 
ATOM      9  C   UNL     1       1.495   3.352  18.271  0.00  0.00    +0.000 C 
ATOM     10  C   UNL     1       1.309   3.692  19.765  0.00  0.00    +0.000 C 
ATOM     11  C   UNL     1       2.832   3.924  19.872  0.00  0.00    +0.000 C 
ENDROOT
BRANCH   9  12
ATOM     12  O   UNL     1       1.489   1.945  17.945  0.00  0.00    +0.000 OA
ATOM     13  H   UNL     1       0.619   1.741  17.584  0.00  0.00    +0.000 HD
ENDBRANCH   9  12
BRANCH  11  14
ATOM     14  O   UNL     1       3.617   2.849  20.429  0.00  0.00    +0.000 OA
ATOM     15  H   UNL     1       3.007   2.287  20.935  0.00  0.00    +0.000 HD
ENDBRANCH  11  14
BRANCH   2  16
ATOM     16  C   UNL     1       6.761   5.133  15.506  0.00  0.00    +0.000 C 
BRANCH  16  17
ATOM     17  C   UNL     1       6.500   4.576  14.125  0.00  0.00    +0.000 A 
ATOM     18  C   UNL     1       5.366   3.760  13.962  0.00  0.00    +0.000 A 
ATOM     19  C   UNL     1       5.119   3.103  12.763  0.00  0.00    +0.000 A 
ATOM     20  C   UNL     1       6.010   3.238  11.707  0.00  0.00    +0.000 A 
ATOM     21  C   UNL     1       7.116   4.076  11.834  0.00  0.00    +0.000 A 
ATOM     22  C   UNL     1       7.362   4.789  13.026  0.00  0.00    +0.000 A 
BRANCH  22  23
ATOM     23  C   UNL     1       8.543   5.739  13.017  0.00  0.00    +0.000 C 
ATOM     24  F   UNL     1       8.693   6.498  14.136  0.00  0.00    +0.000 F 
ATOM     25  F   UNL     1       9.730   5.084  12.859  0.00  0.00    +0.000 F 
ATOM     26  F   UNL     1       8.479   6.627  11.983  0.00  0.00    +0.000 F 
ENDBRANCH  22  23
ENDBRANCH  16  17
ENDBRANCH   2  16
TORSDOF 5
ENDMDL
MODEL 4
REMARK VINA RESULT:      -7.0      4.098      6.473
REMARK  Name = 
REMARK  5 active torsions:
REMARK  status: ('A' for Active; 'I' for Inactive)
REMARK    1  A    between atoms: C_2  and  C_3
REMARK    2  A    between atoms: C_3  and  C_4
REMARK    3  A    between atoms: C_9  and  C_10
REMARK    4  A    between atoms: C_20  and  O_21
REMARK    5  A    between atoms: C_23  and  O_24
REMARK                            x       y       z     vdW  Elec       q    Type
REMARK                         _______ _______ _______ _____ _____    ______ ____
ROOT
ATOM      1  O   UNL     1       2.232   7.434  20.340  0.00  0.00    +0.000 OA
ATOM      2  C   UNL     1       2.110   7.961  19.236  0.00  0.00    +0.000 C 
ATOM      3  N   UNL     1       1.191   8.981  18.986  0.00  0.00    +0.000 N 
ATOM      4  C   UNL     1       0.296   9.399  20.059  0.00  0.00    +0.000 C 
ATOM      5  C   UNL     1       0.806  10.699  20.680  0.00  0.00    +0.000 C 
ATOM      6  C   UNL     1       0.971  11.776  19.581  0.00  0.00    +0.000 C 
ATOM      7  C   UNL     1       1.892  11.261  18.465  0.00  0.00    +0.000 C 
ATOM      8  C   UNL     1       1.335   9.956  17.902  0.00  0.00    +0.000 C 
ATOM      9  C   UNL     1       1.363  13.171  20.161  0.00  0.00    +0.000 C 
ATOM     10  C   UNL     1      -0.132  13.556  20.140  0.00  0.00    +0.000 C 
ATOM     11  C   UNL     1      -0.381  12.419  19.127  0.00  0.00    +0.000 C 
ENDROOT
BRANCH   9  12
ATOM     12  O   UNL     1       2.235  14.009  19.372  0.00  0.00    +0.000 OA
ATOM     13  H   UNL     1       2.998  14.222  19.920  0.00  0.00    +0.000 HD
ENDBRANCH   9  12
BRANCH  11  14
ATOM     14  O   UNL     1      -0.479  12.794  17.737  0.00  0.00    +0.000 OA
ATOM     15  H   UNL     1      -0.455  13.764  17.705  0.00  0.00    +0.000 HD
ENDBRANCH  11  14
BRANCH   2  16
ATOM     16  C   UNL     1       2.961   7.559  18.042  0.00  0.00    +0.000 C 
BRANCH  16  17
ATOM     17  C   UNL     1       3.000   6.082  17.723  0.00  0.00    +0.000 A 
ATOM     18  C   UNL     1       1.892   5.308  18.114  0.00  0.00    +0.000 A 
ATOM     19  C   UNL     1       1.896   3.926  17.977  0.00  0.00    +0.000 A 
ATOM     20  C   UNL     1       3.016   3.288  17.458  0.00  0.00    +0.000 A 
ATOM     21  C   UNL     1       4.106   4.040  17.026  0.00  0.00    +0.000 A 
ATOM     22  C   UNL     1       4.105   5.448  17.113  0.00  0.00    +0.000 A 
BRANCH  22  23
ATOM     23  C   UNL     1       5.306   6.164  16.527  0.00  0.00    +0.000 C 
ATOM     24  F   UNL     1       6.000   6.949  17.394  0.00  0.00    +0.000 F 
ATOM     25  F   UNL     1       6.222   5.295  16.009  0.00  0.00    +0.000 F 
ATOM     26  F   UNL     1       4.960   6.985  15.494  0.00  0.00    +0.000 F 
ENDBRANCH  22  23
ENDBRANCH  16  17
ENDBRANCH   2  16
TORSDOF 5
ENDMDL
MODEL 5
REMARK VINA RESULT:      -6.8      4.675      6.480
REMARK  Name = 
REMARK  5 active torsions:
REMARK  status: ('A' for Active; 'I' for Inactive)
REMARK    1  A    between atoms: C_2  and  C_3
REMARK    2  A    between atoms: C_3  and  C_4
REMARK    3  A    between atoms: C_9  and  C_10
REMARK    4  A    between atoms: C_20  and  O_21
REMARK    5  A    between atoms: C_23  and  O_24
REMARK                            x       y       z     vdW  Elec       q    Type
REMARK                         _______ _______ _______ _____ _____    ______ ____
ROOT
ATOM      1  O   UNL     1       1.495   8.544  20.401  0.00  0.00    +0.000 OA
ATOM      2  C   UNL     1       1.824   8.123  19.293  0.00  0.00    +0.000 C 
ATOM      3  N   UNL     1       2.511   6.921  19.118  0.00  0.00    +0.000 N 
ATOM      4  C   UNL     1       2.909   6.161  20.297  0.00  0.00    +0.000 C 
ATOM      5  C   UNL     1       1.945   4.995  20.510  0.00  0.00    +0.000 C 
ATOM      6  C   UNL     1       1.879   4.128  19.229  0.00  0.00    +0.000 C 
ATOM      7  C   UNL     1       1.493   4.993  18.020  0.00  0.00    +0.000 C 
ATOM      8  C   UNL     1       2.484   6.144  17.876  0.00  0.00    +0.000 C 
ATOM      9  C   UNL     1       1.014   2.842  19.418  0.00  0.00    +0.000 C 
ATOM     10  C   UNL     1       2.310   2.063  19.729  0.00  0.00    +0.000 C 
ATOM     11  C   UNL     1       3.117   3.188  19.046  0.00  0.00    +0.000 C 
ENDROOT
BRANCH   9  12
ATOM     12  O   UNL     1       0.257   2.367  18.283  0.00  0.00    +0.000 OA
ATOM     13  H   UNL     1      -0.484   1.857  18.630  0.00  0.00    +0.000 HD
ENDBRANCH   9  12
BRANCH  11  14
ATOM     14  O   UNL     1       3.547   2.950  17.689  0.00  0.00    +0.000 OA
ATOM     15  H   UNL     1       4.452   2.601  17.738  0.00  0.00    +0.000 HD
ENDBRANCH  11  14
BRANCH   2  16
ATOM     16  C   UNL     1       1.500   8.869  18.009  0.00  0.00    +0.000 C 
BRANCH  16  17
ATOM     17  C   UNL     1       1.346  10.368  18.133  0.00  0.00    +0.000 A 
ATOM     18  C   UNL     1       2.507  11.150  17.989  0.00  0.00    +0.000 A 
ATOM     19  C   UNL     1       2.483  12.520  18.213  0.00  0.00    +0.000 A 
ATOM     20  C   UNL     1       1.299  13.135  18.601  0.00  0.00    +0.000 A 
ATOM     21  C   UNL     1       0.130  12.385  18.708  0.00  0.00    +0.000 A 
ATOM     22  C   UNL     1       0.121  11.000  18.440  0.00  0.00    +0.000 A 
BRANCH  22  23
ATOM     23  C   UNL     1      -1.226  10.307  18.498  0.00  0.00    +0.000 C 
ATOM     24  F   UNL     1      -1.550   9.563  17.406  0.00  0.00    +0.000 F 
ATOM     25  F   UNL     1      -1.321   9.454  19.560  0.00  0.00    +0.000 F 
ATOM     26  F   UNL     1      -2.253  11.192  18.651  0.00  0.00    +0.000 F 
ENDBRANCH  22  23
ENDBRANCH  16  17
ENDBRANCH   2  16
TORSDOF 5
ENDMDL
MODEL 6
REMARK VINA RESULT:      -6.8      4.200      6.386
REMARK  Name = 
REMARK  5 active torsions:
REMARK  status: ('A' for Active; 'I' for Inactive)
REMARK    1  A    between atoms: C_2  and  C_3
REMARK    2  A    between atoms: C_3  and  C_4
REMARK    3  A    between atoms: C_9  and  C_10
REMARK    4  A    between atoms: C_20  and  O_21
REMARK    5  A    between atoms: C_23  and  O_24
REMARK                            x       y       z     vdW  Elec       q    Type
REMARK                         _______ _______ _______ _____ _____    ______ ____
ROOT
ATOM      1  O   UNL     1       2.980   8.041  18.371  0.00  0.00    +0.000 OA
ATOM      2  C   UNL     1       2.271   7.430  19.169  0.00  0.00    +0.000 C 
ATOM      3  N   UNL     1       1.946   6.083  19.010  0.00  0.00    +0.000 N 
ATOM      4  C   UNL     1       2.414   5.382  17.821  0.00  0.00    +0.000 C 
ATOM      5  C   UNL     1       3.631   4.527  18.170  0.00  0.00    +0.000 C 
ATOM      6  C   UNL     1       3.281   3.568  19.333  0.00  0.00    +0.000 C 
ATOM      7  C   UNL     1       2.760   4.363  20.539  0.00  0.00    +0.000 C 
ATOM      8  C   UNL     1       1.559   5.205  20.118  0.00  0.00    +0.000 C 
ATOM      9  C   UNL     1       4.437   2.570  19.657  0.00  0.00    +0.000 C 
ATOM     10  C   UNL     1       3.740   1.530  18.755  0.00  0.00    +0.000 C 
ATOM     11  C   UNL     1       2.428   2.333  18.891  0.00  0.00    +0.000 C 
ENDROOT
BRANCH   9  12
ATOM     12  O   UNL     1       4.623   2.177  21.035  0.00  0.00    +0.000 OA
ATOM     13  H   UNL     1       5.573   2.124  21.190  0.00  0.00    +0.000 HD
ENDBRANCH   9  12
BRANCH  11  14
ATOM     14  O   UNL     1       1.462   1.846  19.846  0.00  0.00    +0.000 OA
ATOM     15  H   UNL     1       0.680   1.571  19.339  0.00  0.00    +0.000 HD
ENDBRANCH  11  14
BRANCH   2  16
ATOM     16  C   UNL     1       1.693   8.088  20.413  0.00  0.00    +0.000 C 
BRANCH  16  17
ATOM     17  C   UNL     1       0.810   9.291  20.177  0.00  0.00    +0.000 A 
ATOM     18  C   UNL     1       0.750   9.802  18.868  0.00  0.00    +0.000 A 
ATOM     19  C   UNL     1       0.067  10.978  18.585  0.00  0.00    +0.000 A 
ATOM     20  C   UNL     1      -0.558  11.676  19.610  0.00  0.00    +0.000 A 
ATOM     21  C   UNL     1      -0.546  11.165  20.906  0.00  0.00    +0.000 A 
ATOM     22  C   UNL     1       0.102   9.948  21.208  0.00  0.00    +0.000 A 
BRANCH  22  23
ATOM     23  C   UNL     1      -0.031   9.445  22.632  0.00  0.00    +0.000 C 
ATOM     24  F   UNL     1      -0.718  10.257  23.479  0.00  0.00    +0.000 F 
ATOM     25  F   UNL     1      -0.662   8.236  22.693  0.00  0.00    +0.000 F 
ATOM     26  F   UNL     1       1.184   9.250  23.222  0.00  0.00    +0.000 F 
ENDBRANCH  22  23
ENDBRANCH  16  17
ENDBRANCH   2  16
TORSDOF 5
ENDMDL
MODEL 7
REMARK VINA RESULT:      -6.7      4.398      6.774
REMARK  Name = 
REMARK  5 active torsions:
REMARK  status: ('A' for Active; 'I' for Inactive)
REMARK    1  A    between atoms: C_2  and  C_3
REMARK    2  A    between atoms: C_3  and  C_4
REMARK    3  A    between atoms: C_9  and  C_10
REMARK    4  A    between atoms: C_20  and  O_21
REMARK    5  A    between atoms: C_23  and  O_24
REMARK                            x       y       z     vdW  Elec       q    Type
REMARK                         _______ _______ _______ _____ _____    ______ ____
ROOT
ATOM      1  O   UNL     1       2.269   7.375  20.218  0.00  0.00    +0.000 OA
ATOM      2  C   UNL     1       1.957   7.878  19.140  0.00  0.00    +0.000 C 
ATOM      3  N   UNL     1       1.101   8.975  19.040  0.00  0.00    +0.000 N 
ATOM      4  C   UNL     1       0.503   9.513  20.256  0.00  0.00    +0.000 C 
ATOM      5  C   UNL     1       1.251  10.775  20.686  0.00  0.00    +0.000 C 
ATOM      6  C   UNL     1       1.269  11.795  19.522  0.00  0.00    +0.000 C 
ATOM      7  C   UNL     1       1.875  11.156  18.263  0.00  0.00    +0.000 C 
ATOM      8  C   UNL     1       1.093   9.897  17.901  0.00  0.00    +0.000 C 
ATOM      9  C   UNL     1       1.902  13.162  19.932  0.00  0.00    +0.000 C 
ATOM     10  C   UNL     1       0.479  13.693  20.211  0.00  0.00    +0.000 C 
ATOM     11  C   UNL     1      -0.086  12.554  19.334  0.00  0.00    +0.000 C 
ENDROOT
BRANCH   9  12
ATOM     12  O   UNL     1       2.653  13.885  18.931  0.00  0.00    +0.000 OA
ATOM     13  H   UNL     1       2.014  14.272  18.322  0.00  0.00    +0.000 HD
ENDBRANCH   9  12
BRANCH  11  14
ATOM     14  O   UNL     1      -0.450  12.894  17.980  0.00  0.00    +0.000 OA
ATOM     15  H   UNL     1      -0.770  12.078  17.562  0.00  0.00    +0.000 HD
ENDBRANCH  11  14
BRANCH   2  16
ATOM     16  C   UNL     1       2.488   7.355  17.815  0.00  0.00    +0.000 C 
BRANCH  16  17
ATOM     17  C   UNL     1       3.535   6.269  17.901  0.00  0.00    +0.000 A 
ATOM     18  C   UNL     1       4.884   6.670  17.902  0.00  0.00    +0.000 A 
ATOM     19  C   UNL     1       5.912   5.738  17.851  0.00  0.00    +0.000 A 
ATOM     20  C   UNL     1       5.611   4.383  17.782  0.00  0.00    +0.000 A 
ATOM     21  C   UNL     1       4.284   3.964  17.824  0.00  0.00    +0.000 A 
ATOM     22  C   UNL     1       3.224   4.891  17.923  0.00  0.00    +0.000 A 
BRANCH  22  23
ATOM     23  C   UNL     1       1.829   4.315  18.053  0.00  0.00    +0.000 C 
ATOM     24  F   UNL     1       0.917   4.778  17.155  0.00  0.00    +0.000 F 
ATOM     25  F   UNL     1       1.817   2.957  17.915  0.00  0.00    +0.000 F 
ATOM     26  F   UNL     1       1.285   4.559  19.280  0.00  0.00    +0.000 F 
ENDBRANCH  22  23
ENDBRANCH  16  17
ENDBRANCH   2  16
TORSDOF 5
ENDMDL
MODEL 8
REMARK VINA RESULT:      -6.7      9.671     12.539
REMARK  Name = 
REMARK  5 active torsions:
REMARK  status: ('A' for Active; 'I' for Inactive)
REMARK    1  A    between atoms: C_2  and  C_3
REMARK    2  A    between atoms: C_3  and  C_4
REMARK    3  A    between atoms: C_9  and  C_10
REMARK    4  A    between atoms: C_20  and  O_21
REMARK    5  A    between atoms: C_23  and  O_24
REMARK                            x       y       z     vdW  Elec       q    Type
REMARK                         _______ _______ _______ _____ _____    ______ ____
ROOT
ATOM      1  O   UNL     1      -2.947  11.744  23.385  0.00  0.00    +0.000 OA
ATOM      2  C   UNL     1      -2.876  12.545  22.455  0.00  0.00    +0.000 C 
ATOM      3  N   UNL     1      -1.737  12.675  21.659  0.00  0.00    +0.000 N 
ATOM      4  C   UNL     1      -0.562  11.873  21.977  0.00  0.00    +0.000 C 
ATOM      5  C   UNL     1      -0.476  10.681  21.025  0.00  0.00    +0.000 C 
ATOM      6  C   UNL     1      -0.485  11.179  19.560  0.00  0.00    +0.000 C 
ATOM      7  C   UNL     1      -1.725  12.047  19.300  0.00  0.00    +0.000 C 
ATOM      8  C   UNL     1      -1.758  13.205  20.293  0.00  0.00    +0.000 C 
ATOM      9  C   UNL     1      -0.266  10.025  18.531  0.00  0.00    +0.000 C 
ATOM     10  C   UNL     1       1.236  10.380  18.512  0.00  0.00    +0.000 C 
ATOM     11  C   UNL     1       0.887  11.768  19.090  0.00  0.00    +0.000 C 
ENDROOT
BRANCH   9  12
ATOM     12  O   UNL     1      -0.946  10.117  17.260  0.00  0.00    +0.000 OA
ATOM     13  H   UNL     1      -0.914  11.041  16.987  0.00  0.00    +0.000 HD
ENDBRANCH   9  12
BRANCH  11  14
ATOM     14  O   UNL     1       0.828  12.867  18.156  0.00  0.00    +0.000 OA
ATOM     15  H   UNL     1       0.183  12.622  17.473  0.00  0.00    +0.000 HD
ENDBRANCH  11  14
BRANCH   2  16
ATOM     16  C   UNL     1      -4.030  13.460  22.078  0.00  0.00    +0.000 C 
BRANCH  16  17
ATOM     17  C   UNL     1      -5.301  12.775  21.630  0.00  0.00    +0.000 A 
ATOM     18  C   UNL     1      -5.328  12.258  20.321  0.00  0.00    +0.000 A 
ATOM     19  C   UNL     1      -6.493  11.728  19.782  0.00  0.00    +0.000 A 
ATOM     20  C   UNL     1      -7.659  11.717  20.536  0.00  0.00    +0.000 A 
ATOM     21  C   UNL     1      -7.642  12.184  21.848  0.00  0.00    +0.000 A 
ATOM     22  C   UNL     1      -6.459  12.685  22.433  0.00  0.00    +0.000 A 
BRANCH  22  23
ATOM     23  C   UNL     1      -6.539  13.079  23.894  0.00  0.00    +0.000 C 
ATOM     24  F   UNL     1      -5.718  12.391  24.732  0.00  0.00    +0.000 F 
ATOM     25  F   UNL     1      -6.237  14.396  24.089  0.00  0.00    +0.000 F 
ATOM     26  F   UNL     1      -7.794  12.916  24.402  0.00  0.00    +0.000 F 
ENDBRANCH  22  23
ENDBRANCH  16  17
ENDBRANCH   2  16
TORSDOF 5
ENDMDL
MODEL 9
REMARK VINA RESULT:      -6.7      3.523      4.311
REMARK  Name = 
REMARK  5 active torsions:
REMARK  status: ('A' for Active; 'I' for Inactive)
REMARK    1  A    between atoms: C_2  and  C_3
REMARK    2  A    between atoms: C_3  and  C_4
REMARK    3  A    between atoms: C_9  and  C_10
REMARK    4  A    between atoms: C_20  and  O_21
REMARK    5  A    between atoms: C_23  and  O_24
REMARK                            x       y       z     vdW  Elec       q    Type
REMARK                         _______ _______ _______ _____ _____    ______ ____
ROOT
ATOM      1  O   UNL     1       4.876   6.099  15.480  0.00  0.00    +0.000 OA
ATOM      2  C   UNL     1       5.123   4.982  15.932  0.00  0.00    +0.000 C 
ATOM      3  N   UNL     1       4.777   4.601  17.229  0.00  0.00    +0.000 N 
ATOM      4  C   UNL     1       4.154   5.583  18.108  0.00  0.00    +0.000 C 
ATOM      5  C   UNL     1       2.648   5.335  18.175  0.00  0.00    +0.000 C 
ATOM      6  C   UNL     1       2.377   3.876  18.615  0.00  0.00    +0.000 C 
ATOM      7  C   UNL     1       3.090   2.894  17.674  0.00  0.00    +0.000 C 
ATOM      8  C   UNL     1       4.583   3.208  17.641  0.00  0.00    +0.000 C 
ATOM      9  C   UNL     1       0.858   3.587  18.834  0.00  0.00    +0.000 C 
ATOM     10  C   UNL     1       1.060   3.872  20.338  0.00  0.00    +0.000 C 
ATOM     11  C   UNL     1       2.575   3.638  20.149  0.00  0.00    +0.000 C 
ENDROOT
BRANCH   9  12
ATOM     12  O   UNL     1       0.369   2.267  18.510  0.00  0.00    +0.000 OA
ATOM     13  H   UNL     1       0.753   2.023  17.660  0.00  0.00    +0.000 HD
ENDBRANCH   9  12
BRANCH  11  14
ATOM     14  O   UNL     1       3.088   2.347  20.538  0.00  0.00    +0.000 OA
ATOM     15  H   UNL     1       3.828   2.147  19.942  0.00  0.00    +0.000 HD
ENDBRANCH  11  14
BRANCH   2  16
ATOM     16  C   UNL     1       5.815   3.907  15.110  0.00  0.00    +0.000 C 
BRANCH  16  17
ATOM     17  C   UNL     1       6.651   4.394  13.949  0.00  0.00    +0.000 A 
ATOM     18  C   UNL     1       7.792   5.160  14.252  0.00  0.00    +0.000 A 
ATOM     19  C   UNL     1       8.546   5.755  13.248  0.00  0.00    +0.000 A 
ATOM     20  C   UNL     1       8.164   5.609  11.921  0.00  0.00    +0.000 A 
ATOM     21  C   UNL     1       7.063   4.820  11.597  0.00  0.00    +0.000 A 
ATOM     22  C   UNL     1       6.310   4.167  12.597  0.00  0.00    +0.000 A 
BRANCH  22  23
ATOM     23  C   UNL     1       5.191   3.262  12.121  0.00  0.00    +0.000 C 
ATOM     24  F   UNL     1       5.541   1.967  11.896  0.00  0.00    +0.000 F 
ATOM     25  F   UNL     1       4.158   3.210  13.011  0.00  0.00    +0.000 F 
ATOM     26  F   UNL     1       4.641   3.697  10.951  0.00  0.00    +0.000 F 
ENDBRANCH  22  23
ENDBRANCH  16  17
ENDBRANCH   2  16
TORSDOF 5
ENDMDL
