MODEL 1
REMARK VINA RESULT:      -6.5      0.000      0.000
REMARK  Name = 
REMARK  8 active torsions:
REMARK  status: ('A' for Active; 'I' for Inactive)
REMARK    1  A    between atoms: C_1  and  C_2
REMARK    2  A    between atoms: C_2  and  C_3
REMARK    3  A    between atoms: C_3  and  C_4
REMARK    4  A    between atoms: C_4  and  C_5
REMARK    5  A    between atoms: C_5  and  C_6
REMARK    6  A    between atoms: C_6  and  C_7
REMARK    7  A    between atoms: C_7  and  S_8
REMARK    8  A    between atoms: S_8  and  C_9
REMARK                            x       y       z     vdW  Elec       q    Type
REMARK                         _______ _______ _______ _____ _____    ______ ____
ROOT
ATOM      1  C   UNL     1       4.938   4.165  16.855  0.00  0.00    +0.000 A 
ATOM      2  N   UNL     1       5.527   3.984  15.621  0.00  0.00    +0.000 N 
ATOM      3  C   UNL     1       6.869   4.163  15.443  0.00  0.00    +0.000 A 
ATOM      4  N   UNL     1       7.703   4.551  16.354  0.00  0.00    +0.000 NA
ATOM      5  C   UNL     1       7.158   4.765  17.589  0.00  0.00    +0.000 A 
ATOM      6  N   UNL     1       7.795   5.139  18.665  0.00  0.00    +0.000 NA
ATOM      7  N   UNL     1       6.813   5.209  19.752  0.00  0.00    +0.000 NA
ATOM      8  C   UNL     1       5.654   4.868  19.265  0.00  0.00    +0.000 A 
ATOM      9  C   UNL     1       5.735   4.561  17.852  0.00  0.00    +0.000 A 
ATOM     10  H   UNL     1       4.944   3.578  14.897  0.00  0.00    +0.000 HD
ENDROOT
BRANCH   1  11
ATOM     11  S   UNL     1       3.266   3.805  17.144  0.00  0.00    +0.000 S 
BRANCH  11  12
ATOM     12  C   UNL     1       3.391   2.206  18.014  0.00  0.00    +0.000 C 
BRANCH  12  13
ATOM     13  C   UNL     1       2.201   2.000  18.960  0.00  0.00    +0.000 C 
BRANCH  13  14
ATOM     14  C   UNL     1       2.515   2.376  20.411  0.00  0.00    +0.000 C 
BRANCH  14  15
ATOM     15  C   UNL     1       1.362   3.129  21.074  0.00  0.00    +0.000 C 
BRANCH  15  16
ATOM     16  C   UNL     1       1.080   4.431  20.320  0.00  0.00    +0.000 C 
BRANCH  16  18
ATOM     17  C   UNL     1       2.318   6.491  19.589  0.00  0.00    +0.000 C 
ATOM     18  C   UNL     1       2.029   5.547  20.745  0.00  0.00    +0.000 C 
ENDBRANCH  16  18
ENDBRANCH  15  16
ENDBRANCH  14  15
ENDBRANCH  13  14
ENDBRANCH  12  13
ENDBRANCH  11  12
ENDBRANCH   1  11
TORSDOF 7
ENDMDL
MODEL 2
REMARK VINA RESULT:      -6.3      1.481      2.789
REMARK  Name = 
REMARK  8 active torsions:
REMARK  status: ('A' for Active; 'I' for Inactive)
REMARK    1  A    between atoms: C_1  and  C_2
REMARK    2  A    between atoms: C_2  and  C_3
REMARK    3  A    between atoms: C_3  and  C_4
REMARK    4  A    between atoms: C_4  and  C_5
REMARK    5  A    between atoms: C_5  and  C_6
REMARK    6  A    between atoms: C_6  and  C_7
REMARK    7  A    between atoms: C_7  and  S_8
REMARK    8  A    between atoms: S_8  and  C_9
REMARK                            x       y       z     vdW  Elec       q    Type
REMARK                         _______ _______ _______ _____ _____    ______ ____
ROOT
ATOM      1  C   UNL     1       5.486   4.333  18.061  0.00  0.00    +0.000 A 
ATOM      2  N   UNL     1       6.043   4.726  19.261  0.00  0.00    +0.000 N 
ATOM      3  C   UNL     1       7.099   5.589  19.302  0.00  0.00    +0.000 A 
ATOM      4  N   UNL     1       7.708   6.083  18.271  0.00  0.00    +0.000 NA
ATOM      5  C   UNL     1       7.203   5.702  17.059  0.00  0.00    +0.000 A 
ATOM      6  N   UNL     1       7.631   6.079  15.885  0.00  0.00    +0.000 NA
ATOM      7  N   UNL     1       6.771   5.445  14.882  0.00  0.00    +0.000 NA
ATOM      8  C   UNL     1       5.880   4.734  15.512  0.00  0.00    +0.000 A 
ATOM      9  C   UNL     1       6.055   4.805  16.948  0.00  0.00    +0.000 A 
ATOM     10  H   UNL     1       5.543   4.456  20.101  0.00  0.00    +0.000 HD
ENDROOT
BRANCH   1  11
ATOM     11  S   UNL     1       4.056   3.355  17.982  0.00  0.00    +0.000 S 
BRANCH  11  12
ATOM     12  C   UNL     1       2.819   4.575  17.423  0.00  0.00    +0.000 C 
BRANCH  12  13
ATOM     13  C   UNL     1       1.397   4.103  17.747  0.00  0.00    +0.000 C 
BRANCH  13  14
ATOM     14  C   UNL     1       1.354   2.704  18.368  0.00  0.00    +0.000 C 
BRANCH  14  15
ATOM     15  C   UNL     1       0.721   2.711  19.760  0.00  0.00    +0.000 C 
BRANCH  15  16
ATOM     16  C   UNL     1       0.925   4.073  20.426  0.00  0.00    +0.000 C 
BRANCH  16  18
ATOM     17  C   UNL     1       2.488   2.652  21.786  0.00  0.00    +0.000 C 
ATOM     18  C   UNL     1       2.127   4.068  21.366  0.00  0.00    +0.000 C 
ENDBRANCH  16  18
ENDBRANCH  15  16
ENDBRANCH  14  15
ENDBRANCH  13  14
ENDBRANCH  12  13
ENDBRANCH  11  12
ENDBRANCH   1  11
TORSDOF 7
ENDMDL
MODEL 3
REMARK VINA RESULT:      -6.1      1.368      2.488
REMARK  Name = 
REMARK  8 active torsions:
REMARK  status: ('A' for Active; 'I' for Inactive)
REMARK    1  A    between atoms: C_1  and  C_2
REMARK    2  A    between atoms: C_2  and  C_3
REMARK    3  A    between atoms: C_3  and  C_4
REMARK    4  A    between atoms: C_4  and  C_5
REMARK    5  A    between atoms: C_5  and  C_6
REMARK    6  A    between atoms: C_6  and  C_7
REMARK    7  A    between atoms: C_7  and  S_8
REMARK    8  A    between atoms: S_8  and  C_9
REMARK                            x       y       z     vdW  Elec       q    Type
REMARK                         _______ _______ _______ _____ _____    ______ ____
ROOT
ATOM      1  C   UNL     1       5.283   6.070  16.776  0.00  0.00    +0.000 A 
ATOM      2  N   UNL     1       5.279   5.736  15.437  0.00  0.00    +0.000 N 
ATOM      3  C   UNL     1       6.228   4.909  14.910  0.00  0.00    +0.000 A 
ATOM      4  N   UNL     1       7.226   4.399  15.559  0.00  0.00    +0.000 NA
ATOM      5  C   UNL     1       7.283   4.723  16.886  0.00  0.00    +0.000 A 
ATOM      6  N   UNL     1       8.177   4.318  17.747  0.00  0.00    +0.000 NA
ATOM      7  N   UNL     1       7.820   4.890  19.049  0.00  0.00    +0.000 NA
ATOM      8  C   UNL     1       6.735   5.594  18.891  0.00  0.00    +0.000 A 
ATOM      9  C   UNL     1       6.281   5.578  17.517  0.00  0.00    +0.000 A 
ATOM     10  H   UNL     1       4.464   6.019  14.903  0.00  0.00    +0.000 HD
ENDROOT
BRANCH   1  11
ATOM     11  S   UNL     1       4.011   6.999  17.502  0.00  0.00    +0.000 S 
BRANCH  11  12
ATOM     12  C   UNL     1       3.024   5.689  18.300  0.00  0.00    +0.000 C 
BRANCH  12  13
ATOM     13  C   UNL     1       2.550   6.128  19.691  0.00  0.00    +0.000 C 
BRANCH  13  14
ATOM     14  C   UNL     1       2.142   4.954  20.586  0.00  0.00    +0.000 C 
BRANCH  14  15
ATOM     15  C   UNL     1       1.111   4.048  19.913  0.00  0.00    +0.000 C 
BRANCH  15  16
ATOM     16  C   UNL     1       1.459   2.579  20.160  0.00  0.00    +0.000 C 
BRANCH  16  18
ATOM     17  C   UNL     1       2.332   2.206  17.835  0.00  0.00    +0.000 C 
ATOM     18  C   UNL     1       2.650   2.131  19.319  0.00  0.00    +0.000 C 
ENDBRANCH  16  18
ENDBRANCH  15  16
ENDBRANCH  14  15
ENDBRANCH  13  14
ENDBRANCH  12  13
ENDBRANCH  11  12
ENDBRANCH   1  11
TORSDOF 7
ENDMDL
MODEL 4
REMARK VINA RESULT:      -6.0      1.405      2.704
REMARK  Name = 
REMARK  8 active torsions:
REMARK  status: ('A' for Active; 'I' for Inactive)
REMARK    1  A    between atoms: C_1  and  C_2
REMARK    2  A    between atoms: C_2  and  C_3
REMARK    3  A    between atoms: C_3  and  C_4
REMARK    4  A    between atoms: C_4  and  C_5
REMARK    5  A    between atoms: C_5  and  C_6
REMARK    6  A    between atoms: C_6  and  C_7
REMARK    7  A    between atoms: C_7  and  S_8
REMARK    8  A    between atoms: S_8  and  C_9
REMARK                            x       y       z     vdW  Elec       q    Type
REMARK                         _______ _______ _______ _____ _____    ______ ____
ROOT
ATOM      1  C   UNL     1       5.954   4.733  17.858  0.00  0.00    +0.000 A 
ATOM      2  N   UNL     1       6.540   5.810  18.490  0.00  0.00    +0.000 N 
ATOM      3  C   UNL     1       7.327   6.691  17.805  0.00  0.00    +0.000 A 
ATOM      4  N   UNL     1       7.642   6.602  16.552  0.00  0.00    +0.000 NA
ATOM      5  C   UNL     1       7.100   5.535  15.890  0.00  0.00    +0.000 A 
ATOM      6  N   UNL     1       7.255   5.244  14.628  0.00  0.00    +0.000 NA
ATOM      7  N   UNL     1       6.468   4.036  14.359  0.00  0.00    +0.000 NA
ATOM      8  C   UNL     1       5.888   3.682  15.470  0.00  0.00    +0.000 A 
ATOM      9  C   UNL     1       6.226   4.574  16.559  0.00  0.00    +0.000 A 
ATOM     10  H   UNL     1       6.245   5.991  19.443  0.00  0.00    +0.000 HD
ENDROOT
BRANCH   1  11
ATOM     11  S   UNL     1       4.836   3.682  18.667  0.00  0.00    +0.000 S 
BRANCH  11  12
ATOM     12  C   UNL     1       3.343   3.890  17.638  0.00  0.00    +0.000 C 
BRANCH  12  13
ATOM     13  C   UNL     1       2.523   2.595  17.592  0.00  0.00    +0.000 C 
BRANCH  13  14
ATOM     14  C   UNL     1       1.246   2.661  18.436  0.00  0.00    +0.000 C 
BRANCH  14  15
ATOM     15  C   UNL     1       1.449   2.079  19.835  0.00  0.00    +0.000 C 
BRANCH  15  16
ATOM     16  C   UNL     1       1.751   3.198  20.833  0.00  0.00    +0.000 C 
BRANCH  16  18
ATOM     17  C   UNL     1       1.946   5.686  20.542  0.00  0.00    +0.000 C 
ATOM     18  C   UNL     1       1.014   4.486  20.478  0.00  0.00    +0.000 C 
ENDBRANCH  16  18
ENDBRANCH  15  16
ENDBRANCH  14  15
ENDBRANCH  13  14
ENDBRANCH  12  13
ENDBRANCH  11  12
ENDBRANCH   1  11
TORSDOF 7
ENDMDL
MODEL 5
REMARK VINA RESULT:      -6.0      3.515      6.602
REMARK  Name = 
REMARK  8 active torsions:
REMARK  status: ('A' for Active; 'I' for Inactive)
REMARK    1  A    between atoms: C_1  and  C_2
REMARK    2  A    between atoms: C_2  and  C_3
REMARK    3  A    between atoms: C_3  and  C_4
REMARK    4  A    between atoms: C_4  and  C_5
REMARK    5  A    between atoms: C_5  and  C_6
REMARK    6  A    between atoms: C_6  and  C_7
REMARK    7  A    between atoms: C_7  and  S_8
REMARK    8  A    between atoms: S_8  and  C_9
REMARK                            x       y       z     vdW  Elec       q    Type
REMARK                         _______ _______ _______ _____ _____    ______ ____
ROOT
ATOM      1  C   UNL     1       4.711   3.794  18.443  0.00  0.00    +0.000 A 
ATOM      2  N   UNL     1       5.248   3.055  19.477  0.00  0.00    +0.000 N 
ATOM      3  C   UNL     1       4.459   2.288  20.284  0.00  0.00    +0.000 A 
ATOM      4  N   UNL     1       3.169   2.200  20.212  0.00  0.00    +0.000 NA
ATOM      5  C   UNL     1       2.590   2.935  19.214  0.00  0.00    +0.000 A 
ATOM      6  N   UNL     1       1.318   2.994  18.931  0.00  0.00    +0.000 NA
ATOM      7  N   UNL     1       1.170   3.878  17.770  0.00  0.00    +0.000 NA
ATOM      8  C   UNL     1       2.358   4.287  17.426  0.00  0.00    +0.000 A 
ATOM      9  C   UNL     1       3.383   3.752  18.298  0.00  0.00    +0.000 A 
ATOM     10  H   UNL     1       6.260   3.001  19.516  0.00  0.00    +0.000 HD
ENDROOT
BRANCH   1  11
ATOM     11  S   UNL     1       5.701   4.661  17.314  0.00  0.00    +0.000 S 
BRANCH  11  12
ATOM     12  C   UNL     1       5.448   3.684  15.793  0.00  0.00    +0.000 C 
BRANCH  12  13
ATOM     13  C   UNL     1       6.437   4.104  14.700  0.00  0.00    +0.000 C 
BRANCH  13  14
ATOM     14  C   UNL     1       5.794   4.201  13.313  0.00  0.00    +0.000 C 
BRANCH  14  15
ATOM     15  C   UNL     1       6.385   3.188  12.331  0.00  0.00    +0.000 C 
BRANCH  15  16
ATOM     16  C   UNL     1       5.275   2.578  11.472  0.00  0.00    +0.000 C 
BRANCH  16  18
ATOM     17  C   UNL     1       3.250   3.342  10.197  0.00  0.00    +0.000 C 
ATOM     18  C   UNL     1       4.001   3.416  11.516  0.00  0.00    +0.000 C 
ENDBRANCH  16  18
ENDBRANCH  15  16
ENDBRANCH  14  15
ENDBRANCH  13  14
ENDBRANCH  12  13
ENDBRANCH  11  12
ENDBRANCH   1  11
TORSDOF 7
ENDMDL
MODEL 6
REMARK VINA RESULT:      -6.0      3.177      6.292
REMARK  Name = 
REMARK  8 active torsions:
REMARK  status: ('A' for Active; 'I' for Inactive)
REMARK    1  A    between atoms: C_1  and  C_2
REMARK    2  A    between atoms: C_2  and  C_3
REMARK    3  A    between atoms: C_3  and  C_4
REMARK    4  A    between atoms: C_4  and  C_5
REMARK    5  A    between atoms: C_5  and  C_6
REMARK    6  A    between atoms: C_6  and  C_7
REMARK    7  A    between atoms: C_7  and  S_8
REMARK    8  A    between atoms: S_8  and  C_9
REMARK                            x       y       z     vdW  Elec       q    Type
REMARK                         _______ _______ _______ _____ _____    ______ ____
ROOT
ATOM      1  C   UNL     1       4.274   3.974  18.855  0.00  0.00    +0.000 A 
ATOM      2  N   UNL     1       4.418   2.846  18.074  0.00  0.00    +0.000 N 
ATOM      3  C   UNL     1       3.385   1.973  17.893  0.00  0.00    +0.000 A 
ATOM      4  N   UNL     1       2.216   2.067  18.441  0.00  0.00    +0.000 NA
ATOM      5  C   UNL     1       2.035   3.159  19.243  0.00  0.00    +0.000 A 
ATOM      6  N   UNL     1       0.945   3.480  19.885  0.00  0.00    +0.000 NA
ATOM      7  N   UNL     1       1.206   4.741  20.586  0.00  0.00    +0.000 NA
ATOM      8  C   UNL     1       2.429   5.101  20.317  0.00  0.00    +0.000 A 
ATOM      9  C   UNL     1       3.091   4.146  19.454  0.00  0.00    +0.000 A 
ATOM     10  H   UNL     1       5.275   2.775  17.536  0.00  0.00    +0.000 HD
ENDROOT
BRANCH   1  11
ATOM     11  S   UNL     1       5.520   5.173  18.988  0.00  0.00    +0.000 S 
BRANCH  11  12
ATOM     12  C   UNL     1       6.625   4.693  17.618  0.00  0.00    +0.000 C 
BRANCH  12  13
ATOM     13  C   UNL     1       6.351   5.538  16.368  0.00  0.00    +0.000 C 
BRANCH  13  14
ATOM     14  C   UNL     1       6.907   4.913  15.085  0.00  0.00    +0.000 C 
BRANCH  14  15
ATOM     15  C   UNL     1       5.839   4.144  14.308  0.00  0.00    +0.000 C 
BRANCH  15  16
ATOM     16  C   UNL     1       6.382   3.724  12.940  0.00  0.00    +0.000 C 
BRANCH  16  18
ATOM     17  C   UNL     1       5.711   1.881  11.371  0.00  0.00    +0.000 C 
ATOM     18  C   UNL     1       5.279   3.175  12.039  0.00  0.00    +0.000 C 
ENDBRANCH  16  18
ENDBRANCH  15  16
ENDBRANCH  14  15
ENDBRANCH  13  14
ENDBRANCH  12  13
ENDBRANCH  11  12
ENDBRANCH   1  11
TORSDOF 7
ENDMDL
MODEL 7
REMARK VINA RESULT:      -6.0      0.964      3.244
REMARK  Name = 
REMARK  8 active torsions:
REMARK  status: ('A' for Active; 'I' for Inactive)
REMARK    1  A    between atoms: C_1  and  C_2
REMARK    2  A    between atoms: C_2  and  C_3
REMARK    3  A    between atoms: C_3  and  C_4
REMARK    4  A    between atoms: C_4  and  C_5
REMARK    5  A    between atoms: C_5  and  C_6
REMARK    6  A    between atoms: C_6  and  C_7
REMARK    7  A    between atoms: C_7  and  S_8
REMARK    8  A    between atoms: S_8  and  C_9
REMARK                            x       y       z     vdW  Elec       q    Type
REMARK                         _______ _______ _______ _____ _____    ______ ____
ROOT
ATOM      1  C   UNL     1       4.858   5.229  18.168  0.00  0.00    +0.000 A 
ATOM      2  N   UNL     1       5.532   5.481  19.346  0.00  0.00    +0.000 N 
ATOM      3  C   UNL     1       6.891   5.387  19.418  0.00  0.00    +0.000 A 
ATOM      4  N   UNL     1       7.673   5.022  18.453  0.00  0.00    +0.000 NA
ATOM      5  C   UNL     1       7.045   4.739  17.271  0.00  0.00    +0.000 A 
ATOM      6  N   UNL     1       7.616   4.372  16.156  0.00  0.00    +0.000 NA
ATOM      7  N   UNL     1       6.557   4.211  15.155  0.00  0.00    +0.000 NA
ATOM      8  C   UNL     1       5.422   4.498  15.727  0.00  0.00    +0.000 A 
ATOM      9  C   UNL     1       5.596   4.850  17.120  0.00  0.00    +0.000 A 
ATOM     10  H   UNL     1       4.984   5.873  20.104  0.00  0.00    +0.000 HD
ENDROOT
BRANCH   1  11
ATOM     11  S   UNL     1       3.150   5.481  18.007  0.00  0.00    +0.000 S 
BRANCH  11  12
ATOM     12  C   UNL     1       2.796   6.489  19.486  0.00  0.00    +0.000 C 
BRANCH  12  13
ATOM     13  C   UNL     1       1.919   5.718  20.480  0.00  0.00    +0.000 C 
BRANCH  13  14
ATOM     14  C   UNL     1       1.188   4.532  19.842  0.00  0.00    +0.000 C 
BRANCH  14  15
ATOM     15  C   UNL     1       1.318   3.258  20.677  0.00  0.00    +0.000 C 
BRANCH  15  16
ATOM     16  C   UNL     1       1.743   2.087  19.790  0.00  0.00    +0.000 C 
BRANCH  16  18
ATOM     17  C   UNL     1       3.522   1.683  18.063  0.00  0.00    +0.000 C 
ATOM     18  C   UNL     1       3.239   2.119  19.491  0.00  0.00    +0.000 C 
ENDBRANCH  16  18
ENDBRANCH  15  16
ENDBRANCH  14  15
ENDBRANCH  13  14
ENDBRANCH  12  13
ENDBRANCH  11  12
ENDBRANCH   1  11
TORSDOF 7
ENDMDL
MODEL 8
REMARK VINA RESULT:      -5.9      1.880      2.923
REMARK  Name = 
REMARK  8 active torsions:
REMARK  status: ('A' for Active; 'I' for Inactive)
REMARK    1  A    between atoms: C_1  and  C_2
REMARK    2  A    between atoms: C_2  and  C_3
REMARK    3  A    between atoms: C_3  and  C_4
REMARK    4  A    between atoms: C_4  and  C_5
REMARK    5  A    between atoms: C_5  and  C_6
REMARK    6  A    between atoms: C_6  and  C_7
REMARK    7  A    between atoms: C_7  and  S_8
REMARK    8  A    between atoms: S_8  and  C_9
REMARK                            x       y       z     vdW  Elec       q    Type
REMARK                         _______ _______ _______ _____ _____    ______ ____
ROOT
ATOM      1  C   UNL     1       5.374   6.225  16.704  0.00  0.00    +0.000 A 
ATOM      2  N   UNL     1       5.389   5.946  15.353  0.00  0.00    +0.000 N 
ATOM      3  C   UNL     1       6.316   5.102  14.813  0.00  0.00    +0.000 A 
ATOM      4  N   UNL     1       7.276   4.525  15.463  0.00  0.00    +0.000 NA
ATOM      5  C   UNL     1       7.314   4.791  16.803  0.00  0.00    +0.000 A 
ATOM      6  N   UNL     1       8.170   4.315  17.666  0.00  0.00    +0.000 NA
ATOM      7  N   UNL     1       7.806   4.849  18.982  0.00  0.00    +0.000 NA
ATOM      8  C   UNL     1       6.755   5.603  18.830  0.00  0.00    +0.000 A 
ATOM      9  C   UNL     1       6.333   5.662  17.447  0.00  0.00    +0.000 A 
ATOM     10  H   UNL     1       4.599   6.284  14.813  0.00  0.00    +0.000 HD
ENDROOT
BRANCH   1  11
ATOM     11  S   UNL     1       4.125   7.177  17.439  0.00  0.00    +0.000 S 
BRANCH  11  12
ATOM     12  C   UNL     1       3.467   6.007  18.676  0.00  0.00    +0.000 C 
BRANCH  12  13
ATOM     13  C   UNL     1       1.974   5.746  18.446  0.00  0.00    +0.000 C 
BRANCH  13  14
ATOM     14  C   UNL     1       1.705   4.490  17.611  0.00  0.00    +0.000 C 
BRANCH  14  15
ATOM     15  C   UNL     1       2.954   3.622  17.458  0.00  0.00    +0.000 C 
BRANCH  15  16
ATOM     16  C   UNL     1       2.605   2.150  17.689  0.00  0.00    +0.000 C 
BRANCH  16  18
ATOM     17  C   UNL     1       4.294   2.572  19.500  0.00  0.00    +0.000 C 
ATOM     18  C   UNL     1       3.506   1.515  18.744  0.00  0.00    +0.000 C 
ENDBRANCH  16  18
ENDBRANCH  15  16
ENDBRANCH  14  15
ENDBRANCH  13  14
ENDBRANCH  12  13
ENDBRANCH  11  12
ENDBRANCH   1  11
TORSDOF 7
ENDMDL
MODEL 9
REMARK VINA RESULT:      -5.9      1.724      2.754
REMARK  Name = 
REMARK  8 active torsions:
REMARK  status: ('A' for Active; 'I' for Inactive)
REMARK    1  A    between atoms: C_1  and  C_2
REMARK    2  A    between atoms: C_2  and  C_3
REMARK    3  A    between atoms: C_3  and  C_4
REMARK    4  A    between atoms: C_4  and  C_5
REMARK    5  A    between atoms: C_5  and  C_6
REMARK    6  A    between atoms: C_6  and  C_7
REMARK    7  A    between atoms: C_7  and  S_8
REMARK    8  A    between atoms: S_8  and  C_9
REMARK                            x       y       z     vdW  Elec       q    Type
REMARK                         _______ _______ _______ _____ _____    ______ ____
ROOT
ATOM      1  C   UNL     1       4.528   5.353  17.017  0.00  0.00    +0.000 A 
ATOM      2  N   UNL     1       4.567   4.143  16.354  0.00  0.00    +0.000 N 
ATOM      3  C   UNL     1       5.694   3.724  15.710  0.00  0.00    +0.000 A 
ATOM      4  N   UNL     1       6.797   4.396  15.607  0.00  0.00    +0.000 NA
ATOM      5  C   UNL     1       6.796   5.613  16.231  0.00  0.00    +0.000 A 
ATOM      6  N   UNL     1       7.789   6.459  16.284  0.00  0.00    +0.000 NA
ATOM      7  N   UNL     1       7.342   7.606  17.081  0.00  0.00    +0.000 NA
ATOM      8  C   UNL     1       6.117   7.375  17.461  0.00  0.00    +0.000 A 
ATOM      9  C   UNL     1       5.632   6.106  16.962  0.00  0.00    +0.000 A 
ATOM     10  H   UNL     1       3.771   3.529  16.489  0.00  0.00    +0.000 HD
ENDROOT
BRANCH   1  11
ATOM     11  S   UNL     1       3.162   5.847  17.964  0.00  0.00    +0.000 S 
BRANCH  11  12
ATOM     12  C   UNL     1       3.624   5.219  19.613  0.00  0.00    +0.000 C 
BRANCH  12  13
ATOM     13  C   UNL     1       2.433   5.276  20.577  0.00  0.00    +0.000 C 
BRANCH  13  14
ATOM     14  C   UNL     1       1.844   3.896  20.887  0.00  0.00    +0.000 C 
BRANCH  14  15
ATOM     15  C   UNL     1       0.811   3.463  19.846  0.00  0.00    +0.000 C 
BRANCH  15  16
ATOM     16  C   UNL     1       1.177   2.091  19.278  0.00  0.00    +0.000 C 
BRANCH  16  18
ATOM     17  C   UNL     1       3.482   1.552  18.436  0.00  0.00    +0.000 C 
ATOM     18  C   UNL     1       2.149   2.205  18.107  0.00  0.00    +0.000 C 
ENDBRANCH  16  18
ENDBRANCH  15  16
ENDBRANCH  14  15
ENDBRANCH  13  14
ENDBRANCH  12  13
ENDBRANCH  11  12
ENDBRANCH   1  11
TORSDOF 7
ENDMDL
