MODEL 1
REMARK VINA RESULT:      -8.8      0.000      0.000
REMARK  Name = 
REMARK  12 active torsions:
REMARK  status: ('A' for Active; 'I' for Inactive)
REMARK    1  A    between atoms: C_1  and  C_2
REMARK    2  A    between atoms: C_2  and  C_3
REMARK    3  A    between atoms: C_3  and  C_4
REMARK    4  A    between atoms: C_7  and  C_8
REMARK    5  A    between atoms: C_8  and  O_10
REMARK    6  A    between atoms: O_10  and  C_11
REMARK    7  A    between atoms: N_16  and  C_17
REMARK    8  A    between atoms: C_17  and  C_18
REMARK    9  A    between atoms: C_21  and  C_22
REMARK   10  A    between atoms: C_27  and  C_28
REMARK   11  A    between atoms: C_28  and  O_30
REMARK   12  A    between atoms: O_30  and  C_31
REMARK                            x       y       z     vdW  Elec       q    Type
REMARK                         _______ _______ _______ _____ _____    ______ ____
ROOT
ATOM      1  C   UNL     1       3.113   5.431  19.977  0.00  0.00    +0.000 C 
ENDROOT
BRANCH   1  10
ATOM      2  C   UNL     1       3.290   4.527  17.611  0.00  0.00    +0.000 A 
ATOM      3  N   UNL     1       4.191   4.449  16.653  0.00  0.00    +0.000 NA
ATOM      4  C   UNL     1       5.363   4.954  17.162  0.00  0.00    +0.000 A 
ATOM      5  C   UNL     1       6.637   5.122  16.574  0.00  0.00    +0.000 A 
ATOM      6  C   UNL     1       7.685   5.650  17.347  0.00  0.00    +0.000 A 
ATOM      7  C   UNL     1       7.489   5.968  18.687  0.00  0.00    +0.000 A 
ATOM      8  C   UNL     1       6.243   5.773  19.291  0.00  0.00    +0.000 A 
ATOM      9  C   UNL     1       5.184   5.307  18.506  0.00  0.00    +0.000 A 
ATOM     10  N   UNL     1       3.833   5.099  18.746  0.00  0.00    +0.000 N 
BRANCH   5  11
ATOM     11  C   UNL     1       6.930   4.744  15.177  0.00  0.00    +0.000 C 
ATOM     12  O   UNL     1       7.694   5.380  14.466  0.00  0.00    +0.000 OA
BRANCH  11  13
ATOM     13  O   UNL     1       6.199   3.674  14.796  0.00  0.00    +0.000 OA
ATOM     14  C   UNL     1       5.891   3.641  13.404  0.00  0.00    +0.000 C 
ENDBRANCH  11  13
ENDBRANCH   5  11
BRANCH   2  15
ATOM     15  C   UNL     1       1.865   4.089  17.474  0.00  0.00    +0.000 C 
BRANCH  15  17
ATOM     16  C   UNL     1       0.636   2.767  19.227  0.00  0.00    +0.000 C 
ATOM     17  C   UNL     1       1.632   2.704  18.083  0.00  0.00    +0.000 C 
ENDBRANCH  15  17
ENDBRANCH   2  15
ENDBRANCH   1  10
BRANCH   1  18
ATOM     18  C   UNL     1       2.431   6.774  19.883  0.00  0.00    +0.000 A 
ATOM     19  C   UNL     1       1.603   7.237  20.908  0.00  0.00    +0.000 A 
ATOM     20  C   UNL     1       0.789   8.357  20.700  0.00  0.00    +0.000 A 
ATOM     21  C   UNL     1       0.792   9.067  19.481  0.00  0.00    +0.000 A 
ATOM     22  C   UNL     1       1.748   8.677  18.534  0.00  0.00    +0.000 A 
ATOM     23  C   UNL     1       2.546   7.547  18.725  0.00  0.00    +0.000 A 
BRANCH  21  24
ATOM     24  C   UNL     1      -0.180  10.166  19.222  0.00  0.00    +0.000 A 
ATOM     25  C   UNL     1      -0.991  10.086  18.064  0.00  0.00    +0.000 A 
ATOM     26  C   UNL     1      -1.911  11.081  17.721  0.00  0.00    +0.000 A 
ATOM     27  C   UNL     1      -2.075  12.182  18.545  0.00  0.00    +0.000 A 
ATOM     28  C   UNL     1      -1.309  12.296  19.700  0.00  0.00    +0.000 A 
ATOM     29  C   UNL     1      -0.356  11.312  20.044  0.00  0.00    +0.000 A 
BRANCH  29  30
ATOM     30  C   UNL     1       0.480  11.601  21.247  0.00  0.00    +0.000 C 
ATOM     31  O   UNL     1       1.698  11.681  21.256  0.00  0.00    +0.000 OA
BRANCH  30  32
ATOM     32  O   UNL     1      -0.328  11.735  22.331  0.00  0.00    +0.000 OA
ATOM     33  C   UNL     1      -0.723  10.516  22.973  0.00  0.00    +0.000 C 
ENDBRANCH  30  32
ENDBRANCH  29  30
ENDBRANCH  21  24
ENDBRANCH   1  18
TORSDOF 9
ENDMDL
MODEL 2
REMARK VINA RESULT:      -8.7      0.908      1.367
REMARK  Name = 
REMARK  12 active torsions:
REMARK  status: ('A' for Active; 'I' for Inactive)
REMARK    1  A    between atoms: C_1  and  C_2
REMARK    2  A    between atoms: C_2  and  C_3
REMARK    3  A    between atoms: C_3  and  C_4
REMARK    4  A    between atoms: C_7  and  C_8
REMARK    5  A    between atoms: C_8  and  O_10
REMARK    6  A    between atoms: O_10  and  C_11
REMARK    7  A    between atoms: N_16  and  C_17
REMARK    8  A    between atoms: C_17  and  C_18
REMARK    9  A    between atoms: C_21  and  C_22
REMARK   10  A    between atoms: C_27  and  C_28
REMARK   11  A    between atoms: C_28  and  O_30
REMARK   12  A    between atoms: O_30  and  C_31
REMARK                            x       y       z     vdW  Elec       q    Type
REMARK                         _______ _______ _______ _____ _____    ______ ____
ROOT
ATOM      1  C   UNL     1       3.190   5.568  19.736  0.00  0.00    +0.000 C 
ENDROOT
BRANCH   1  10
ATOM      2  C   UNL     1       3.393   4.490  17.447  0.00  0.00    +0.000 A 
ATOM      3  N   UNL     1       4.281   4.401  16.478  0.00  0.00    +0.000 NA
ATOM      4  C   UNL     1       5.420   5.033  16.917  0.00  0.00    +0.000 A 
ATOM      5  C   UNL     1       6.667   5.247  16.288  0.00  0.00    +0.000 A 
ATOM      6  C   UNL     1       7.685   5.913  16.992  0.00  0.00    +0.000 A 
ATOM      7  C   UNL     1       7.488   6.323  18.305  0.00  0.00    +0.000 A 
ATOM      8  C   UNL     1       6.272   6.085  18.953  0.00  0.00    +0.000 A 
ATOM      9  C   UNL     1       5.237   5.479  18.232  0.00  0.00    +0.000 A 
ATOM     10  N   UNL     1       3.911   5.191  18.520  0.00  0.00    +0.000 N 
BRANCH   5  11
ATOM     11  C   UNL     1       6.964   4.779  14.919  0.00  0.00    +0.000 C 
ATOM     12  O   UNL     1       7.740   5.359  14.176  0.00  0.00    +0.000 OA
BRANCH  11  13
ATOM     13  O   UNL     1       6.221   3.697  14.600  0.00  0.00    +0.000 OA
ATOM     14  C   UNL     1       6.034   3.507  13.198  0.00  0.00    +0.000 C 
ENDBRANCH  11  13
ENDBRANCH   5  11
BRANCH   2  15
ATOM     15  C   UNL     1       2.004   3.936  17.379  0.00  0.00    +0.000 C 
BRANCH  15  17
ATOM     16  C   UNL     1       0.776   2.663  19.167  0.00  0.00    +0.000 C 
ATOM     17  C   UNL     1       1.881   2.607  18.128  0.00  0.00    +0.000 C 
ENDBRANCH  15  17
ENDBRANCH   2  15
ENDBRANCH   1  10
BRANCH   1  18
ATOM     18  C   UNL     1       2.537   6.922  19.606  0.00  0.00    +0.000 A 
ATOM     19  C   UNL     1       1.795   7.472  20.653  0.00  0.00    +0.000 A 
ATOM     20  C   UNL     1       0.998   8.601  20.432  0.00  0.00    +0.000 A 
ATOM     21  C   UNL     1       0.934   9.235  19.173  0.00  0.00    +0.000 A 
ATOM     22  C   UNL     1       1.811   8.761  18.190  0.00  0.00    +0.000 A 
ATOM     23  C   UNL     1       2.591   7.620  18.397  0.00  0.00    +0.000 A 
BRANCH  21  24
ATOM     24  C   UNL     1      -0.025  10.345  18.913  0.00  0.00    +0.000 A 
ATOM     25  C   UNL     1      -1.193  10.061  18.164  0.00  0.00    +0.000 A 
ATOM     26  C   UNL     1      -2.137  11.042  17.844  0.00  0.00    +0.000 A 
ATOM     27  C   UNL     1      -1.960  12.340  18.291  0.00  0.00    +0.000 A 
ATOM     28  C   UNL     1      -0.834  12.662  19.040  0.00  0.00    +0.000 A 
ATOM     29  C   UNL     1       0.141  11.688  19.346  0.00  0.00    +0.000 A 
BRANCH  29  30
ATOM     30  C   UNL     1       1.357  12.180  20.061  0.00  0.00    +0.000 C 
ATOM     31  O   UNL     1       1.506  12.193  21.272  0.00  0.00    +0.000 OA
BRANCH  30  32
ATOM     32  O   UNL     1       2.257  12.636  19.150  0.00  0.00    +0.000 OA
ATOM     33  C   UNL     1       2.857  13.904  19.440  0.00  0.00    +0.000 C 
ENDBRANCH  30  32
ENDBRANCH  29  30
ENDBRANCH  21  24
ENDBRANCH   1  18
TORSDOF 9
ENDMDL
MODEL 3
REMARK VINA RESULT:      -8.6      1.530      2.384
REMARK  Name = 
REMARK  12 active torsions:
REMARK  status: ('A' for Active; 'I' for Inactive)
REMARK    1  A    between atoms: C_1  and  C_2
REMARK    2  A    between atoms: C_2  and  C_3
REMARK    3  A    between atoms: C_3  and  C_4
REMARK    4  A    between atoms: C_7  and  C_8
REMARK    5  A    between atoms: C_8  and  O_10
REMARK    6  A    between atoms: O_10  and  C_11
REMARK    7  A    between atoms: N_16  and  C_17
REMARK    8  A    between atoms: C_17  and  C_18
REMARK    9  A    between atoms: C_21  and  C_22
REMARK   10  A    between atoms: C_27  and  C_28
REMARK   11  A    between atoms: C_28  and  O_30
REMARK   12  A    between atoms: O_30  and  C_31
REMARK                            x       y       z     vdW  Elec       q    Type
REMARK                         _______ _______ _______ _____ _____    ______ ____
ROOT
ATOM      1  C   UNL     1       3.119   5.718  19.937  0.00  0.00    +0.000 C 
ENDROOT
BRANCH   1  10
ATOM      2  C   UNL     1       3.174   4.588  17.664  0.00  0.00    +0.000 A 
ATOM      3  N   UNL     1       4.031   4.398  16.682  0.00  0.00    +0.000 NA
ATOM      4  C   UNL     1       5.234   4.920  17.091  0.00  0.00    +0.000 A 
ATOM      5  C   UNL     1       6.484   5.000  16.438  0.00  0.00    +0.000 A 
ATOM      6  C   UNL     1       7.575   5.574  17.113  0.00  0.00    +0.000 A 
ATOM      7  C   UNL     1       7.444   6.022  18.423  0.00  0.00    +0.000 A 
ATOM      8  C   UNL     1       6.222   5.916  19.094  0.00  0.00    +0.000 A 
ATOM      9  C   UNL     1       5.120   5.403  18.401  0.00  0.00    +0.000 A 
ATOM     10  N   UNL     1       3.778   5.252  18.716  0.00  0.00    +0.000 N 
BRANCH   5  11
ATOM     11  C   UNL     1       6.709   4.484  15.073  0.00  0.00    +0.000 C 
ATOM     12  O   UNL     1       6.192   3.457  14.661  0.00  0.00    +0.000 OA
BRANCH  11  13
ATOM     13  O   UNL     1       7.597   5.249  14.401  0.00  0.00    +0.000 OA
ATOM     14  C   UNL     1       7.684   4.958  13.007  0.00  0.00    +0.000 C 
ENDBRANCH  11  13
ENDBRANCH   5  11
BRANCH   2  15
ATOM     15  C   UNL     1       1.736   4.174  17.629  0.00  0.00    +0.000 C 
BRANCH  15  17
ATOM     16  C   UNL     1       0.847   2.960  19.645  0.00  0.00    +0.000 C 
ATOM     17  C   UNL     1       1.517   2.812  18.291  0.00  0.00    +0.000 C 
ENDBRANCH  15  17
ENDBRANCH   2  15
ENDBRANCH   1  10
BRANCH   1  18
ATOM     18  C   UNL     1       2.298   6.960  19.695  0.00  0.00    +0.000 A 
ATOM     19  C   UNL     1       2.403   7.675  18.501  0.00  0.00    +0.000 A 
ATOM     20  C   UNL     1       1.829   8.948  18.391  0.00  0.00    +0.000 A 
ATOM     21  C   UNL     1       1.111   9.537  19.453  0.00  0.00    +0.000 A 
ATOM     22  C   UNL     1       0.883   8.731  20.576  0.00  0.00    +0.000 A 
ATOM     23  C   UNL     1       1.473   7.471  20.701  0.00  0.00    +0.000 A 
BRANCH  21  24
ATOM     24  C   UNL     1       0.630  10.945  19.375  0.00  0.00    +0.000 A 
ATOM     25  C   UNL     1       1.379  11.947  20.038  0.00  0.00    +0.000 A 
ATOM     26  C   UNL     1       0.993  13.291  20.047  0.00  0.00    +0.000 A 
ATOM     27  C   UNL     1      -0.145  13.685  19.364  0.00  0.00    +0.000 A 
ATOM     28  C   UNL     1      -0.905  12.737  18.689  0.00  0.00    +0.000 A 
ATOM     29  C   UNL     1      -0.542  11.372  18.695  0.00  0.00    +0.000 A 
BRANCH  29  30
ATOM     30  C   UNL     1      -1.497  10.437  18.028  0.00  0.00    +0.000 C 
ATOM     31  O   UNL     1      -1.216   9.673  17.118  0.00  0.00    +0.000 OA
BRANCH  30  32
ATOM     32  O   UNL     1      -2.731  10.593  18.576  0.00  0.00    +0.000 OA
ATOM     33  C   UNL     1      -3.838  10.468  17.675  0.00  0.00    +0.000 C 
ENDBRANCH  30  32
ENDBRANCH  29  30
ENDBRANCH  21  24
ENDBRANCH   1  18
TORSDOF 9
ENDMDL
MODEL 4
REMARK VINA RESULT:      -8.6      3.218      9.391
REMARK  Name = 
REMARK  12 active torsions:
REMARK  status: ('A' for Active; 'I' for Inactive)
REMARK    1  A    between atoms: C_1  and  C_2
REMARK    2  A    between atoms: C_2  and  C_3
REMARK    3  A    between atoms: C_3  and  C_4
REMARK    4  A    between atoms: C_7  and  C_8
REMARK    5  A    between atoms: C_8  and  O_10
REMARK    6  A    between atoms: O_10  and  C_11
REMARK    7  A    between atoms: N_16  and  C_17
REMARK    8  A    between atoms: C_17  and  C_18
REMARK    9  A    between atoms: C_21  and  C_22
REMARK   10  A    between atoms: C_27  and  C_28
REMARK   11  A    between atoms: C_28  and  O_30
REMARK   12  A    between atoms: O_30  and  C_31
REMARK                            x       y       z     vdW  Elec       q    Type
REMARK                         _______ _______ _______ _____ _____    ______ ____
ROOT
ATOM      1  C   UNL     1       1.032  11.035  18.960  0.00  0.00    +0.000 C 
ENDROOT
BRANCH   1  10
ATOM      2  C   UNL     1      -1.054  11.721  20.234  0.00  0.00    +0.000 A 
ATOM      3  N   UNL     1      -2.356  11.761  20.039  0.00  0.00    +0.000 NA
ATOM      4  C   UNL     1      -2.596  11.198  18.808  0.00  0.00    +0.000 A 
ATOM      5  C   UNL     1      -3.799  10.995  18.096  0.00  0.00    +0.000 A 
ATOM      6  C   UNL     1      -3.755  10.358  16.844  0.00  0.00    +0.000 A 
ATOM      7  C   UNL     1      -2.552   9.894  16.325  0.00  0.00    +0.000 A 
ATOM      8  C   UNL     1      -1.359  10.055  17.035  0.00  0.00    +0.000 A 
ATOM      9  C   UNL     1      -1.392  10.745  18.252  0.00  0.00    +0.000 A 
ATOM     10  N   UNL     1      -0.414  11.160  19.144  0.00  0.00    +0.000 N 
BRANCH   5  11
ATOM     11  C   UNL     1      -5.118  11.404  18.619  0.00  0.00    +0.000 C 
ATOM     12  O   UNL     1      -5.375  12.554  18.940  0.00  0.00    +0.000 OA
BRANCH  11  13
ATOM     13  O   UNL     1      -5.941  10.341  18.755  0.00  0.00    +0.000 OA
ATOM     14  C   UNL     1      -7.006  10.539  19.683  0.00  0.00    +0.000 C 
ENDBRANCH  11  13
ENDBRANCH   5  11
BRANCH   2  15
ATOM     15  C   UNL     1      -0.362  12.242  21.455  0.00  0.00    +0.000 C 
BRANCH  15  17
ATOM     16  C   UNL     1      -0.861  10.378  23.069  0.00  0.00    +0.000 C 
ATOM     17  C   UNL     1      -1.091  11.843  22.740  0.00  0.00    +0.000 C 
ENDBRANCH  15  17
ENDBRANCH   2  15
ENDBRANCH   1  10
BRANCH   1  18
ATOM     18  C   UNL     1       1.513   9.629  19.226  0.00  0.00    +0.000 A 
ATOM     19  C   UNL     1       2.064   8.848  18.209  0.00  0.00    +0.000 A 
ATOM     20  C   UNL     1       2.272   7.478  18.410  0.00  0.00    +0.000 A 
ATOM     21  C   UNL     1       1.965   6.848  19.634  0.00  0.00    +0.000 A 
ATOM     22  C   UNL     1       1.568   7.685  20.685  0.00  0.00    +0.000 A 
ATOM     23  C   UNL     1       1.336   9.048  20.484  0.00  0.00    +0.000 A 
BRANCH  21  24
ATOM     24  C   UNL     1       2.056   5.369  19.788  0.00  0.00    +0.000 A 
ATOM     25  C   UNL     1       0.996   4.696  20.445  0.00  0.00    +0.000 A 
ATOM     26  C   UNL     1       1.004   3.316  20.662  0.00  0.00    +0.000 A 
ATOM     27  C   UNL     1       2.062   2.551  20.200  0.00  0.00    +0.000 A 
ATOM     28  C   UNL     1       3.119   3.167  19.539  0.00  0.00    +0.000 A 
ATOM     29  C   UNL     1       3.137   4.565  19.337  0.00  0.00    +0.000 A 
BRANCH  29  30
ATOM     30  C   UNL     1       4.375   5.121  18.713  0.00  0.00    +0.000 C 
ATOM     31  O   UNL     1       5.304   5.628  19.320  0.00  0.00    +0.000 OA
BRANCH  30  32
ATOM     32  O   UNL     1       4.289   4.996  17.362  0.00  0.00    +0.000 OA
ATOM     33  C   UNL     1       5.315   5.647  16.605  0.00  0.00    +0.000 C 
ENDBRANCH  30  32
ENDBRANCH  29  30
ENDBRANCH  21  24
ENDBRANCH   1  18
TORSDOF 9
ENDMDL
MODEL 5
REMARK VINA RESULT:      -8.5      1.020      1.323
REMARK  Name = 
REMARK  12 active torsions:
REMARK  status: ('A' for Active; 'I' for Inactive)
REMARK    1  A    between atoms: C_1  and  C_2
REMARK    2  A    between atoms: C_2  and  C_3
REMARK    3  A    between atoms: C_3  and  C_4
REMARK    4  A    between atoms: C_7  and  C_8
REMARK    5  A    between atoms: C_8  and  O_10
REMARK    6  A    between atoms: O_10  and  C_11
REMARK    7  A    between atoms: N_16  and  C_17
REMARK    8  A    between atoms: C_17  and  C_18
REMARK    9  A    between atoms: C_21  and  C_22
REMARK   10  A    between atoms: C_27  and  C_28
REMARK   11  A    between atoms: C_28  and  O_30
REMARK   12  A    between atoms: O_30  and  C_31
REMARK                            x       y       z     vdW  Elec       q    Type
REMARK                         _______ _______ _______ _____ _____    ______ ____
ROOT
ATOM      1  C   UNL     1       3.229   5.674  19.733  0.00  0.00    +0.000 C 
ENDROOT
BRANCH   1  10
ATOM      2  C   UNL     1       3.358   4.493  17.488  0.00  0.00    +0.000 A 
ATOM      3  N   UNL     1       4.215   4.357  16.497  0.00  0.00    +0.000 NA
ATOM      4  C   UNL     1       5.369   5.002  16.872  0.00  0.00    +0.000 A 
ATOM      5  C   UNL     1       6.596   5.182  16.196  0.00  0.00    +0.000 A 
ATOM      6  C   UNL     1       7.637   5.875  16.837  0.00  0.00    +0.000 A 
ATOM      7  C   UNL     1       7.483   6.344  18.137  0.00  0.00    +0.000 A 
ATOM      8  C   UNL     1       6.287   6.141  18.831  0.00  0.00    +0.000 A 
ATOM      9  C   UNL     1       5.228   5.508  18.171  0.00  0.00    +0.000 A 
ATOM     10  N   UNL     1       3.911   5.239  18.513  0.00  0.00    +0.000 N 
BRANCH   5  11
ATOM     11  C   UNL     1       6.849   4.652  14.841  0.00  0.00    +0.000 C 
ATOM     12  O   UNL     1       6.400   3.584  14.454  0.00  0.00    +0.000 OA
BRANCH  11  13
ATOM     13  O   UNL     1       7.680   5.460  14.147  0.00  0.00    +0.000 OA
ATOM     14  C   UNL     1       7.732   5.185  12.749  0.00  0.00    +0.000 C 
ENDBRANCH  11  13
ENDBRANCH   5  11
BRANCH   2  15
ATOM     15  C   UNL     1       1.965   3.943  17.489  0.00  0.00    +0.000 C 
BRANCH  15  17
ATOM     16  C   UNL     1       0.623   2.337  18.883  0.00  0.00    +0.000 C 
ATOM     17  C   UNL     1       1.905   2.540  18.095  0.00  0.00    +0.000 C 
ENDBRANCH  15  17
ENDBRANCH   2  15
ENDBRANCH   1  10
BRANCH   1  18
ATOM     18  C   UNL     1       2.549   7.009  19.552  0.00  0.00    +0.000 A 
ATOM     19  C   UNL     1       1.860   7.618  20.602  0.00  0.00    +0.000 A 
ATOM     20  C   UNL     1       1.035   8.721  20.354  0.00  0.00    +0.000 A 
ATOM     21  C   UNL     1       0.890   9.270  19.062  0.00  0.00    +0.000 A 
ATOM     22  C   UNL     1       1.717   8.741  18.063  0.00  0.00    +0.000 A 
ATOM     23  C   UNL     1       2.524   7.625  18.298  0.00  0.00    +0.000 A 
BRANCH  21  24
ATOM     24  C   UNL     1      -0.099  10.349  18.786  0.00  0.00    +0.000 A 
ATOM     25  C   UNL     1      -1.325   9.995  18.171  0.00  0.00    +0.000 A 
ATOM     26  C   UNL     1      -2.302  10.940  17.846  0.00  0.00    +0.000 A 
ATOM     27  C   UNL     1      -2.101  12.275  18.155  0.00  0.00    +0.000 A 
ATOM     28  C   UNL     1      -0.917  12.667  18.770  0.00  0.00    +0.000 A 
ATOM     29  C   UNL     1       0.091  11.726  19.079  0.00  0.00    +0.000 A 
BRANCH  29  30
ATOM     30  C   UNL     1       1.359  12.284  19.637  0.00  0.00    +0.000 C 
ATOM     31  O   UNL     1       2.404  12.413  19.021  0.00  0.00    +0.000 OA
BRANCH  30  32
ATOM     32  O   UNL     1       1.170  12.600  20.945  0.00  0.00    +0.000 OA
ATOM     33  C   UNL     1       1.351  13.978  21.292  0.00  0.00    +0.000 C 
ENDBRANCH  30  32
ENDBRANCH  29  30
ENDBRANCH  21  24
ENDBRANCH   1  18
TORSDOF 9
ENDMDL
MODEL 6
REMARK VINA RESULT:      -8.5      3.175      9.409
REMARK  Name = 
REMARK  12 active torsions:
REMARK  status: ('A' for Active; 'I' for Inactive)
REMARK    1  A    between atoms: C_1  and  C_2
REMARK    2  A    between atoms: C_2  and  C_3
REMARK    3  A    between atoms: C_3  and  C_4
REMARK    4  A    between atoms: C_7  and  C_8
REMARK    5  A    between atoms: C_8  and  O_10
REMARK    6  A    between atoms: O_10  and  C_11
REMARK    7  A    between atoms: N_16  and  C_17
REMARK    8  A    between atoms: C_17  and  C_18
REMARK    9  A    between atoms: C_21  and  C_22
REMARK   10  A    between atoms: C_27  and  C_28
REMARK   11  A    between atoms: C_28  and  O_30
REMARK   12  A    between atoms: O_30  and  C_31
REMARK                            x       y       z     vdW  Elec       q    Type
REMARK                         _______ _______ _______ _____ _____    ______ ____
ROOT
ATOM      1  C   UNL     1       1.102  10.885  18.644  0.00  0.00    +0.000 C 
ENDROOT
BRANCH   1  10
ATOM      2  C   UNL     1      -0.904  11.598  20.027  0.00  0.00    +0.000 A 
ATOM      3  N   UNL     1      -2.214  11.659  19.898  0.00  0.00    +0.000 NA
ATOM      4  C   UNL     1      -2.525  11.105  18.680  0.00  0.00    +0.000 A 
ATOM      5  C   UNL     1      -3.767  10.923  18.030  0.00  0.00    +0.000 A 
ATOM      6  C   UNL     1      -3.798  10.291  16.776  0.00  0.00    +0.000 A 
ATOM      7  C   UNL     1      -2.631   9.811  16.194  0.00  0.00    +0.000 A 
ATOM      8  C   UNL     1      -1.400   9.951  16.842  0.00  0.00    +0.000 A 
ATOM      9  C   UNL     1      -1.360  10.636  18.061  0.00  0.00    +0.000 A 
ATOM     10  N   UNL     1      -0.331  11.033  18.903  0.00  0.00    +0.000 N 
BRANCH   5  11
ATOM     11  C   UNL     1      -5.050  11.350  18.622  0.00  0.00    +0.000 C 
ATOM     12  O   UNL     1      -5.991  10.587  18.784  0.00  0.00    +0.000 OA
BRANCH  11  13
ATOM     13  O   UNL     1      -5.054  12.677  18.879  0.00  0.00    +0.000 OA
ATOM     14  C   UNL     1      -6.012  13.082  19.855  0.00  0.00    +0.000 C 
ENDBRANCH  11  13
ENDBRANCH   5  11
BRANCH   2  15
ATOM     15  C   UNL     1      -0.142  12.103  21.212  0.00  0.00    +0.000 C 
BRANCH  15  17
ATOM     16  C   UNL     1      -0.643  10.390  22.984  0.00  0.00    +0.000 C 
ATOM     17  C   UNL     1      -0.873  11.819  22.525  0.00  0.00    +0.000 C 
ENDBRANCH  15  17
ENDBRANCH   2  15
ENDBRANCH   1  10
BRANCH   1  18
ATOM     18  C   UNL     1       1.595   9.499  18.980  0.00  0.00    +0.000 A 
ATOM     19  C   UNL     1       2.115   8.658  17.994  0.00  0.00    +0.000 A 
ATOM     20  C   UNL     1       2.333   7.303  18.271  0.00  0.00    +0.000 A 
ATOM     21  C   UNL     1       2.067   6.748  19.541  0.00  0.00    +0.000 A 
ATOM     22  C   UNL     1       1.702   7.647  20.551  0.00  0.00    +0.000 A 
ATOM     23  C   UNL     1       1.460   8.995  20.276  0.00  0.00    +0.000 A 
BRANCH  21  24
ATOM     24  C   UNL     1       2.166   5.281  19.781  0.00  0.00    +0.000 A 
ATOM     25  C   UNL     1       1.114   4.643  20.483  0.00  0.00    +0.000 A 
ATOM     26  C   UNL     1       1.130   3.278  20.782  0.00  0.00    +0.000 A 
ATOM     27  C   UNL     1       2.189   2.492  20.359  0.00  0.00    +0.000 A 
ATOM     28  C   UNL     1       3.239   3.073  19.656  0.00  0.00    +0.000 A 
ATOM     29  C   UNL     1       3.248   4.457  19.372  0.00  0.00    +0.000 A 
BRANCH  29  30
ATOM     30  C   UNL     1       4.480   4.981  18.708  0.00  0.00    +0.000 C 
ATOM     31  O   UNL     1       4.673   5.012  17.504  0.00  0.00    +0.000 OA
BRANCH  30  32
ATOM     32  O   UNL     1       5.360   5.390  19.659  0.00  0.00    +0.000 OA
ATOM     33  C   UNL     1       6.726   5.503  19.244  0.00  0.00    +0.000 C 
ENDBRANCH  30  32
ENDBRANCH  29  30
ENDBRANCH  21  24
ENDBRANCH   1  18
TORSDOF 9
ENDMDL
MODEL 7
REMARK VINA RESULT:      -8.4      3.458      9.020
REMARK  Name = 
REMARK  12 active torsions:
REMARK  status: ('A' for Active; 'I' for Inactive)
REMARK    1  A    between atoms: C_1  and  C_2
REMARK    2  A    between atoms: C_2  and  C_3
REMARK    3  A    between atoms: C_3  and  C_4
REMARK    4  A    between atoms: C_7  and  C_8
REMARK    5  A    between atoms: C_8  and  O_10
REMARK    6  A    between atoms: O_10  and  C_11
REMARK    7  A    between atoms: N_16  and  C_17
REMARK    8  A    between atoms: C_17  and  C_18
REMARK    9  A    between atoms: C_21  and  C_22
REMARK   10  A    between atoms: C_27  and  C_28
REMARK   11  A    between atoms: C_28  and  O_30
REMARK   12  A    between atoms: O_30  and  C_31
REMARK                            x       y       z     vdW  Elec       q    Type
REMARK                         _______ _______ _______ _____ _____    ______ ____
ROOT
ATOM      1  C   UNL     1      -0.260   9.861  20.174  0.00  0.00    +0.000 C 
ENDROOT
BRANCH   1  10
ATOM      2  C   UNL     1      -1.300  11.718  18.790  0.00  0.00    +0.000 A 
ATOM      3  N   UNL     1      -1.131  13.009  18.592  0.00  0.00    +0.000 NA
ATOM      4  C   UNL     1      -0.022  13.384  19.313  0.00  0.00    +0.000 A 
ATOM      5  C   UNL     1       0.602  14.641  19.474  0.00  0.00    +0.000 A 
ATOM      6  C   UNL     1       1.761  14.736  20.263  0.00  0.00    +0.000 A 
ATOM      7  C   UNL     1       2.316  13.603  20.848  0.00  0.00    +0.000 A 
ATOM      8  C   UNL     1       1.729  12.347  20.668  0.00  0.00    +0.000 A 
ATOM      9  C   UNL     1       0.540  12.262  19.935  0.00  0.00    +0.000 A 
ATOM     10  N   UNL     1      -0.337  11.226  19.651  0.00  0.00    +0.000 N 
BRANCH   5  11
ATOM     11  C   UNL     1       0.103  15.872  18.826  0.00  0.00    +0.000 C 
ATOM     12  O   UNL     1      -1.033  16.290  18.989  0.00  0.00    +0.000 OA
BRANCH  11  13
ATOM     13  O   UNL     1       1.033  16.402  18.002  0.00  0.00    +0.000 OA
ATOM     14  C   UNL     1       1.356  17.763  18.281  0.00  0.00    +0.000 C 
ENDBRANCH  11  13
ENDBRANCH   5  11
BRANCH   2  15
ATOM     15  C   UNL     1      -2.405  10.905  18.191  0.00  0.00    +0.000 C 
BRANCH  15  17
ATOM     16  C   UNL     1      -2.693  10.487  15.728  0.00  0.00    +0.000 C 
ATOM     17  C   UNL     1      -1.930  10.098  16.981  0.00  0.00    +0.000 C 
ENDBRANCH  15  17
ENDBRANCH   2  15
ENDBRANCH   1  10
BRANCH   1  18
ATOM     18  C   UNL     1       0.906   9.101  19.593  0.00  0.00    +0.000 A 
ATOM     19  C   UNL     1       1.328   9.316  18.279  0.00  0.00    +0.000 A 
ATOM     20  C   UNL     1       2.239   8.437  17.682  0.00  0.00    +0.000 A 
ATOM     21  C   UNL     1       2.780   7.334  18.377  0.00  0.00    +0.000 A 
ATOM     22  C   UNL     1       2.464   7.240  19.739  0.00  0.00    +0.000 A 
ATOM     23  C   UNL     1       1.538   8.099  20.334  0.00  0.00    +0.000 A 
BRANCH  21  24
ATOM     24  C   UNL     1       3.634   6.327  17.688  0.00  0.00    +0.000 A 
ATOM     25  C   UNL     1       4.857   6.761  17.120  0.00  0.00    +0.000 A 
ATOM     26  C   UNL     1       5.711   5.897  16.429  0.00  0.00    +0.000 A 
ATOM     27  C   UNL     1       5.386   4.557  16.306  0.00  0.00    +0.000 A 
ATOM     28  C   UNL     1       4.201   4.084  16.858  0.00  0.00    +0.000 A 
ATOM     29  C   UNL     1       3.315   4.951  17.535  0.00  0.00    +0.000 A 
BRANCH  29  30
ATOM     30  C   UNL     1       2.025   4.348  17.987  0.00  0.00    +0.000 C 
ATOM     31  O   UNL     1       0.997   4.310  17.331  0.00  0.00    +0.000 OA
BRANCH  30  32
ATOM     32  O   UNL     1       2.172   3.874  19.252  0.00  0.00    +0.000 OA
ATOM     33  C   UNL     1       0.973   3.779  20.031  0.00  0.00    +0.000 C 
ENDBRANCH  30  32
ENDBRANCH  29  30
ENDBRANCH  21  24
ENDBRANCH   1  18
TORSDOF 9
ENDMDL
MODEL 8
REMARK VINA RESULT:      -8.4      3.411      8.978
REMARK  Name = 
REMARK  12 active torsions:
REMARK  status: ('A' for Active; 'I' for Inactive)
REMARK    1  A    between atoms: C_1  and  C_2
REMARK    2  A    between atoms: C_2  and  C_3
REMARK    3  A    between atoms: C_3  and  C_4
REMARK    4  A    between atoms: C_7  and  C_8
REMARK    5  A    between atoms: C_8  and  O_10
REMARK    6  A    between atoms: O_10  and  C_11
REMARK    7  A    between atoms: N_16  and  C_17
REMARK    8  A    between atoms: C_17  and  C_18
REMARK    9  A    between atoms: C_21  and  C_22
REMARK   10  A    between atoms: C_27  and  C_28
REMARK   11  A    between atoms: C_28  and  O_30
REMARK   12  A    between atoms: O_30  and  C_31
REMARK                            x       y       z     vdW  Elec       q    Type
REMARK                         _______ _______ _______ _____ _____    ______ ____
ROOT
ATOM      1  C   UNL     1      -0.019  10.347  19.319  0.00  0.00    +0.000 C 
ENDROOT
BRANCH   1  10
ATOM      2  C   UNL     1       0.032  11.897  21.329  0.00  0.00    +0.000 A 
ATOM      3  N   UNL     1       0.718  12.941  21.747  0.00  0.00    +0.000 NA
ATOM      4  C   UNL     1       1.590  13.280  20.740  0.00  0.00    +0.000 A 
ATOM      5  C   UNL     1       2.561  14.302  20.654  0.00  0.00    +0.000 A 
ATOM      6  C   UNL     1       3.309  14.440  19.473  0.00  0.00    +0.000 A 
ATOM      7  C   UNL     1       3.074  13.611  18.383  0.00  0.00    +0.000 A 
ATOM      8  C   UNL     1       2.091  12.618  18.440  0.00  0.00    +0.000 A 
ATOM      9  C   UNL     1       1.390  12.439  19.638  0.00  0.00    +0.000 A 
ATOM     10  N   UNL     1       0.447  11.516  20.066  0.00  0.00    +0.000 N 
BRANCH   5  11
ATOM     11  C   UNL     1       2.815  15.259  21.750  0.00  0.00    +0.000 C 
ATOM     12  O   UNL     1       3.312  14.927  22.816  0.00  0.00    +0.000 OA
BRANCH  11  13
ATOM     13  O   UNL     1       2.364  16.493  21.437  0.00  0.00    +0.000 OA
ATOM     14  C   UNL     1       1.029  16.756  21.866  0.00  0.00    +0.000 C 
ENDBRANCH  11  13
ENDBRANCH   5  11
BRANCH   2  15
ATOM     15  C   UNL     1      -1.025  11.200  22.126  0.00  0.00    +0.000 C 
BRANCH  15  17
ATOM     16  C   UNL     1      -0.527   8.783  22.613  0.00  0.00    +0.000 C 
ATOM     17  C   UNL     1      -0.427  10.209  23.126  0.00  0.00    +0.000 C 
ENDBRANCH  15  17
ENDBRANCH   2  15
ENDBRANCH   1  10
BRANCH   1  18
ATOM     18  C   UNL     1       1.108   9.394  19.005  0.00  0.00    +0.000 A 
ATOM     19  C   UNL     1       1.723   9.388  17.752  0.00  0.00    +0.000 A 
ATOM     20  C   UNL     1       2.587   8.344  17.398  0.00  0.00    +0.000 A 
ATOM     21  C   UNL     1       2.886   7.289  18.286  0.00  0.00    +0.000 A 
ATOM     22  C   UNL     1       2.384   7.408  19.589  0.00  0.00    +0.000 A 
ATOM     23  C   UNL     1       1.503   8.434  19.940  0.00  0.00    +0.000 A 
BRANCH  21  24
ATOM     24  C   UNL     1       3.689   6.113  17.849  0.00  0.00    +0.000 A 
ATOM     25  C   UNL     1       5.037   6.325  17.469  0.00  0.00    +0.000 A 
ATOM     26  C   UNL     1       5.861   5.290  17.017  0.00  0.00    +0.000 A 
ATOM     27  C   UNL     1       5.373   3.996  16.958  0.00  0.00    +0.000 A 
ATOM     28  C   UNL     1       4.059   3.739  17.332  0.00  0.00    +0.000 A 
ATOM     29  C   UNL     1       3.207   4.779  17.764  0.00  0.00    +0.000 A 
BRANCH  29  30
ATOM     30  C   UNL     1       1.789   4.396  18.033  0.00  0.00    +0.000 C 
ATOM     31  O   UNL     1       0.892   4.384  17.206  0.00  0.00    +0.000 OA
BRANCH  30  32
ATOM     32  O   UNL     1       1.651   4.089  19.350  0.00  0.00    +0.000 OA
ATOM     33  C   UNL     1       0.828   2.955  19.648  0.00  0.00    +0.000 C 
ENDBRANCH  30  32
ENDBRANCH  29  30
ENDBRANCH  21  24
ENDBRANCH   1  18
TORSDOF 9
ENDMDL
MODEL 9
REMARK VINA RESULT:      -8.3      3.020      9.354
REMARK  Name = 
REMARK  12 active torsions:
REMARK  status: ('A' for Active; 'I' for Inactive)
REMARK    1  A    between atoms: C_1  and  C_2
REMARK    2  A    between atoms: C_2  and  C_3
REMARK    3  A    between atoms: C_3  and  C_4
REMARK    4  A    between atoms: C_7  and  C_8
REMARK    5  A    between atoms: C_8  and  O_10
REMARK    6  A    between atoms: O_10  and  C_11
REMARK    7  A    between atoms: N_16  and  C_17
REMARK    8  A    between atoms: C_17  and  C_18
REMARK    9  A    between atoms: C_21  and  C_22
REMARK   10  A    between atoms: C_27  and  C_28
REMARK   11  A    between atoms: C_28  and  O_30
REMARK   12  A    between atoms: O_30  and  C_31
REMARK                            x       y       z     vdW  Elec       q    Type
REMARK                         _______ _______ _______ _____ _____    ______ ____
ROOT
ATOM      1  C   UNL     1       1.324  10.785  18.253  0.00  0.00    +0.000 C 
ENDROOT
BRANCH   1  10
ATOM      2  C   UNL     1      -1.204  10.720  18.481  0.00  0.00    +0.000 A 
ATOM      3  N   UNL     1      -2.129  11.179  19.299  0.00  0.00    +0.000 NA
ATOM      4  C   UNL     1      -1.489  11.961  20.231  0.00  0.00    +0.000 A 
ATOM      5  C   UNL     1      -1.987  12.684  21.338  0.00  0.00    +0.000 A 
ATOM      6  C   UNL     1      -1.096  13.435  22.123  0.00  0.00    +0.000 A 
ATOM      7  C   UNL     1       0.253  13.505  21.795  0.00  0.00    +0.000 A 
ATOM      8  C   UNL     1       0.753  12.825  20.681  0.00  0.00    +0.000 A 
ATOM      9  C   UNL     1      -0.122  12.026  19.936  0.00  0.00    +0.000 A 
ATOM     10  N   UNL     1       0.049  11.163  18.864  0.00  0.00    +0.000 N 
BRANCH   5  11
ATOM     11  C   UNL     1      -3.418  12.706  21.702  0.00  0.00    +0.000 C 
ATOM     12  O   UNL     1      -3.850  12.181  22.717  0.00  0.00    +0.000 OA
BRANCH  11  13
ATOM     13  O   UNL     1      -4.158  13.306  20.744  0.00  0.00    +0.000 OA
ATOM     14  C   UNL     1      -5.334  12.589  20.377  0.00  0.00    +0.000 C 
ENDBRANCH  11  13
ENDBRANCH   5  11
BRANCH   2  15
ATOM     15  C   UNL     1      -1.471   9.815  17.319  0.00  0.00    +0.000 C 
BRANCH  15  17
ATOM     16  C   UNL     1      -2.878  10.303  15.293  0.00  0.00    +0.000 C 
ATOM     17  C   UNL     1      -2.891   9.984  16.777  0.00  0.00    +0.000 C 
ENDBRANCH  15  17
ENDBRANCH   2  15
ENDBRANCH   1  10
BRANCH   1  18
ATOM     18  C   UNL     1       1.780   9.418  18.702  0.00  0.00    +0.000 A 
ATOM     19  C   UNL     1       2.352   8.516  17.804  0.00  0.00    +0.000 A 
ATOM     20  C   UNL     1       2.538   7.178  18.175  0.00  0.00    +0.000 A 
ATOM     21  C   UNL     1       2.186   6.703  19.456  0.00  0.00    +0.000 A 
ATOM     22  C   UNL     1       1.767   7.664  20.385  0.00  0.00    +0.000 A 
ATOM     23  C   UNL     1       1.557   8.994  20.014  0.00  0.00    +0.000 A 
BRANCH  21  24
ATOM     24  C   UNL     1       2.254   5.253  19.789  0.00  0.00    +0.000 A 
ATOM     25  C   UNL     1       1.186   4.682  20.524  0.00  0.00    +0.000 A 
ATOM     26  C   UNL     1       1.174   3.338  20.908  0.00  0.00    +0.000 A 
ATOM     27  C   UNL     1       2.219   2.507  20.544  0.00  0.00    +0.000 A 
ATOM     28  C   UNL     1       3.283   3.021  19.812  0.00  0.00    +0.000 A 
ATOM     29  C   UNL     1       3.322   4.383  19.441  0.00  0.00    +0.000 A 
BRANCH  29  30
ATOM     30  C   UNL     1       4.568   4.839  18.753  0.00  0.00    +0.000 C 
ATOM     31  O   UNL     1       4.791   4.738  17.558  0.00  0.00    +0.000 OA
BRANCH  30  32
ATOM     32  O   UNL     1       5.422   5.358  19.675  0.00  0.00    +0.000 OA
ATOM     33  C   UNL     1       6.775   5.545  19.242  0.00  0.00    +0.000 C 
ENDBRANCH  30  32
ENDBRANCH  29  30
ENDBRANCH  21  24
ENDBRANCH   1  18
TORSDOF 9
ENDMDL
