MODEL 1
REMARK VINA RESULT:      -8.0      0.000      0.000
REMARK  Name = 
REMARK  10 active torsions:
REMARK  status: ('A' for Active; 'I' for Inactive)
REMARK    1  A    between atoms: C_1  and  C_2
REMARK    2  A    between atoms: C_6  and  N_7
REMARK    3  A    between atoms: N_7  and  C_8
REMARK    4  A    between atoms: C_8  and  N_10
REMARK    5  A    between atoms: N_10  and  C_11
REMARK    6  A    between atoms: N_10  and  C_19
REMARK    7  A    between atoms: C_11  and  C_12
REMARK    8  A    between atoms: C_19  and  C_20
REMARK    9  A    between atoms: C_23  and  C_24
REMARK   10  A    between atoms: C_24  and  O_26
REMARK                            x       y       z     vdW  Elec       q    Type
REMARK                         _______ _______ _______ _____ _____    ______ ____
ROOT
ATOM      1  N   UNL     1       4.570   5.431  17.099  0.00  0.00    +0.000 N 
ENDROOT
BRANCH   1   2
ATOM      2  C   UNL     1       5.939   5.125  17.201  0.00  0.00    +0.000 C 
ATOM      3  S   UNL     1       6.992   5.962  18.213  0.00  0.00    +0.000 S 
BRANCH   2   4
ATOM      4  N   UNL     1       6.318   4.111  16.331  0.00  0.00    +0.000 N 
ATOM      5  H   UNL     1       6.165   3.183  16.701  0.00  0.00    +0.000 HD
BRANCH   4  11
ATOM      6  C   UNL     1       5.164   2.793  11.700  0.00  0.00    +0.000 C 
ATOM      7  C   UNL     1       6.011   3.583  12.651  0.00  0.00    +0.000 A 
ATOM      8  C   UNL     1       7.016   4.441  12.198  0.00  0.00    +0.000 A 
ATOM      9  C   UNL     1       7.761   5.194  13.107  0.00  0.00    +0.000 A 
ATOM     10  C   UNL     1       7.516   5.082  14.476  0.00  0.00    +0.000 A 
ATOM     11  C   UNL     1       6.548   4.191  14.945  0.00  0.00    +0.000 A 
ATOM     12  C   UNL     1       5.782   3.468  14.029  0.00  0.00    +0.000 A 
ENDBRANCH   4  11
ENDBRANCH   2   4
ENDBRANCH   1   2
BRANCH   1  13
ATOM     13  C   UNL     1       3.571   4.367  16.912  0.00  0.00    +0.000 C 
BRANCH  13  14
ATOM     14  C   UNL     1       3.000   3.772  18.193  0.00  0.00    +0.000 A 
ATOM     15  C   UNL     1       3.804   3.185  19.185  0.00  0.00    +0.000 A 
ATOM     16  C   UNL     1       3.242   2.703  20.375  0.00  0.00    +0.000 A 
ATOM     17  C   UNL     1       1.873   2.821  20.596  0.00  0.00    +0.000 A 
ATOM     18 CL   UNL     1       1.186   2.255  22.069  0.00  0.00    +0.000 Cl
ATOM     19  C   UNL     1       1.059   3.411  19.633  0.00  0.00    +0.000 A 
ATOM     20  C   UNL     1       1.620   3.884  18.442  0.00  0.00    +0.000 A 
ENDBRANCH  13  14
ENDBRANCH   1  13
BRANCH   1  21
ATOM     21  C   UNL     1       4.125   6.820  16.871  0.00  0.00    +0.000 C 
BRANCH  21  22
ATOM     22  C   UNL     1       3.174   7.298  17.955  0.00  0.00    +0.000 A 
ATOM     23  C   UNL     1       2.304   8.376  17.738  0.00  0.00    +0.000 A 
ATOM     24  C   UNL     1       1.506   8.866  18.779  0.00  0.00    +0.000 A 
ATOM     25  C   UNL     1       1.580   8.294  20.054  0.00  0.00    +0.000 A 
ATOM     26  C   UNL     1       2.387   7.174  20.264  0.00  0.00    +0.000 A 
ATOM     27  C   UNL     1       3.176   6.684  19.220  0.00  0.00    +0.000 A 
BRANCH  25  28
ATOM     28  C   UNL     1       0.789   8.900  21.153  0.00  0.00    +0.000 C 
ATOM     29  O   UNL     1      -0.411   8.730  21.284  0.00  0.00    +0.000 OA
BRANCH  28  30
ATOM     30  O   UNL     1       1.513   9.720  21.945  0.00  0.00    +0.000 OA
ATOM     31  H   UNL     1       1.138  10.612  22.071  0.00  0.00    +0.000 HD
ENDBRANCH  28  30
ENDBRANCH  25  28
ENDBRANCH  21  22
ENDBRANCH   1  21
TORSDOF 9
ENDMDL
MODEL 2
REMARK VINA RESULT:      -7.9      4.010      7.215
REMARK  Name = 
REMARK  10 active torsions:
REMARK  status: ('A' for Active; 'I' for Inactive)
REMARK    1  A    between atoms: C_1  and  C_2
REMARK    2  A    between atoms: C_6  and  N_7
REMARK    3  A    between atoms: N_7  and  C_8
REMARK    4  A    between atoms: C_8  and  N_10
REMARK    5  A    between atoms: N_10  and  C_11
REMARK    6  A    between atoms: N_10  and  C_19
REMARK    7  A    between atoms: C_11  and  C_12
REMARK    8  A    between atoms: C_19  and  C_20
REMARK    9  A    between atoms: C_23  and  C_24
REMARK   10  A    between atoms: C_24  and  O_26
REMARK                            x       y       z     vdW  Elec       q    Type
REMARK                         _______ _______ _______ _____ _____    ______ ____
ROOT
ATOM      1  N   UNL     1       5.273   5.688  17.557  0.00  0.00    +0.000 N 
ENDROOT
BRANCH   1   2
ATOM      2  C   UNL     1       5.935   4.963  18.565  0.00  0.00    +0.000 C 
ATOM      3  S   UNL     1       7.117   5.640  19.555  0.00  0.00    +0.000 S 
BRANCH   2   4
ATOM      4  N   UNL     1       5.546   3.630  18.597  0.00  0.00    +0.000 N 
ATOM      5  H   UNL     1       6.321   2.985  18.676  0.00  0.00    +0.000 HD
BRANCH   4  11
ATOM      6  C   UNL     1       1.748   2.956  21.701  0.00  0.00    +0.000 C 
ATOM      7  C   UNL     1       2.377   2.750  20.357  0.00  0.00    +0.000 A 
ATOM      8  C   UNL     1       1.713   2.067  19.335  0.00  0.00    +0.000 A 
ATOM      9  C   UNL     1       2.309   1.927  18.080  0.00  0.00    +0.000 A 
ATOM     10  C   UNL     1       3.578   2.457  17.844  0.00  0.00    +0.000 A 
ATOM     11  C   UNL     1       4.273   3.098  18.872  0.00  0.00    +0.000 A 
ATOM     12  C   UNL     1       3.656   3.266  20.114  0.00  0.00    +0.000 A 
ENDBRANCH   4  11
ENDBRANCH   2   4
ENDBRANCH   1   2
BRANCH   1  13
ATOM     13  C   UNL     1       3.805   5.668  17.454  0.00  0.00    +0.000 C 
BRANCH  13  14
ATOM     14  C   UNL     1       3.082   6.788  18.191  0.00  0.00    +0.000 A 
ATOM     15  C   UNL     1       2.766   8.018  17.589  0.00  0.00    +0.000 A 
ATOM     16  C   UNL     1       2.047   8.998  18.286  0.00  0.00    +0.000 A 
ATOM     17  C   UNL     1       1.617   8.751  19.587  0.00  0.00    +0.000 A 
ATOM     18 CL   UNL     1       0.710   9.943  20.435  0.00  0.00    +0.000 Cl
ATOM     19  C   UNL     1       1.907   7.535  20.199  0.00  0.00    +0.000 A 
ATOM     20  C   UNL     1       2.632   6.561  19.505  0.00  0.00    +0.000 A 
ENDBRANCH  13  14
ENDBRANCH   1  13
BRANCH   1  21
ATOM     21  C   UNL     1       6.022   6.230  16.407  0.00  0.00    +0.000 C 
BRANCH  21  22
ATOM     22  C   UNL     1       6.101   5.236  15.261  0.00  0.00    +0.000 A 
ATOM     23  C   UNL     1       7.156   5.272  14.337  0.00  0.00    +0.000 A 
ATOM     24  C   UNL     1       7.161   4.413  13.230  0.00  0.00    +0.000 A 
ATOM     25  C   UNL     1       6.104   3.520  13.027  0.00  0.00    +0.000 A 
ATOM     26  C   UNL     1       5.086   3.423  13.978  0.00  0.00    +0.000 A 
ATOM     27  C   UNL     1       5.090   4.277  15.083  0.00  0.00    +0.000 A 
BRANCH  25  28
ATOM     28  C   UNL     1       6.098   2.693  11.795  0.00  0.00    +0.000 C 
ATOM     29  O   UNL     1       5.079   2.395  11.196  0.00  0.00    +0.000 OA
BRANCH  28  30
ATOM     30  O   UNL     1       7.321   2.236  11.450  0.00  0.00    +0.000 OA
ATOM     31  H   UNL     1       7.398   1.266  11.384  0.00  0.00    +0.000 HD
ENDBRANCH  28  30
ENDBRANCH  25  28
ENDBRANCH  21  22
ENDBRANCH   1  21
TORSDOF 9
ENDMDL
MODEL 3
REMARK VINA RESULT:      -7.7      3.460      6.054
REMARK  Name = 
REMARK  10 active torsions:
REMARK  status: ('A' for Active; 'I' for Inactive)
REMARK    1  A    between atoms: C_1  and  C_2
REMARK    2  A    between atoms: C_6  and  N_7
REMARK    3  A    between atoms: N_7  and  C_8
REMARK    4  A    between atoms: C_8  and  N_10
REMARK    5  A    between atoms: N_10  and  C_11
REMARK    6  A    between atoms: N_10  and  C_19
REMARK    7  A    between atoms: C_11  and  C_12
REMARK    8  A    between atoms: C_19  and  C_20
REMARK    9  A    between atoms: C_23  and  C_24
REMARK   10  A    between atoms: C_24  and  O_26
REMARK                            x       y       z     vdW  Elec       q    Type
REMARK                         _______ _______ _______ _____ _____    ______ ____
ROOT
ATOM      1  N   UNL     1       5.811   4.712  18.079  0.00  0.00    +0.000 N 
ENDROOT
BRANCH   1   2
ATOM      2  C   UNL     1       5.289   3.813  17.131  0.00  0.00    +0.000 C 
ATOM      3  S   UNL     1       5.511   4.001  15.472  0.00  0.00    +0.000 S 
BRANCH   2   4
ATOM      4  N   UNL     1       4.529   2.811  17.718  0.00  0.00    +0.000 N 
ATOM      5  H   UNL     1       5.057   1.977  17.935  0.00  0.00    +0.000 HD
BRANCH   4  11
ATOM      6  C   UNL     1       1.686   2.488  21.759  0.00  0.00    +0.000 C 
ATOM      7  C   UNL     1       1.835   2.787  20.299  0.00  0.00    +0.000 A 
ATOM      8  C   UNL     1       0.753   3.215  19.525  0.00  0.00    +0.000 A 
ATOM      9  C   UNL     1       0.932   3.525  18.175  0.00  0.00    +0.000 A 
ATOM     10  C   UNL     1       2.192   3.394  17.588  0.00  0.00    +0.000 A 
ATOM     11  C   UNL     1       3.270   2.920  18.338  0.00  0.00    +0.000 A 
ATOM     12  C   UNL     1       3.092   2.647  19.696  0.00  0.00    +0.000 A 
ENDBRANCH   4  11
ENDBRANCH   2   4
ENDBRANCH   1   2
BRANCH   1  13
ATOM     13  C   UNL     1       7.252   5.004  18.128  0.00  0.00    +0.000 C 
BRANCH  13  14
ATOM     14  C   UNL     1       7.619   6.481  18.199  0.00  0.00    +0.000 A 
ATOM     15  C   UNL     1       8.463   7.010  19.191  0.00  0.00    +0.000 A 
ATOM     16  C   UNL     1       8.822   8.364  19.184  0.00  0.00    +0.000 A 
ATOM     17  C   UNL     1       8.359   9.202  18.173  0.00  0.00    +0.000 A 
ATOM     18 CL   UNL     1       8.821  10.860  18.148  0.00  0.00    +0.000 Cl
ATOM     19  C   UNL     1       7.533   8.697  17.173  0.00  0.00    +0.000 A 
ATOM     20  C   UNL     1       7.168   7.347  17.186  0.00  0.00    +0.000 A 
ENDBRANCH  13  14
ENDBRANCH   1  13
BRANCH   1  21
ATOM     21  C   UNL     1       4.996   5.147  19.230  0.00  0.00    +0.000 C 
BRANCH  21  22
ATOM     22  C   UNL     1       3.976   6.202  18.839  0.00  0.00    +0.000 A 
ATOM     23  C   UNL     1       4.054   6.870  17.608  0.00  0.00    +0.000 A 
ATOM     24  C   UNL     1       3.165   7.909  17.305  0.00  0.00    +0.000 A 
ATOM     25  C   UNL     1       2.198   8.303  18.236  0.00  0.00    +0.000 A 
ATOM     26  C   UNL     1       2.062   7.598  19.434  0.00  0.00    +0.000 A 
ATOM     27  C   UNL     1       2.947   6.557  19.728  0.00  0.00    +0.000 A 
BRANCH  25  28
ATOM     28  C   UNL     1       1.335   9.467  17.918  0.00  0.00    +0.000 C 
ATOM     29  O   UNL     1       0.118   9.432  17.979  0.00  0.00    +0.000 OA
BRANCH  28  30
ATOM     30  O   UNL     1       2.025  10.541  17.477  0.00  0.00    +0.000 OA
ATOM     31  H   UNL     1       1.535  11.384  17.495  0.00  0.00    +0.000 HD
ENDBRANCH  28  30
ENDBRANCH  25  28
ENDBRANCH  21  22
ENDBRANCH   1  21
TORSDOF 9
ENDMDL
MODEL 4
REMARK VINA RESULT:      -7.6      0.744      1.243
REMARK  Name = 
REMARK  10 active torsions:
REMARK  status: ('A' for Active; 'I' for Inactive)
REMARK    1  A    between atoms: C_1  and  C_2
REMARK    2  A    between atoms: C_6  and  N_7
REMARK    3  A    between atoms: N_7  and  C_8
REMARK    4  A    between atoms: C_8  and  N_10
REMARK    5  A    between atoms: N_10  and  C_11
REMARK    6  A    between atoms: N_10  and  C_19
REMARK    7  A    between atoms: C_11  and  C_12
REMARK    8  A    between atoms: C_19  and  C_20
REMARK    9  A    between atoms: C_23  and  C_24
REMARK   10  A    between atoms: C_24  and  O_26
REMARK                            x       y       z     vdW  Elec       q    Type
REMARK                         _______ _______ _______ _____ _____    ______ ____
ROOT
ATOM      1  N   UNL     1       4.290   5.389  17.510  0.00  0.00    +0.000 N 
ENDROOT
BRANCH   1   2
ATOM      2  C   UNL     1       5.562   4.823  17.717  0.00  0.00    +0.000 C 
ATOM      3  S   UNL     1       6.597   5.322  18.947  0.00  0.00    +0.000 S 
BRANCH   2   4
ATOM      4  N   UNL     1       5.876   3.869  16.758  0.00  0.00    +0.000 N 
ATOM      5  H   UNL     1       5.576   2.936  17.003  0.00  0.00    +0.000 HD
BRANCH   4  11
ATOM      6  C   UNL     1       5.017   3.120  11.940  0.00  0.00    +0.000 C 
ATOM      7  C   UNL     1       5.836   3.739  13.030  0.00  0.00    +0.000 A 
ATOM      8  C   UNL     1       6.935   4.555  12.747  0.00  0.00    +0.000 A 
ATOM      9  C   UNL     1       7.655   5.151  13.784  0.00  0.00    +0.000 A 
ATOM     10  C   UNL     1       7.290   4.922  15.111  0.00  0.00    +0.000 A 
ATOM     11  C   UNL     1       6.225   4.069  15.409  0.00  0.00    +0.000 A 
ATOM     12  C   UNL     1       5.487   3.506  14.367  0.00  0.00    +0.000 A 
ENDBRANCH   4  11
ENDBRANCH   2   4
ENDBRANCH   1   2
BRANCH   1  13
ATOM     13  C   UNL     1       3.100   4.535  17.366  0.00  0.00    +0.000 C 
BRANCH  13  14
ATOM     14  C   UNL     1       2.607   3.878  18.648  0.00  0.00    +0.000 A 
ATOM     15  C   UNL     1       3.437   3.659  19.760  0.00  0.00    +0.000 A 
ATOM     16  C   UNL     1       2.927   3.104  20.942  0.00  0.00    +0.000 A 
ATOM     17  C   UNL     1       1.576   2.782  21.033  0.00  0.00    +0.000 A 
ATOM     18 CL   UNL     1       0.942   2.126  22.492  0.00  0.00    +0.000 Cl
ATOM     19  C   UNL     1       0.732   3.002  19.948  0.00  0.00    +0.000 A 
ATOM     20  C   UNL     1       1.244   3.548  18.766  0.00  0.00    +0.000 A 
ENDBRANCH  13  14
ENDBRANCH   1  13
BRANCH   1  21
ATOM     21  C   UNL     1       4.151   6.808  17.129  0.00  0.00    +0.000 C 
BRANCH  21  22
ATOM     22  C   UNL     1       3.184   7.548  18.037  0.00  0.00    +0.000 A 
ATOM     23  C   UNL     1       2.908   7.091  19.334  0.00  0.00    +0.000 A 
ATOM     24  C   UNL     1       1.940   7.729  20.121  0.00  0.00    +0.000 A 
ATOM     25  C   UNL     1       1.226   8.819  19.614  0.00  0.00    +0.000 A 
ATOM     26  C   UNL     1       1.543   9.329  18.353  0.00  0.00    +0.000 A 
ATOM     27  C   UNL     1       2.515   8.694  17.575  0.00  0.00    +0.000 A 
BRANCH  25  28
ATOM     28  C   UNL     1       0.144   9.409  20.441  0.00  0.00    +0.000 C 
ATOM     29  O   UNL     1       0.070   9.257  21.649  0.00  0.00    +0.000 OA
BRANCH  28  30
ATOM     30  O   UNL     1      -0.790  10.061  19.717  0.00  0.00    +0.000 OA
ATOM     31  H   UNL     1      -0.835   9.809  18.775  0.00  0.00    +0.000 HD
ENDBRANCH  28  30
ENDBRANCH  25  28
ENDBRANCH  21  22
ENDBRANCH   1  21
TORSDOF 9
ENDMDL
MODEL 5
REMARK VINA RESULT:      -7.5      4.029      7.255
REMARK  Name = 
REMARK  10 active torsions:
REMARK  status: ('A' for Active; 'I' for Inactive)
REMARK    1  A    between atoms: C_1  and  C_2
REMARK    2  A    between atoms: C_6  and  N_7
REMARK    3  A    between atoms: N_7  and  C_8
REMARK    4  A    between atoms: C_8  and  N_10
REMARK    5  A    between atoms: N_10  and  C_11
REMARK    6  A    between atoms: N_10  and  C_19
REMARK    7  A    between atoms: C_11  and  C_12
REMARK    8  A    between atoms: C_19  and  C_20
REMARK    9  A    between atoms: C_23  and  C_24
REMARK   10  A    between atoms: C_24  and  O_26
REMARK                            x       y       z     vdW  Elec       q    Type
REMARK                         _______ _______ _______ _____ _____    ______ ____
ROOT
ATOM      1  N   UNL     1       5.531   5.639  17.423  0.00  0.00    +0.000 N 
ENDROOT
BRANCH   1   2
ATOM      2  C   UNL     1       6.069   4.930  18.512  0.00  0.00    +0.000 C 
ATOM      3  S   UNL     1       7.158   5.610  19.600  0.00  0.00    +0.000 S 
BRANCH   2   4
ATOM      4  N   UNL     1       5.650   3.606  18.537  0.00  0.00    +0.000 N 
ATOM      5  H   UNL     1       6.409   2.943  18.615  0.00  0.00    +0.000 HD
BRANCH   4  11
ATOM      6  C   UNL     1       1.835   2.999  21.635  0.00  0.00    +0.000 C 
ATOM      7  C   UNL     1       2.459   2.789  20.289  0.00  0.00    +0.000 A 
ATOM      8  C   UNL     1       1.780   2.129  19.262  0.00  0.00    +0.000 A 
ATOM      9  C   UNL     1       2.373   1.985  18.006  0.00  0.00    +0.000 A 
ATOM     10  C   UNL     1       3.654   2.486  17.775  0.00  0.00    +0.000 A 
ATOM     11  C   UNL     1       4.364   3.102  18.808  0.00  0.00    +0.000 A 
ATOM     12  C   UNL     1       3.751   3.276  20.050  0.00  0.00    +0.000 A 
ENDBRANCH   4  11
ENDBRANCH   2   4
ENDBRANCH   1   2
BRANCH   1  13
ATOM     13  C   UNL     1       4.084   5.624  17.153  0.00  0.00    +0.000 C 
BRANCH  13  14
ATOM     14  C   UNL     1       3.260   6.637  17.938  0.00  0.00    +0.000 A 
ATOM     15  C   UNL     1       2.810   6.402  19.248  0.00  0.00    +0.000 A 
ATOM     16  C   UNL     1       2.106   7.386  19.955  0.00  0.00    +0.000 A 
ATOM     17  C   UNL     1       1.861   8.624  19.367  0.00  0.00    +0.000 A 
ATOM     18 CL   UNL     1       1.020   9.844  20.243  0.00  0.00    +0.000 Cl
ATOM     19  C   UNL     1       2.309   8.884  18.075  0.00  0.00    +0.000 A 
ATOM     20  C   UNL     1       3.005   7.897  17.367  0.00  0.00    +0.000 A 
ENDBRANCH  13  14
ENDBRANCH   1  13
BRANCH   1  21
ATOM     21  C   UNL     1       6.409   6.159  16.357  0.00  0.00    +0.000 C 
BRANCH  21  22
ATOM     22  C   UNL     1       6.342   5.308  15.100  0.00  0.00    +0.000 A 
ATOM     23  C   UNL     1       5.304   4.387  14.899  0.00  0.00    +0.000 A 
ATOM     24  C   UNL     1       5.311   3.541  13.782  0.00  0.00    +0.000 A 
ATOM     25  C   UNL     1       6.364   3.596  12.863  0.00  0.00    +0.000 A 
ATOM     26  C   UNL     1       7.364   4.559  13.013  0.00  0.00    +0.000 A 
ATOM     27  C   UNL     1       7.349   5.405  14.124  0.00  0.00    +0.000 A 
BRANCH  25  28
ATOM     28  C   UNL     1       6.385   2.621  11.745  0.00  0.00    +0.000 C 
ATOM     29  O   UNL     1       7.412   2.244  11.208  0.00  0.00    +0.000 OA
BRANCH  28  30
ATOM     30  O   UNL     1       5.153   2.256  11.329  0.00  0.00    +0.000 OA
ATOM     31  H   UNL     1       5.077   2.064  10.375  0.00  0.00    +0.000 HD
ENDBRANCH  28  30
ENDBRANCH  25  28
ENDBRANCH  21  22
ENDBRANCH   1  21
TORSDOF 9
ENDMDL
MODEL 6
REMARK VINA RESULT:      -7.5      1.243      1.502
REMARK  Name = 
REMARK  10 active torsions:
REMARK  status: ('A' for Active; 'I' for Inactive)
REMARK    1  A    between atoms: C_1  and  C_2
REMARK    2  A    between atoms: C_6  and  N_7
REMARK    3  A    between atoms: N_7  and  C_8
REMARK    4  A    between atoms: C_8  and  N_10
REMARK    5  A    between atoms: N_10  and  C_11
REMARK    6  A    between atoms: N_10  and  C_19
REMARK    7  A    between atoms: C_11  and  C_12
REMARK    8  A    between atoms: C_19  and  C_20
REMARK    9  A    between atoms: C_23  and  C_24
REMARK   10  A    between atoms: C_24  and  O_26
REMARK                            x       y       z     vdW  Elec       q    Type
REMARK                         _______ _______ _______ _____ _____    ______ ____
ROOT
ATOM      1  N   UNL     1       4.908   4.460  17.882  0.00  0.00    +0.000 N 
ENDROOT
BRANCH   1   2
ATOM      2  C   UNL     1       5.887   4.572  16.879  0.00  0.00    +0.000 C 
ATOM      3  S   UNL     1       7.538   4.609  17.209  0.00  0.00    +0.000 S 
BRANCH   2   4
ATOM      4  N   UNL     1       5.332   4.712  15.614  0.00  0.00    +0.000 N 
ATOM      5  H   UNL     1       4.519   5.313  15.594  0.00  0.00    +0.000 HD
BRANCH   4  11
ATOM      6  C   UNL     1       5.305   2.277  11.303  0.00  0.00    +0.000 C 
ATOM      7  C   UNL     1       5.943   3.267  12.229  0.00  0.00    +0.000 A 
ATOM      8  C   UNL     1       7.102   3.961  11.875  0.00  0.00    +0.000 A 
ATOM      9  C   UNL     1       7.649   4.907  12.743  0.00  0.00    +0.000 A 
ATOM     10  C   UNL     1       7.049   5.154  13.978  0.00  0.00    +0.000 A 
ATOM     11  C   UNL     1       5.919   4.430  14.366  0.00  0.00    +0.000 A 
ATOM     12  C   UNL     1       5.356   3.512  13.478  0.00  0.00    +0.000 A 
ENDBRANCH   4  11
ENDBRANCH   2   4
ENDBRANCH   1   2
BRANCH   1  13
ATOM     13  C   UNL     1       3.712   3.626  17.679  0.00  0.00    +0.000 C 
BRANCH  13  14
ATOM     14  C   UNL     1       2.989   3.198  18.950  0.00  0.00    +0.000 A 
ATOM     15  C   UNL     1       3.661   2.684  20.073  0.00  0.00    +0.000 A 
ATOM     16  C   UNL     1       2.963   2.358  21.243  0.00  0.00    +0.000 A 
ATOM     17  C   UNL     1       1.587   2.562  21.312  0.00  0.00    +0.000 A 
ATOM     18 CL   UNL     1       0.732   2.189  22.758  0.00  0.00    +0.000 Cl
ATOM     19  C   UNL     1       0.903   3.083  20.217  0.00  0.00    +0.000 A 
ATOM     20  C   UNL     1       1.600   3.399  19.046  0.00  0.00    +0.000 A 
ENDBRANCH  13  14
ENDBRANCH   1  13
BRANCH   1  21
ATOM     21  C   UNL     1       4.890   5.395  19.024  0.00  0.00    +0.000 C 
BRANCH  21  22
ATOM     22  C   UNL     1       3.773   6.417  18.904  0.00  0.00    +0.000 A 
ATOM     23  C   UNL     1       3.652   7.235  17.771  0.00  0.00    +0.000 A 
ATOM     24  C   UNL     1       2.677   8.240  17.720  0.00  0.00    +0.000 A 
ATOM     25  C   UNL     1       1.822   8.448  18.808  0.00  0.00    +0.000 A 
ATOM     26  C   UNL     1       1.884   7.593  19.910  0.00  0.00    +0.000 A 
ATOM     27  C   UNL     1       2.853   6.588  19.953  0.00  0.00    +0.000 A 
BRANCH  25  28
ATOM     28  C   UNL     1       0.865   9.580  18.754  0.00  0.00    +0.000 C 
ATOM     29  O   UNL     1       0.182   9.921  19.705  0.00  0.00    +0.000 OA
BRANCH  28  30
ATOM     30  O   UNL     1       0.767  10.142  17.530  0.00  0.00    +0.000 OA
ATOM     31  H   UNL     1       1.595  10.520  17.180  0.00  0.00    +0.000 HD
ENDBRANCH  28  30
ENDBRANCH  25  28
ENDBRANCH  21  22
ENDBRANCH   1  21
TORSDOF 9
ENDMDL
MODEL 7
REMARK VINA RESULT:      -7.4      3.143      6.851
REMARK  Name = 
REMARK  10 active torsions:
REMARK  status: ('A' for Active; 'I' for Inactive)
REMARK    1  A    between atoms: C_1  and  C_2
REMARK    2  A    between atoms: C_6  and  N_7
REMARK    3  A    between atoms: N_7  and  C_8
REMARK    4  A    between atoms: C_8  and  N_10
REMARK    5  A    between atoms: N_10  and  C_11
REMARK    6  A    between atoms: N_10  and  C_19
REMARK    7  A    between atoms: C_11  and  C_12
REMARK    8  A    between atoms: C_19  and  C_20
REMARK    9  A    between atoms: C_23  and  C_24
REMARK   10  A    between atoms: C_24  and  O_26
REMARK                            x       y       z     vdW  Elec       q    Type
REMARK                         _______ _______ _______ _____ _____    ______ ____
ROOT
ATOM      1  N   UNL     1       5.451   5.042  16.133  0.00  0.00    +0.000 N 
ENDROOT
BRANCH   1   2
ATOM      2  C   UNL     1       5.594   6.133  17.009  0.00  0.00    +0.000 C 
ATOM      3  S   UNL     1       6.853   6.258  18.120  0.00  0.00    +0.000 S 
BRANCH   2   4
ATOM      4  N   UNL     1       4.552   7.043  16.891  0.00  0.00    +0.000 N 
ATOM      5  H   UNL     1       4.348   7.303  15.936  0.00  0.00    +0.000 HD
BRANCH   4  11
ATOM      6  C   UNL     1       0.883   9.983  18.444  0.00  0.00    +0.000 C 
ATOM      7  C   UNL     1       1.748   8.776  18.639  0.00  0.00    +0.000 A 
ATOM      8  C   UNL     1       1.580   7.924  19.733  0.00  0.00    +0.000 A 
ATOM      9  C   UNL     1       2.375   6.784  19.865  0.00  0.00    +0.000 A 
ATOM     10  C   UNL     1       3.353   6.497  18.912  0.00  0.00    +0.000 A 
ATOM     11  C   UNL     1       3.565   7.368  17.841  0.00  0.00    +0.000 A 
ATOM     12  C   UNL     1       2.742   8.486  17.695  0.00  0.00    +0.000 A 
ENDBRANCH   4  11
ENDBRANCH   2   4
ENDBRANCH   1   2
BRANCH   1  13
ATOM     13  C   UNL     1       4.946   5.234  14.764  0.00  0.00    +0.000 C 
BRANCH  13  14
ATOM     14  C   UNL     1       5.570   4.336  13.704  0.00  0.00    +0.000 A 
ATOM     15  C   UNL     1       4.828   3.393  12.971  0.00  0.00    +0.000 A 
ATOM     16  C   UNL     1       5.431   2.629  11.963  0.00  0.00    +0.000 A 
ATOM     17  C   UNL     1       6.778   2.812  11.662  0.00  0.00    +0.000 A 
ATOM     18 CL   UNL     1       7.513   1.893  10.406  0.00  0.00    +0.000 Cl
ATOM     19  C   UNL     1       7.529   3.749  12.366  0.00  0.00    +0.000 A 
ATOM     20  C   UNL     1       6.928   4.505  13.378  0.00  0.00    +0.000 A 
ENDBRANCH  13  14
ENDBRANCH   1  13
BRANCH   1  21
ATOM     21  C   UNL     1       5.505   3.657  16.643  0.00  0.00    +0.000 C 
BRANCH  21  22
ATOM     22  C   UNL     1       4.360   3.356  17.594  0.00  0.00    +0.000 A 
ATOM     23  C   UNL     1       3.032   3.314  17.146  0.00  0.00    +0.000 A 
ATOM     24  C   UNL     1       1.980   3.134  18.054  0.00  0.00    +0.000 A 
ATOM     25  C   UNL     1       2.244   3.009  19.422  0.00  0.00    +0.000 A 
ATOM     26  C   UNL     1       3.566   2.975  19.872  0.00  0.00    +0.000 A 
ATOM     27  C   UNL     1       4.611   3.148  18.961  0.00  0.00    +0.000 A 
BRANCH  25  28
ATOM     28  C   UNL     1       1.100   2.913  20.362  0.00  0.00    +0.000 C 
ATOM     29  O   UNL     1       1.233   2.876  21.573  0.00  0.00    +0.000 OA
BRANCH  28  30
ATOM     30  O   UNL     1      -0.094   2.790  19.742  0.00  0.00    +0.000 OA
ATOM     31  H   UNL     1      -0.425   1.876  19.659  0.00  0.00    +0.000 HD
ENDBRANCH  28  30
ENDBRANCH  25  28
ENDBRANCH  21  22
ENDBRANCH   1  21
TORSDOF 9
ENDMDL
MODEL 8
REMARK VINA RESULT:      -7.4      0.626      1.447
REMARK  Name = 
REMARK  10 active torsions:
REMARK  status: ('A' for Active; 'I' for Inactive)
REMARK    1  A    between atoms: C_1  and  C_2
REMARK    2  A    between atoms: C_6  and  N_7
REMARK    3  A    between atoms: N_7  and  C_8
REMARK    4  A    between atoms: C_8  and  N_10
REMARK    5  A    between atoms: N_10  and  C_11
REMARK    6  A    between atoms: N_10  and  C_19
REMARK    7  A    between atoms: C_11  and  C_12
REMARK    8  A    between atoms: C_19  and  C_20
REMARK    9  A    between atoms: C_23  and  C_24
REMARK   10  A    between atoms: C_24  and  O_26
REMARK                            x       y       z     vdW  Elec       q    Type
REMARK                         _______ _______ _______ _____ _____    ______ ____
ROOT
ATOM      1  N   UNL     1       4.583   5.355  17.215  0.00  0.00    +0.000 N 
ENDROOT
BRANCH   1   2
ATOM      2  C   UNL     1       5.801   4.670  17.055  0.00  0.00    +0.000 C 
ATOM      3  S   UNL     1       7.157   4.978  18.006  0.00  0.00    +0.000 S 
BRANCH   2   4
ATOM      4  N   UNL     1       5.768   3.776  15.993  0.00  0.00    +0.000 N 
ATOM      5  H   UNL     1       5.150   2.991  16.146  0.00  0.00    +0.000 HD
BRANCH   4  11
ATOM      6  C   UNL     1       8.726   6.013  12.713  0.00  0.00    +0.000 C 
ATOM      7  C   UNL     1       7.622   5.046  13.016  0.00  0.00    +0.000 A 
ATOM      8  C   UNL     1       7.005   4.300  12.009  0.00  0.00    +0.000 A 
ATOM      9  C   UNL     1       6.008   3.377  12.328  0.00  0.00    +0.000 A 
ATOM     10  C   UNL     1       5.610   3.206  13.655  0.00  0.00    +0.000 A 
ATOM     11  C   UNL     1       6.184   3.982  14.665  0.00  0.00    +0.000 A 
ATOM     12  C   UNL     1       7.207   4.876  14.343  0.00  0.00    +0.000 A 
ENDBRANCH   4  11
ENDBRANCH   2   4
ENDBRANCH   1   2
BRANCH   1  13
ATOM     13  C   UNL     1       3.299   4.646  17.100  0.00  0.00    +0.000 C 
BRANCH  13  14
ATOM     14  C   UNL     1       2.810   3.966  18.373  0.00  0.00    +0.000 A 
ATOM     15  C   UNL     1       3.682   3.385  19.310  0.00  0.00    +0.000 A 
ATOM     16  C   UNL     1       3.194   2.823  20.497  0.00  0.00    +0.000 A 
ATOM     17  C   UNL     1       1.829   2.852  20.770  0.00  0.00    +0.000 A 
ATOM     18 CL   UNL     1       1.230   2.186  22.240  0.00  0.00    +0.000 Cl
ATOM     19  C   UNL     1       0.948   3.434  19.863  0.00  0.00    +0.000 A 
ATOM     20  C   UNL     1       1.436   3.987  18.675  0.00  0.00    +0.000 A 
ENDBRANCH  13  14
ENDBRANCH   1  13
BRANCH   1  21
ATOM     21  C   UNL     1       4.541   6.830  17.196  0.00  0.00    +0.000 C 
BRANCH  21  22
ATOM     22  C   UNL     1       3.373   7.376  18.000  0.00  0.00    +0.000 A 
ATOM     23  C   UNL     1       2.521   8.356  17.472  0.00  0.00    +0.000 A 
ATOM     24  C   UNL     1       1.510   8.919  18.261  0.00  0.00    +0.000 A 
ATOM     25  C   UNL     1       1.351   8.521  19.593  0.00  0.00    +0.000 A 
ATOM     26  C   UNL     1       2.145   7.494  20.108  0.00  0.00    +0.000 A 
ATOM     27  C   UNL     1       3.147   6.930  19.313  0.00  0.00    +0.000 A 
BRANCH  25  28
ATOM     28  C   UNL     1       0.331   9.206  20.425  0.00  0.00    +0.000 C 
ATOM     29  O   UNL     1      -0.084  10.326  20.182  0.00  0.00    +0.000 OA
BRANCH  28  30
ATOM     30  O   UNL     1      -0.030   8.501  21.518  0.00  0.00    +0.000 OA
ATOM     31  H   UNL     1      -0.882   8.762  21.916  0.00  0.00    +0.000 HD
ENDBRANCH  28  30
ENDBRANCH  25  28
ENDBRANCH  21  22
ENDBRANCH   1  21
TORSDOF 9
ENDMDL
MODEL 9
REMARK VINA RESULT:      -7.3      4.805      7.632
REMARK  Name = 
REMARK  10 active torsions:
REMARK  status: ('A' for Active; 'I' for Inactive)
REMARK    1  A    between atoms: C_1  and  C_2
REMARK    2  A    between atoms: C_6  and  N_7
REMARK    3  A    between atoms: N_7  and  C_8
REMARK    4  A    between atoms: C_8  and  N_10
REMARK    5  A    between atoms: N_10  and  C_11
REMARK    6  A    between atoms: N_10  and  C_19
REMARK    7  A    between atoms: C_11  and  C_12
REMARK    8  A    between atoms: C_19  and  C_20
REMARK    9  A    between atoms: C_23  and  C_24
REMARK   10  A    between atoms: C_24  and  O_26
REMARK                            x       y       z     vdW  Elec       q    Type
REMARK                         _______ _______ _______ _____ _____    ______ ____
ROOT
ATOM      1  N   UNL     1       0.755  10.554  19.786  0.00  0.00    +0.000 N 
ENDROOT
BRANCH   1   2
ATOM      2  C   UNL     1       1.147   9.204  19.785  0.00  0.00    +0.000 C 
ATOM      3  S   UNL     1       1.245   8.277  21.187  0.00  0.00    +0.000 S 
BRANCH   2   4
ATOM      4  N   UNL     1       1.501   8.759  18.518  0.00  0.00    +0.000 N 
ATOM      5  H   UNL     1       1.376   9.455  17.796  0.00  0.00    +0.000 HD
BRANCH   4  11
ATOM      6  C   UNL     1       2.061   3.869  17.983  0.00  0.00    +0.000 C 
ATOM      7  C   UNL     1       2.617   5.256  17.882  0.00  0.00    +0.000 A 
ATOM      8  C   UNL     1       3.910   5.495  17.411  0.00  0.00    +0.000 A 
ATOM      9  C   UNL     1       4.385   6.802  17.290  0.00  0.00    +0.000 A 
ATOM     10  C   UNL     1       3.574   7.878  17.653  0.00  0.00    +0.000 A 
ATOM     11  C   UNL     1       2.297   7.651  18.172  0.00  0.00    +0.000 A 
ATOM     12  C   UNL     1       1.816   6.343  18.256  0.00  0.00    +0.000 A 
ENDBRANCH   4  11
ENDBRANCH   2   4
ENDBRANCH   1   2
BRANCH   1  13
ATOM     13  C   UNL     1       0.176  11.173  18.583  0.00  0.00    +0.000 C 
BRANCH  13  14
ATOM     14  C   UNL     1      -1.340  11.089  18.469  0.00  0.00    +0.000 A 
ATOM     15  C   UNL     1      -2.203  12.009  19.091  0.00  0.00    +0.000 A 
ATOM     16  C   UNL     1      -3.591  11.930  18.910  0.00  0.00    +0.000 A 
ATOM     17  C   UNL     1      -4.131  10.943  18.090  0.00  0.00    +0.000 A 
ATOM     18 CL   UNL     1      -5.832  10.861  17.846  0.00  0.00    +0.000 Cl
ATOM     19  C   UNL     1      -3.295  10.029  17.454  0.00  0.00    +0.000 A 
ATOM     20  C   UNL     1      -1.910  10.104  17.642  0.00  0.00    +0.000 A 
ENDBRANCH  13  14
ENDBRANCH   1  13
BRANCH   1  21
ATOM     21  C   UNL     1       1.186  11.461  20.869  0.00  0.00    +0.000 C 
BRANCH  21  22
ATOM     22  C   UNL     1       0.024  11.884  21.752  0.00  0.00    +0.000 A 
ATOM     23  C   UNL     1      -0.727  10.940  22.468  0.00  0.00    +0.000 A 
ATOM     24  C   UNL     1      -1.855  11.337  23.198  0.00  0.00    +0.000 A 
ATOM     25  C   UNL     1      -2.254  12.677  23.207  0.00  0.00    +0.000 A 
ATOM     26  C   UNL     1      -1.473  13.636  22.559  0.00  0.00    +0.000 A 
ATOM     27  C   UNL     1      -0.345  13.237  21.838  0.00  0.00    +0.000 A 
BRANCH  25  28
ATOM     28  C   UNL     1      -3.506  13.043  23.915  0.00  0.00    +0.000 C 
ATOM     29  O   UNL     1      -3.792  14.190  24.213  0.00  0.00    +0.000 OA
BRANCH  28  30
ATOM     30  O   UNL     1      -4.255  11.976  24.265  0.00  0.00    +0.000 OA
ATOM     31  H   UNL     1      -4.277  11.253  23.611  0.00  0.00    +0.000 HD
ENDBRANCH  28  30
ENDBRANCH  25  28
ENDBRANCH  21  22
ENDBRANCH   1  21
TORSDOF 9
ENDMDL
