MODEL 1
REMARK VINA RESULT:      -6.8      0.000      0.000
REMARK  Name = 
REMARK  7 active torsions:
REMARK  status: ('A' for Active; 'I' for Inactive)
REMARK    1  A    between atoms: C_1  and  C_2
REMARK    2  A    between atoms: C_4  and  C_5
REMARK    3  A    between atoms: C_5  and  C_6
REMARK    4  A    between atoms: C_6  and  N_7
REMARK    5  A    between atoms: N_7  and  S_8
REMARK    6  A    between atoms: S_8  and  C_11
REMARK    7  A    between atoms: C_17  and  N_18
REMARK                            x       y       z     vdW  Elec       q    Type
REMARK                         _______ _______ _______ _____ _____    ______ ____
ROOT
ATOM      1  S   UNL     1       5.518   4.454  18.587  0.00  0.00    +0.000 S 
ATOM      2  O   UNL     1       6.640   4.525  19.496  0.00  0.00    +0.000 OA
ATOM      3  O   UNL     1       4.692   3.266  18.530  0.00  0.00    +0.000 OA
ENDROOT
BRANCH   1   4
ATOM      4  C   UNL     1       6.092   4.785  16.955  0.00  0.00    +0.000 A 
ATOM      5  C   UNL     1       5.612   3.997  15.900  0.00  0.00    +0.000 A 
ATOM      6  C   UNL     1       6.121   4.198  14.628  0.00  0.00    +0.000 A 
ATOM      7 CL   UNL     1       5.530   3.299  13.292  0.00  0.00    +0.000 Cl
ATOM      8  C   UNL     1       7.113   5.148  14.467  0.00  0.00    +0.000 A 
ATOM      9  N   UNL     1       7.605   5.903  15.481  0.00  0.00    +0.000 NA
ATOM     10  C   UNL     1       7.092   5.719  16.719  0.00  0.00    +0.000 A 
BRANCH  10  11
ATOM     11  N   UNL     1       7.560   6.617  17.663  0.00  0.00    +0.000 N 
ATOM     12  H   UNL     1       7.883   6.114  18.483  0.00  0.00    +0.000 HD
ATOM     13  H   UNL     1       6.906   7.374  17.872  0.00  0.00    +0.000 HD
ENDBRANCH  10  11
ENDBRANCH   1   4
BRANCH   1  14
ATOM     14  N   UNL     1       4.527   5.775  18.911  0.00  0.00    +0.000 NA
ATOM     15  H   UNL     1       3.973   5.609  19.763  0.00  0.00    +0.000 HD
BRANCH  14  16
ATOM     16  C   UNL     1       3.715   6.294  17.790  0.00  0.00    +0.000 C 
BRANCH  16  17
ATOM     17  C   UNL     1       2.218   6.171  18.086  0.00  0.00    +0.000 C 
BRANCH  17  21
ATOM     18  C   UNL     1       1.440   2.770  21.608  0.00  0.00    +0.000 C 
ATOM     19  C   UNL     1       1.471   3.359  20.242  0.00  0.00    +0.000 A 
ATOM     20  N   UNL     1       1.859   4.586  19.978  0.00  0.00    +0.000 NA
ATOM     21  C   UNL     1       1.802   4.829  18.614  0.00  0.00    +0.000 A 
ATOM     22  C   UNL     1       1.332   3.767  17.864  0.00  0.00    +0.000 A 
ATOM     23  S   UNL     1       0.981   2.434  18.883  0.00  0.00    +0.000 S 
ENDBRANCH  17  21
ENDBRANCH  16  17
ENDBRANCH  14  16
ENDBRANCH   1  14
TORSDOF 6
ENDMDL
MODEL 2
REMARK VINA RESULT:      -6.7      1.286      1.542
REMARK  Name = 
REMARK  7 active torsions:
REMARK  status: ('A' for Active; 'I' for Inactive)
REMARK    1  A    between atoms: C_1  and  C_2
REMARK    2  A    between atoms: C_4  and  C_5
REMARK    3  A    between atoms: C_5  and  C_6
REMARK    4  A    between atoms: C_6  and  N_7
REMARK    5  A    between atoms: N_7  and  S_8
REMARK    6  A    between atoms: S_8  and  C_11
REMARK    7  A    between atoms: C_17  and  N_18
REMARK                            x       y       z     vdW  Elec       q    Type
REMARK                         _______ _______ _______ _____ _____    ______ ____
ROOT
ATOM      1  S   UNL     1       5.085   4.555  17.489  0.00  0.00    +0.000 S 
ATOM      2  O   UNL     1       6.029   4.098  18.485  0.00  0.00    +0.000 OA
ATOM      3  O   UNL     1       3.861   3.822  17.244  0.00  0.00    +0.000 OA
ENDROOT
BRANCH   1   4
ATOM      4  C   UNL     1       5.926   4.722  15.951  0.00  0.00    +0.000 A 
ATOM      5  C   UNL     1       5.504   3.942  14.865  0.00  0.00    +0.000 A 
ATOM      6  C   UNL     1       6.212   4.008  13.677  0.00  0.00    +0.000 A 
ATOM      7 CL   UNL     1       5.707   3.116  12.302  0.00  0.00    +0.000 Cl
ATOM      8  C   UNL     1       7.333   4.817  13.631  0.00  0.00    +0.000 A 
ATOM      9  N   UNL     1       7.769   5.560  14.679  0.00  0.00    +0.000 NA
ATOM     10  C   UNL     1       7.064   5.510  15.833  0.00  0.00    +0.000 A 
BRANCH  10  11
ATOM     11  N   UNL     1       7.504   6.394  16.803  0.00  0.00    +0.000 N 
ATOM     12  H   UNL     1       6.712   6.743  17.332  0.00  0.00    +0.000 HD
ATOM     13  H   UNL     1       8.119   7.128  16.444  0.00  0.00    +0.000 HD
ENDBRANCH  10  11
ENDBRANCH   1   4
BRANCH   1  14
ATOM     14  N   UNL     1       4.686   6.145  17.872  0.00  0.00    +0.000 NA
ATOM     15  H   UNL     1       5.186   6.447  18.721  0.00  0.00    +0.000 HD
BRANCH  14  16
ATOM     16  C   UNL     1       3.247   6.485  17.901  0.00  0.00    +0.000 C 
BRANCH  16  17
ATOM     17  C   UNL     1       2.714   6.518  19.336  0.00  0.00    +0.000 C 
BRANCH  17  21
ATOM     18  C   UNL     1       0.497   2.105  18.909  0.00  0.00    +0.000 C 
ATOM     19  C   UNL     1       1.208   3.233  19.568  0.00  0.00    +0.000 A 
ATOM     20  N   UNL     1       1.598   4.323  18.945  0.00  0.00    +0.000 NA
ATOM     21  C   UNL     1       2.204   5.199  19.834  0.00  0.00    +0.000 A 
ATOM     22  C   UNL     1       2.288   4.727  21.131  0.00  0.00    +0.000 A 
ATOM     23  S   UNL     1       1.573   3.174  21.244  0.00  0.00    +0.000 S 
ENDBRANCH  17  21
ENDBRANCH  16  17
ENDBRANCH  14  16
ENDBRANCH   1  14
TORSDOF 6
ENDMDL
MODEL 3
REMARK VINA RESULT:      -6.7      2.542      3.103
REMARK  Name = 
REMARK  7 active torsions:
REMARK  status: ('A' for Active; 'I' for Inactive)
REMARK    1  A    between atoms: C_1  and  C_2
REMARK    2  A    between atoms: C_4  and  C_5
REMARK    3  A    between atoms: C_5  and  C_6
REMARK    4  A    between atoms: C_6  and  N_7
REMARK    5  A    between atoms: N_7  and  S_8
REMARK    6  A    between atoms: S_8  and  C_11
REMARK    7  A    between atoms: C_17  and  N_18
REMARK                            x       y       z     vdW  Elec       q    Type
REMARK                         _______ _______ _______ _____ _____    ______ ____
ROOT
ATOM      1  S   UNL     1       4.660   3.896  18.458  0.00  0.00    +0.000 S 
ATOM      2  O   UNL     1       5.594   3.604  19.522  0.00  0.00    +0.000 OA
ATOM      3  O   UNL     1       3.720   2.891  18.007  0.00  0.00    +0.000 OA
ENDROOT
BRANCH   1   4
ATOM      4  C   UNL     1       5.563   4.452  17.052  0.00  0.00    +0.000 A 
ATOM      5  C   UNL     1       5.306   3.858  15.809  0.00  0.00    +0.000 A 
ATOM      6  C   UNL     1       6.070   4.232  14.716  0.00  0.00    +0.000 A 
ATOM      7 CL   UNL     1       5.762   3.576  13.162  0.00  0.00    +0.000 Cl
ATOM      8  C   UNL     1       7.082   5.153  14.915  0.00  0.00    +0.000 A 
ATOM      9  N   UNL     1       7.360   5.721  16.116  0.00  0.00    +0.000 NA
ATOM     10  C   UNL     1       6.599   5.369  17.177  0.00  0.00    +0.000 A 
BRANCH  10  11
ATOM     11  N   UNL     1       6.868   6.090  18.328  0.00  0.00    +0.000 N 
ATOM     12  H   UNL     1       7.844   6.365  18.339  0.00  0.00    +0.000 HD
ATOM     13  H   UNL     1       6.559   5.628  19.186  0.00  0.00    +0.000 HD
ENDBRANCH  10  11
ENDBRANCH   1   4
BRANCH   1  14
ATOM     14  N   UNL     1       3.795   5.266  18.914  0.00  0.00    +0.000 NA
ATOM     15  H   UNL     1       3.310   5.105  19.808  0.00  0.00    +0.000 HD
BRANCH  14  16
ATOM     16  C   UNL     1       2.923   5.880  17.889  0.00  0.00    +0.000 C 
BRANCH  16  17
ATOM     17  C   UNL     1       3.201   7.380  17.751  0.00  0.00    +0.000 C 
BRANCH  17  21
ATOM     18  C   UNL     1       0.582   8.819  21.706  0.00  0.00    +0.000 C 
ATOM     19  C   UNL     1       1.106   8.847  20.314  0.00  0.00    +0.000 A 
ATOM     20  N   UNL     1       1.974   7.984  19.836  0.00  0.00    +0.000 NA
ATOM     21  C   UNL     1       2.243   8.256  18.502  0.00  0.00    +0.000 A 
ATOM     22  C   UNL     1       1.583   9.362  18.001  0.00  0.00    +0.000 A 
ATOM     23  S   UNL     1       0.588  10.056  19.212  0.00  0.00    +0.000 S 
ENDBRANCH  17  21
ENDBRANCH  16  17
ENDBRANCH  14  16
ENDBRANCH   1  14
TORSDOF 6
ENDMDL
MODEL 4
REMARK VINA RESULT:      -6.6      3.018      3.591
REMARK  Name = 
REMARK  7 active torsions:
REMARK  status: ('A' for Active; 'I' for Inactive)
REMARK    1  A    between atoms: C_1  and  C_2
REMARK    2  A    between atoms: C_4  and  C_5
REMARK    3  A    between atoms: C_5  and  C_6
REMARK    4  A    between atoms: C_6  and  N_7
REMARK    5  A    between atoms: N_7  and  S_8
REMARK    6  A    between atoms: S_8  and  C_11
REMARK    7  A    between atoms: C_17  and  N_18
REMARK                            x       y       z     vdW  Elec       q    Type
REMARK                         _______ _______ _______ _____ _____    ______ ____
ROOT
ATOM      1  S   UNL     1       5.322   5.775  16.068  0.00  0.00    +0.000 S 
ATOM      2  O   UNL     1       5.700   4.492  15.517  0.00  0.00    +0.000 OA
ATOM      3  O   UNL     1       5.150   6.924  15.205  0.00  0.00    +0.000 OA
ENDROOT
BRANCH   1   4
ATOM      4  C   UNL     1       6.481   6.214  17.319  0.00  0.00    +0.000 A 
ATOM      5  C   UNL     1       7.032   7.503  17.303  0.00  0.00    +0.000 A 
ATOM      6  C   UNL     1       8.005   7.827  18.234  0.00  0.00    +0.000 A 
ATOM      7 CL   UNL     1       8.673   9.406  18.293  0.00  0.00    +0.000 Cl
ATOM      8  C   UNL     1       8.414   6.845  19.117  0.00  0.00    +0.000 A 
ATOM      9  N   UNL     1       7.908   5.586  19.131  0.00  0.00    +0.000 NA
ATOM     10  C   UNL     1       6.944   5.277  18.234  0.00  0.00    +0.000 A 
BRANCH  10  11
ATOM     11  N   UNL     1       6.397   4.016  18.404  0.00  0.00    +0.000 N 
ATOM     12  H   UNL     1       6.897   3.347  17.828  0.00  0.00    +0.000 HD
ATOM     13  H   UNL     1       5.382   3.988  18.288  0.00  0.00    +0.000 HD
ENDBRANCH  10  11
ENDBRANCH   1   4
BRANCH   1  14
ATOM     14  N   UNL     1       3.900   5.544  16.938  0.00  0.00    +0.000 NA
ATOM     15  H   UNL     1       3.121   5.320  16.303  0.00  0.00    +0.000 HD
BRANCH  14  16
ATOM     16  C   UNL     1       3.548   6.580  17.933  0.00  0.00    +0.000 C 
BRANCH  16  17
ATOM     17  C   UNL     1       3.187   5.953  19.283  0.00  0.00    +0.000 C 
BRANCH  17  21
ATOM     18  C   UNL     1       3.666   1.053  18.705  0.00  0.00    +0.000 C 
ATOM     19  C   UNL     1       2.983   2.355  18.935  0.00  0.00    +0.000 A 
ATOM     20  N   UNL     1       3.604   3.511  18.999  0.00  0.00    +0.000 NA
ATOM     21  C   UNL     1       2.694   4.540  19.193  0.00  0.00    +0.000 A 
ATOM     22  C   UNL     1       1.380   4.125  19.305  0.00  0.00    +0.000 A 
ATOM     23  S   UNL     1       1.281   2.422  19.138  0.00  0.00    +0.000 S 
ENDBRANCH  17  21
ENDBRANCH  16  17
ENDBRANCH  14  16
ENDBRANCH   1  14
TORSDOF 6
ENDMDL
MODEL 5
REMARK VINA RESULT:      -6.6      2.595      6.135
REMARK  Name = 
REMARK  7 active torsions:
REMARK  status: ('A' for Active; 'I' for Inactive)
REMARK    1  A    between atoms: C_1  and  C_2
REMARK    2  A    between atoms: C_4  and  C_5
REMARK    3  A    between atoms: C_5  and  C_6
REMARK    4  A    between atoms: C_6  and  N_7
REMARK    5  A    between atoms: N_7  and  S_8
REMARK    6  A    between atoms: S_8  and  C_11
REMARK    7  A    between atoms: C_17  and  N_18
REMARK                            x       y       z     vdW  Elec       q    Type
REMARK                         _______ _______ _______ _____ _____    ______ ____
ROOT
ATOM      1  S   UNL     1       3.428   4.149  17.657  0.00  0.00    +0.000 S 
ATOM      2  O   UNL     1       2.374   3.484  16.923  0.00  0.00    +0.000 OA
ATOM      3  O   UNL     1       4.277   3.405  18.563  0.00  0.00    +0.000 OA
ENDROOT
BRANCH   1   4
ATOM      4  C   UNL     1       2.726   5.488  18.561  0.00  0.00    +0.000 A 
ATOM      5  C   UNL     1       2.766   6.772  18.002  0.00  0.00    +0.000 A 
ATOM      6  C   UNL     1       2.290   7.842  18.743  0.00  0.00    +0.000 A 
ATOM      7 CL   UNL     1       2.266   9.425  18.085  0.00  0.00    +0.000 Cl
ATOM      8  C   UNL     1       1.830   7.592  20.023  0.00  0.00    +0.000 A 
ATOM      9  N   UNL     1       1.806   6.360  20.588  0.00  0.00    +0.000 NA
ATOM     10  C   UNL     1       2.252   5.314  19.855  0.00  0.00    +0.000 A 
BRANCH  10  11
ATOM     11  N   UNL     1       2.071   4.082  20.461  0.00  0.00    +0.000 N 
ATOM     12  H   UNL     1       1.127   3.752  20.290  0.00  0.00    +0.000 HD
ATOM     13  H   UNL     1       2.344   4.062  21.446  0.00  0.00    +0.000 HD
ENDBRANCH  10  11
ENDBRANCH   1   4
BRANCH   1  14
ATOM     14  N   UNL     1       4.405   4.929  16.531  0.00  0.00    +0.000 NA
ATOM     15  H   UNL     1       3.902   5.719  16.103  0.00  0.00    +0.000 HD
BRANCH  14  16
ATOM     16  C   UNL     1       5.090   4.078  15.535  0.00  0.00    +0.000 C 
BRANCH  16  17
ATOM     17  C   UNL     1       6.609   4.107  15.731  0.00  0.00    +0.000 C 
BRANCH  17  21
ATOM     18  C   UNL     1       7.851   8.506  17.648  0.00  0.00    +0.000 C 
ATOM     19  C   UNL     1       7.606   7.040  17.607  0.00  0.00    +0.000 A 
ATOM     20  N   UNL     1       7.173   6.395  16.546  0.00  0.00    +0.000 NA
ATOM     21  C   UNL     1       7.073   5.037  16.812  0.00  0.00    +0.000 A 
ATOM     22  C   UNL     1       7.409   4.683  18.105  0.00  0.00    +0.000 A 
ATOM     23  S   UNL     1       7.885   6.069  18.994  0.00  0.00    +0.000 S 
ENDBRANCH  17  21
ENDBRANCH  16  17
ENDBRANCH  14  16
ENDBRANCH   1  14
TORSDOF 6
ENDMDL
MODEL 6
REMARK VINA RESULT:      -6.5      2.725      5.841
REMARK  Name = 
REMARK  7 active torsions:
REMARK  status: ('A' for Active; 'I' for Inactive)
REMARK    1  A    between atoms: C_1  and  C_2
REMARK    2  A    between atoms: C_4  and  C_5
REMARK    3  A    between atoms: C_5  and  C_6
REMARK    4  A    between atoms: C_6  and  N_7
REMARK    5  A    between atoms: N_7  and  S_8
REMARK    6  A    between atoms: S_8  and  C_11
REMARK    7  A    between atoms: C_17  and  N_18
REMARK                            x       y       z     vdW  Elec       q    Type
REMARK                         _______ _______ _______ _____ _____    ______ ____
ROOT
ATOM      1  S   UNL     1       1.587   2.822  18.204  0.00  0.00    +0.000 S 
ATOM      2  O   UNL     1       2.155   2.842  16.874  0.00  0.00    +0.000 OA
ATOM      3  O   UNL     1       0.228   2.373  18.417  0.00  0.00    +0.000 OA
ENDROOT
BRANCH   1   4
ATOM      4  C   UNL     1       1.734   4.432  18.904  0.00  0.00    +0.000 A 
ATOM      5  C   UNL     1       2.170   5.484  18.086  0.00  0.00    +0.000 A 
ATOM      6  C   UNL     1       2.366   6.734  18.650  0.00  0.00    +0.000 A 
ATOM      7 CL   UNL     1       2.847   8.067  17.685  0.00  0.00    +0.000 Cl
ATOM      8  C   UNL     1       2.157   6.874  20.010  0.00  0.00    +0.000 A 
ATOM      9  N   UNL     1       1.757   5.862  20.819  0.00  0.00    +0.000 NA
ATOM     10  C   UNL     1       1.547   4.647  20.263  0.00  0.00    +0.000 A 
BRANCH  10  11
ATOM     11  N   UNL     1       1.019   3.710  21.136  0.00  0.00    +0.000 N 
ATOM     12  H   UNL     1       0.214   3.263  20.711  0.00  0.00    +0.000 HD
ATOM     13  H   UNL     1       0.845   4.074  22.075  0.00  0.00    +0.000 HD
ENDBRANCH  10  11
ENDBRANCH   1   4
BRANCH   1  14
ATOM     14  N   UNL     1       2.610   1.899  19.170  0.00  0.00    +0.000 NA
ATOM     15  H   UNL     1       2.453   2.110  20.166  0.00  0.00    +0.000 HD
BRANCH  14  16
ATOM     16  C   UNL     1       4.044   1.886  18.806  0.00  0.00    +0.000 C 
BRANCH  16  17
ATOM     17  C   UNL     1       4.814   2.984  19.546  0.00  0.00    +0.000 C 
BRANCH  17  21
ATOM     18  C   UNL     1       5.769   5.191  15.211  0.00  0.00    +0.000 C 
ATOM     19  C   UNL     1       5.698   5.024  16.688  0.00  0.00    +0.000 A 
ATOM     20  N   UNL     1       5.205   3.962  17.286  0.00  0.00    +0.000 NA
ATOM     21  C   UNL     1       5.306   4.092  18.663  0.00  0.00    +0.000 A 
ATOM     22  C   UNL     1       5.855   5.288  19.085  0.00  0.00    +0.000 A 
ATOM     23  S   UNL     1       6.278   6.254  17.734  0.00  0.00    +0.000 S 
ENDBRANCH  17  21
ENDBRANCH  16  17
ENDBRANCH  14  16
ENDBRANCH   1  14
TORSDOF 6
ENDMDL
MODEL 7
REMARK VINA RESULT:      -6.4      3.020      3.602
REMARK  Name = 
REMARK  7 active torsions:
REMARK  status: ('A' for Active; 'I' for Inactive)
REMARK    1  A    between atoms: C_1  and  C_2
REMARK    2  A    between atoms: C_4  and  C_5
REMARK    3  A    between atoms: C_5  and  C_6
REMARK    4  A    between atoms: C_6  and  N_7
REMARK    5  A    between atoms: N_7  and  S_8
REMARK    6  A    between atoms: S_8  and  C_11
REMARK    7  A    between atoms: C_17  and  N_18
REMARK                            x       y       z     vdW  Elec       q    Type
REMARK                         _______ _______ _______ _____ _____    ______ ____
ROOT
ATOM      1  S   UNL     1       5.594   5.626  15.943  0.00  0.00    +0.000 S 
ATOM      2  O   UNL     1       6.194   4.436  15.382  0.00  0.00    +0.000 OA
ATOM      3  O   UNL     1       5.221   6.734  15.089  0.00  0.00    +0.000 OA
ENDROOT
BRANCH   1   4
ATOM      4  C   UNL     1       6.657   6.253  17.199  0.00  0.00    +0.000 A 
ATOM      5  C   UNL     1       7.119   7.573  17.093  0.00  0.00    +0.000 A 
ATOM      6  C   UNL     1       8.020   8.045  18.033  0.00  0.00    +0.000 A 
ATOM      7 CL   UNL     1       8.575   9.667  17.981  0.00  0.00    +0.000 Cl
ATOM      8  C   UNL     1       8.451   7.173  19.016  0.00  0.00    +0.000 A 
ATOM      9  N   UNL     1       8.032   5.887  19.120  0.00  0.00    +0.000 NA
ATOM     10  C   UNL     1       7.137   5.434  18.213  0.00  0.00    +0.000 A 
BRANCH  10  11
ATOM     11  N   UNL     1       6.669   4.156  18.470  0.00  0.00    +0.000 N 
ATOM     12  H   UNL     1       7.237   3.478  17.973  0.00  0.00    +0.000 HD
ATOM     13  H   UNL     1       5.664   4.046  18.319  0.00  0.00    +0.000 HD
ENDBRANCH  10  11
ENDBRANCH   1   4
BRANCH   1  14
ATOM     14  N   UNL     1       4.236   5.141  16.808  0.00  0.00    +0.000 NA
ATOM     15  H   UNL     1       3.625   4.555  16.221  0.00  0.00    +0.000 HD
BRANCH  14  16
ATOM     16  C   UNL     1       3.495   6.192  17.538  0.00  0.00    +0.000 C 
BRANCH  16  17
ATOM     17  C   UNL     1       3.589   5.988  19.053  0.00  0.00    +0.000 C 
BRANCH  17  21
ATOM     18  C   UNL     1       0.531   2.103  18.686  0.00  0.00    +0.000 C 
ATOM     19  C   UNL     1       1.353   3.154  19.344  0.00  0.00    +0.000 A 
ATOM     20  N   UNL     1       2.087   4.030  18.694  0.00  0.00    +0.000 NA
ATOM     21  C   UNL     1       2.710   4.894  19.583  0.00  0.00    +0.000 A 
ATOM     22  C   UNL     1       2.453   4.627  20.914  0.00  0.00    +0.000 A 
ATOM     23  S   UNL     1       1.392   3.288  21.054  0.00  0.00    +0.000 S 
ENDBRANCH  17  21
ENDBRANCH  16  17
ENDBRANCH  14  16
ENDBRANCH   1  14
TORSDOF 6
ENDMDL
MODEL 8
REMARK VINA RESULT:      -6.4      4.638      7.625
REMARK  Name = 
REMARK  7 active torsions:
REMARK  status: ('A' for Active; 'I' for Inactive)
REMARK    1  A    between atoms: C_1  and  C_2
REMARK    2  A    between atoms: C_4  and  C_5
REMARK    3  A    between atoms: C_5  and  C_6
REMARK    4  A    between atoms: C_6  and  N_7
REMARK    5  A    between atoms: N_7  and  S_8
REMARK    6  A    between atoms: S_8  and  C_11
REMARK    7  A    between atoms: C_17  and  N_18
REMARK                            x       y       z     vdW  Elec       q    Type
REMARK                         _______ _______ _______ _____ _____    ______ ____
ROOT
ATOM      1  S   UNL     1       7.320   5.412  18.597  0.00  0.00    +0.000 S 
ATOM      2  O   UNL     1       8.045   4.426  17.827  0.00  0.00    +0.000 OA
ATOM      3  O   UNL     1       7.552   5.552  20.019  0.00  0.00    +0.000 OA
ENDROOT
BRANCH   1   4
ATOM      4  C   UNL     1       5.594   5.154  18.360  0.00  0.00    +0.000 A 
ATOM      5  C   UNL     1       4.749   5.183  19.478  0.00  0.00    +0.000 A 
ATOM      6  C   UNL     1       3.404   4.899  19.309  0.00  0.00    +0.000 A 
ATOM      7 CL   UNL     1       2.318   4.972  20.634  0.00  0.00    +0.000 Cl
ATOM      8  C   UNL     1       2.964   4.562  18.042  0.00  0.00    +0.000 A 
ATOM      9  N   UNL     1       3.772   4.508  16.954  0.00  0.00    +0.000 NA
ATOM     10  C   UNL     1       5.081   4.805  17.117  0.00  0.00    +0.000 A 
BRANCH  10  11
ATOM     11  N   UNL     1       5.802   4.849  15.935  0.00  0.00    +0.000 N 
ATOM     12  H   UNL     1       6.662   4.321  16.040  0.00  0.00    +0.000 HD
ATOM     13  H   UNL     1       5.937   5.794  15.569  0.00  0.00    +0.000 HD
ENDBRANCH  10  11
ENDBRANCH   1   4
BRANCH   1  14
ATOM     14  N   UNL     1       7.579   6.906  17.866  0.00  0.00    +0.000 NA
ATOM     15  H   UNL     1       7.937   6.781  16.909  0.00  0.00    +0.000 HD
BRANCH  14  16
ATOM     16  C   UNL     1       8.347   7.905  18.640  0.00  0.00    +0.000 C 
BRANCH  16  17
ATOM     17  C   UNL     1       8.226   9.300  18.018  0.00  0.00    +0.000 C 
BRANCH  17  21
ATOM     18  C   UNL     1      11.764  12.761  17.735  0.00  0.00    +0.000 C 
ATOM     19  C   UNL     1      10.769  11.854  18.368  0.00  0.00    +0.000 A 
ATOM     20  N   UNL     1       9.985  11.039  17.699  0.00  0.00    +0.000 NA
ATOM     21  C   UNL     1       9.192  10.306  18.571  0.00  0.00    +0.000 A 
ATOM     22  C   UNL     1       9.376  10.613  19.906  0.00  0.00    +0.000 A 
ATOM     23  S   UNL     1      10.582  11.820  20.074  0.00  0.00    +0.000 S 
ENDBRANCH  17  21
ENDBRANCH  16  17
ENDBRANCH  14  16
ENDBRANCH   1  14
TORSDOF 6
ENDMDL
MODEL 9
REMARK VINA RESULT:      -6.3      4.603      7.414
REMARK  Name = 
REMARK  7 active torsions:
REMARK  status: ('A' for Active; 'I' for Inactive)
REMARK    1  A    between atoms: C_1  and  C_2
REMARK    2  A    between atoms: C_4  and  C_5
REMARK    3  A    between atoms: C_5  and  C_6
REMARK    4  A    between atoms: C_6  and  N_7
REMARK    5  A    between atoms: N_7  and  S_8
REMARK    6  A    between atoms: S_8  and  C_11
REMARK    7  A    between atoms: C_17  and  N_18
REMARK                            x       y       z     vdW  Elec       q    Type
REMARK                         _______ _______ _______ _____ _____    ______ ____
ROOT
ATOM      1  S   UNL     1       7.266   5.631  17.774  0.00  0.00    +0.000 S 
ATOM      2  O   UNL     1       7.565   4.742  16.673  0.00  0.00    +0.000 OA
ATOM      3  O   UNL     1       7.903   5.449  19.061  0.00  0.00    +0.000 OA
ENDROOT
BRANCH   1   4
ATOM      4  C   UNL     1       5.524   5.637  18.036  0.00  0.00    +0.000 A 
ATOM      5  C   UNL     1       4.797   6.788  17.700  0.00  0.00    +0.000 A 
ATOM      6  C   UNL     1       3.441   6.829  17.980  0.00  0.00    +0.000 A 
ATOM      7 CL   UNL     1       2.495   8.191  17.542  0.00  0.00    +0.000 Cl
ATOM      8  C   UNL     1       2.874   5.740  18.616  0.00  0.00    +0.000 A 
ATOM      9  N   UNL     1       3.568   4.628  18.968  0.00  0.00    +0.000 NA
ATOM     10  C   UNL     1       4.888   4.582  18.676  0.00  0.00    +0.000 A 
BRANCH  10  11
ATOM     11  N   UNL     1       5.485   3.364  18.954  0.00  0.00    +0.000 N 
ATOM     12  H   UNL     1       6.180   3.483  19.683  0.00  0.00    +0.000 HD
ATOM     13  H   UNL     1       5.833   2.876  18.126  0.00  0.00    +0.000 HD
ENDBRANCH  10  11
ENDBRANCH   1   4
BRANCH   1  14
ATOM     14  N   UNL     1       7.571   7.200  17.246  0.00  0.00    +0.000 NA
ATOM     15  H   UNL     1       7.983   7.188  16.303  0.00  0.00    +0.000 HD
BRANCH  14  16
ATOM     16  C   UNL     1       8.294   8.091  18.178  0.00  0.00    +0.000 C 
BRANCH  16  17
ATOM     17  C   UNL     1       8.108   9.562  17.796  0.00  0.00    +0.000 C 
BRANCH  17  21
ATOM     18  C   UNL     1       9.973  12.264  21.510  0.00  0.00    +0.000 C 
ATOM     19  C   UNL     1       9.874  11.675  20.148  0.00  0.00    +0.000 A 
ATOM     20  N   UNL     1       8.928  10.844  19.772  0.00  0.00    +0.000 NA
ATOM     21  C   UNL     1       9.091  10.495  18.439  0.00  0.00    +0.000 A 
ATOM     22  C   UNL     1      10.200  11.057  17.834  0.00  0.00    +0.000 A 
ATOM     23  S   UNL     1      11.035  12.060  18.945  0.00  0.00    +0.000 S 
ENDBRANCH  17  21
ENDBRANCH  16  17
ENDBRANCH  14  16
ENDBRANCH   1  14
TORSDOF 6
ENDMDL
