MODEL 1
REMARK VINA RESULT:      -8.5      0.000      0.000
REMARK  Name = 
REMARK  11 active torsions:
REMARK  status: ('A' for Active; 'I' for Inactive)
REMARK    1  A    between atoms: C_1  and  O_2
REMARK    2  A    between atoms: O_2  and  C_3
REMARK    3  A    between atoms: C_5  and  N_6
REMARK    4  A    between atoms: N_6  and  C_7
REMARK    5  A    between atoms: C_7  and  C_8
REMARK    6  A    between atoms: C_7  and  C_9
REMARK    7  A    between atoms: C_9  and  C_10
REMARK    8  A    between atoms: C_10  and  C_11
REMARK    9  A    between atoms: C_11  and  N_12
REMARK   10  A    between atoms: C_15  and  C_16
REMARK   11  A    between atoms: C_16  and  C_17
REMARK                            x       y       z     vdW  Elec       q    Type
REMARK                         _______ _______ _______ _____ _____    ______ ____
ROOT
ATOM      1  C   UNL     1       4.444   5.957  19.165  0.00  0.00    +0.000 C 
ENDROOT
BRANCH   1   2
ATOM      2  N   UNL     1       5.296   5.167  18.277  0.00  0.00    +0.000 N 
ATOM      3  C   UNL     1       4.884   3.934  17.796  0.00  0.00    +0.000 C 
ATOM      4  O   UNL     1       3.911   3.285  18.149  0.00  0.00    +0.000 OA
ATOM      5  C   UNL     1       5.767   3.650  16.607  0.00  0.00    +0.000 C 
ATOM      6  N   UNL     1       6.981   4.431  16.894  0.00  0.00    +0.000 NA
ATOM      7  C   UNL     1       6.618   5.536  17.796  0.00  0.00    +0.000 C 
ATOM      8  C   UNL     1       7.705   5.584  18.883  0.00  0.00    +0.000 C 
ATOM      9  C   UNL     1       8.340   6.967  18.837  0.00  0.00    +0.000 C 
ATOM     10  C   UNL     1       7.466   7.833  17.949  0.00  0.00    +0.000 C 
ATOM     11  C   UNL     1       6.674   6.885  17.061  0.00  0.00    +0.000 C 
ATOM     12  H   UNL     1       7.410   4.757  16.032  0.00  0.00    +0.000 HD
BRANCH   5  13
ATOM     13  C   UNL     1       5.010   4.158  15.367  0.00  0.00    +0.000 C 
BRANCH  13  14
ATOM     14  C   UNL     1       5.817   4.175  14.090  0.00  0.00    +0.000 A 
ATOM     15  C   UNL     1       6.936   5.010  13.972  0.00  0.00    +0.000 A 
ATOM     16  C   UNL     1       7.701   5.004  12.807  0.00  0.00    +0.000 A 
ATOM     17  C   UNL     1       7.356   4.163  11.747  0.00  0.00    +0.000 A 
ATOM     18  C   UNL     1       6.240   3.333  11.858  0.00  0.00    +0.000 A 
ATOM     19  C   UNL     1       5.477   3.336  13.021  0.00  0.00    +0.000 A 
ENDBRANCH  13  14
ENDBRANCH   5  13
ENDBRANCH   1   2
BRANCH   1  20
ATOM     20  C   UNL     1       3.250   6.554  18.445  0.00  0.00    +0.000 C 
BRANCH  20  21
ATOM     21  C   UNL     1       2.232   7.250  19.360  0.00  0.00    +0.000 C 
BRANCH  21  22
ATOM     22  C   UNL     1       1.616   8.444  18.605  0.00  0.00    +0.000 C 
ATOM     23  C   UNL     1       2.631   9.203  17.760  0.00  0.00    +0.000 C 
BRANCH  22  24
ATOM     24  N   UNL     1       1.005   9.349  19.566  0.00  0.00    +0.000 N 
ATOM     25  H   UNL     1       1.460   9.515  20.465  0.00  0.00    +0.000 HD
BRANCH  24  28
ATOM     26  C   UNL     1      -1.768  11.105  17.824  0.00  0.00    +0.000 A 
ATOM     27  C   UNL     1      -0.679  10.277  18.062  0.00  0.00    +0.000 A 
ATOM     28  C   UNL     1      -0.099  10.174  19.336  0.00  0.00    +0.000 A 
ATOM     29  C   UNL     1      -0.669  10.874  20.422  0.00  0.00    +0.000 A 
ATOM     30  N   UNL     1      -0.169  10.728  21.677  0.00  0.00    +0.000 NA
ATOM     31  C   UNL     1      -0.756  11.411  22.687  0.00  0.00    +0.000 A 
ATOM     32  C   UNL     1      -1.818  12.277  22.517  0.00  0.00    +0.000 A 
ATOM     33  C   UNL     1      -2.323  12.442  21.241  0.00  0.00    +0.000 A 
ATOM     34  C   UNL     1      -1.766  11.734  20.165  0.00  0.00    +0.000 A 
ATOM     35  C   UNL     1      -2.287  11.859  18.870  0.00  0.00    +0.000 A 
BRANCH  26  37
ATOM     36  C   UNL     1      -2.792  10.091  15.949  0.00  0.00    +0.000 C 
ATOM     37  O   UNL     1      -2.362  11.282  16.604  0.00  0.00    +0.000 OA
ENDBRANCH  26  37
ENDBRANCH  24  28
ENDBRANCH  22  24
ENDBRANCH  21  22
ENDBRANCH  20  21
ENDBRANCH   1  20
TORSDOF 9
ENDMDL
MODEL 2
REMARK VINA RESULT:      -8.5      5.451      8.604
REMARK  Name = 
REMARK  11 active torsions:
REMARK  status: ('A' for Active; 'I' for Inactive)
REMARK    1  A    between atoms: C_1  and  O_2
REMARK    2  A    between atoms: O_2  and  C_3
REMARK    3  A    between atoms: C_5  and  N_6
REMARK    4  A    between atoms: N_6  and  C_7
REMARK    5  A    between atoms: C_7  and  C_8
REMARK    6  A    between atoms: C_7  and  C_9
REMARK    7  A    between atoms: C_9  and  C_10
REMARK    8  A    between atoms: C_10  and  C_11
REMARK    9  A    between atoms: C_11  and  N_12
REMARK   10  A    between atoms: C_15  and  C_16
REMARK   11  A    between atoms: C_16  and  C_17
REMARK                            x       y       z     vdW  Elec       q    Type
REMARK                         _______ _______ _______ _____ _____    ______ ____
ROOT
ATOM      1  C   UNL     1       7.705   6.909  17.141  0.00  0.00    +0.000 C 
ENDROOT
BRANCH   1   2
ATOM      2  N   UNL     1       6.922   5.764  17.601  0.00  0.00    +0.000 N 
ATOM      3  C   UNL     1       6.865   5.425  18.944  0.00  0.00    +0.000 C 
ATOM      4  O   UNL     1       7.541   5.878  19.855  0.00  0.00    +0.000 OA
ATOM      5  C   UNL     1       5.657   4.532  19.083  0.00  0.00    +0.000 C 
ATOM      6  N   UNL     1       5.510   3.952  17.739  0.00  0.00    +0.000 NA
ATOM      7  C   UNL     1       6.137   4.865  16.770  0.00  0.00    +0.000 C 
ATOM      8  C   UNL     1       6.964   3.985  15.817  0.00  0.00    +0.000 C 
ATOM      9  C   UNL     1       6.443   4.220  14.406  0.00  0.00    +0.000 C 
ATOM     10  C   UNL     1       5.526   5.427  14.460  0.00  0.00    +0.000 C 
ATOM     11  C   UNL     1       5.073   5.564  15.907  0.00  0.00    +0.000 C 
ATOM     12  H   UNL     1       4.531   3.775  17.529  0.00  0.00    +0.000 HD
BRANCH   5  13
ATOM     13  C   UNL     1       4.479   5.444  19.471  0.00  0.00    +0.000 C 
BRANCH  13  14
ATOM     14  C   UNL     1       3.137   4.755  19.546  0.00  0.00    +0.000 A 
ATOM     15  C   UNL     1       2.434   4.447  18.375  0.00  0.00    +0.000 A 
ATOM     16  C   UNL     1       1.210   3.783  18.439  0.00  0.00    +0.000 A 
ATOM     17  C   UNL     1       0.676   3.419  19.677  0.00  0.00    +0.000 A 
ATOM     18  C   UNL     1       1.370   3.727  20.848  0.00  0.00    +0.000 A 
ATOM     19  C   UNL     1       2.593   4.387  20.784  0.00  0.00    +0.000 A 
ENDBRANCH  13  14
ENDBRANCH   5  13
ENDBRANCH   1   2
BRANCH   1  20
ATOM     20  C   UNL     1       7.492   8.141  18.002  0.00  0.00    +0.000 C 
BRANCH  20  21
ATOM     21  C   UNL     1       8.774   8.725  18.613  0.00  0.00    +0.000 C 
BRANCH  21  22
ATOM     22  C   UNL     1       8.553  10.222  18.902  0.00  0.00    +0.000 C 
ATOM     23  C   UNL     1       8.564  11.080  17.643  0.00  0.00    +0.000 C 
BRANCH  22  24
ATOM     24  N   UNL     1       9.582  10.685  19.820  0.00  0.00    +0.000 N 
ATOM     25  H   UNL     1      10.517  10.277  19.780  0.00  0.00    +0.000 HD
BRANCH  24  28
ATOM     26  C   UNL     1       8.573  12.813  22.694  0.00  0.00    +0.000 A 
ATOM     27  C   UNL     1       8.684  11.726  21.837  0.00  0.00    +0.000 A 
ATOM     28  C   UNL     1       9.484  11.777  20.685  0.00  0.00    +0.000 A 
ATOM     29  C   UNL     1      10.249  12.934  20.416  0.00  0.00    +0.000 A 
ATOM     30  N   UNL     1      11.087  12.975  19.348  0.00  0.00    +0.000 NA
ATOM     31  C   UNL     1      11.808  14.102  19.139  0.00  0.00    +0.000 A 
ATOM     32  C   UNL     1      11.720  15.231  19.929  0.00  0.00    +0.000 A 
ATOM     33  C   UNL     1      10.859  15.201  21.009  0.00  0.00    +0.000 A 
ATOM     34  C   UNL     1      10.111  14.047  21.284  0.00  0.00    +0.000 A 
ATOM     35  C   UNL     1       9.260  13.984  22.395  0.00  0.00    +0.000 A 
BRANCH  26  37
ATOM     36  C   UNL     1       7.077  11.645  24.105  0.00  0.00    +0.000 C 
ATOM     37  O   UNL     1       7.786  12.847  23.813  0.00  0.00    +0.000 OA
ENDBRANCH  26  37
ENDBRANCH  24  28
ENDBRANCH  22  24
ENDBRANCH  21  22
ENDBRANCH  20  21
ENDBRANCH   1  20
TORSDOF 9
ENDMDL
MODEL 3
REMARK VINA RESULT:      -8.4      2.105      3.355
REMARK  Name = 
REMARK  11 active torsions:
REMARK  status: ('A' for Active; 'I' for Inactive)
REMARK    1  A    between atoms: C_1  and  O_2
REMARK    2  A    between atoms: O_2  and  C_3
REMARK    3  A    between atoms: C_5  and  N_6
REMARK    4  A    between atoms: N_6  and  C_7
REMARK    5  A    between atoms: C_7  and  C_8
REMARK    6  A    between atoms: C_7  and  C_9
REMARK    7  A    between atoms: C_9  and  C_10
REMARK    8  A    between atoms: C_10  and  C_11
REMARK    9  A    between atoms: C_11  and  N_12
REMARK   10  A    between atoms: C_15  and  C_16
REMARK   11  A    between atoms: C_16  and  C_17
REMARK                            x       y       z     vdW  Elec       q    Type
REMARK                         _______ _______ _______ _____ _____    ______ ____
ROOT
ATOM      1  C   UNL     1       3.020   6.067  20.205  0.00  0.00    +0.000 C 
ENDROOT
BRANCH   1   2
ATOM      2  N   UNL     1       2.899   5.044  19.168  0.00  0.00    +0.000 N 
ATOM      3  C   UNL     1       3.180   5.331  17.840  0.00  0.00    +0.000 C 
ATOM      4  O   UNL     1       3.380   6.429  17.343  0.00  0.00    +0.000 OA
ATOM      5  C   UNL     1       3.388   3.994  17.175  0.00  0.00    +0.000 C 
ATOM      6  N   UNL     1       2.610   3.072  18.018  0.00  0.00    +0.000 NA
ATOM      7  C   UNL     1       2.491   3.662  19.361  0.00  0.00    +0.000 C 
ATOM      8  C   UNL     1       1.024   3.479  19.787  0.00  0.00    +0.000 C 
ATOM      9  C   UNL     1       1.018   2.670  21.076  0.00  0.00    +0.000 C 
ATOM     10  C   UNL     1       2.447   2.615  21.580  0.00  0.00    +0.000 C 
ATOM     11  C   UNL     1       3.342   2.884  20.378  0.00  0.00    +0.000 C 
ATOM     12  H   UNL     1       3.039   2.151  18.034  0.00  0.00    +0.000 HD
BRANCH   5  13
ATOM     13  C   UNL     1       4.901   3.711  17.223  0.00  0.00    +0.000 C 
BRANCH  13  14
ATOM     14  C   UNL     1       5.660   4.090  15.973  0.00  0.00    +0.000 A 
ATOM     15  C   UNL     1       6.825   4.861  16.060  0.00  0.00    +0.000 A 
ATOM     16  C   UNL     1       7.546   5.185  14.911  0.00  0.00    +0.000 A 
ATOM     17  C   UNL     1       7.107   4.741  13.663  0.00  0.00    +0.000 A 
ATOM     18  C   UNL     1       5.944   3.976  13.569  0.00  0.00    +0.000 A 
ATOM     19  C   UNL     1       5.226   3.650  14.715  0.00  0.00    +0.000 A 
ENDBRANCH  13  14
ENDBRANCH   5  13
ENDBRANCH   1   2
BRANCH   1  20
ATOM     20  C   UNL     1       1.707   6.777  20.477  0.00  0.00    +0.000 C 
BRANCH  20  21
ATOM     21  C   UNL     1       1.668   8.245  20.029  0.00  0.00    +0.000 C 
BRANCH  21  22
ATOM     22  C   UNL     1       1.041   9.094  21.151  0.00  0.00    +0.000 C 
ATOM     23  C   UNL     1      -0.286   8.535  21.650  0.00  0.00    +0.000 C 
BRANCH  22  24
ATOM     24  N   UNL     1       0.849  10.452  20.668  0.00  0.00    +0.000 N 
ATOM     25  H   UNL     1       1.659  11.042  20.479  0.00  0.00    +0.000 HD
BRANCH  24  28
ATOM     26  C   UNL     1      -2.138  11.277  18.616  0.00  0.00    +0.000 A 
ATOM     27  C   UNL     1      -0.940  10.706  19.026  0.00  0.00    +0.000 A 
ATOM     28  C   UNL     1      -0.363  11.020  20.266  0.00  0.00    +0.000 A 
ATOM     29  C   UNL     1      -1.040  11.887  21.153  0.00  0.00    +0.000 A 
ATOM     30  N   UNL     1      -0.536  12.144  22.387  0.00  0.00    +0.000 NA
ATOM     31  C   UNL     1      -1.227  12.972  23.205  0.00  0.00    +0.000 A 
ATOM     32  C   UNL     1      -2.403  13.601  22.849  0.00  0.00    +0.000 A 
ATOM     33  C   UNL     1      -2.915  13.356  21.589  0.00  0.00    +0.000 A 
ATOM     34  C   UNL     1      -2.250  12.483  20.716  0.00  0.00    +0.000 A 
ATOM     35  C   UNL     1      -2.772  12.192  19.448  0.00  0.00    +0.000 A 
BRANCH  26  37
ATOM     36  C   UNL     1      -2.261   9.911  16.688  0.00  0.00    +0.000 C 
ATOM     37  O   UNL     1      -2.740  11.045  17.408  0.00  0.00    +0.000 OA
ENDBRANCH  26  37
ENDBRANCH  24  28
ENDBRANCH  22  24
ENDBRANCH  21  22
ENDBRANCH  20  21
ENDBRANCH   1  20
TORSDOF 9
ENDMDL
MODEL 4
REMARK VINA RESULT:      -8.4      1.426      2.617
REMARK  Name = 
REMARK  11 active torsions:
REMARK  status: ('A' for Active; 'I' for Inactive)
REMARK    1  A    between atoms: C_1  and  O_2
REMARK    2  A    between atoms: O_2  and  C_3
REMARK    3  A    between atoms: C_5  and  N_6
REMARK    4  A    between atoms: N_6  and  C_7
REMARK    5  A    between atoms: C_7  and  C_8
REMARK    6  A    between atoms: C_7  and  C_9
REMARK    7  A    between atoms: C_9  and  C_10
REMARK    8  A    between atoms: C_10  and  C_11
REMARK    9  A    between atoms: C_11  and  N_12
REMARK   10  A    between atoms: C_15  and  C_16
REMARK   11  A    between atoms: C_16  and  C_17
REMARK                            x       y       z     vdW  Elec       q    Type
REMARK                         _______ _______ _______ _____ _____    ______ ____
ROOT
ATOM      1  C   UNL     1       4.320   5.983  18.957  0.00  0.00    +0.000 C 
ENDROOT
BRANCH   1   2
ATOM      2  N   UNL     1       5.169   5.147  18.110  0.00  0.00    +0.000 N 
ATOM      3  C   UNL     1       4.714   3.936  17.611  0.00  0.00    +0.000 C 
ATOM      4  O   UNL     1       3.692   3.342  17.918  0.00  0.00    +0.000 OA
ATOM      5  C   UNL     1       5.637   3.602  16.466  0.00  0.00    +0.000 C 
ATOM      6  N   UNL     1       6.876   4.317  16.810  0.00  0.00    +0.000 NA
ATOM      7  C   UNL     1       6.530   5.442  17.693  0.00  0.00    +0.000 C 
ATOM      8  C   UNL     1       7.566   5.434  18.831  0.00  0.00    +0.000 C 
ATOM      9  C   UNL     1       8.276   6.781  18.814  0.00  0.00    +0.000 C 
ATOM     10  C   UNL     1       7.494   7.691  17.886  0.00  0.00    +0.000 C 
ATOM     11  C   UNL     1       6.694   6.784  16.961  0.00  0.00    +0.000 C 
ATOM     12  H   UNL     1       7.362   4.617  15.969  0.00  0.00    +0.000 HD
BRANCH   5  13
ATOM     13  C   UNL     1       4.968   4.147  15.190  0.00  0.00    +0.000 C 
BRANCH  13  14
ATOM     14  C   UNL     1       5.852   4.166  13.966  0.00  0.00    +0.000 A 
ATOM     15  C   UNL     1       6.934   5.052  13.890  0.00  0.00    +0.000 A 
ATOM     16  C   UNL     1       7.771   5.051  12.774  0.00  0.00    +0.000 A 
ATOM     17  C   UNL     1       7.533   4.163  11.723  0.00  0.00    +0.000 A 
ATOM     18  C   UNL     1       6.454   3.281  11.792  0.00  0.00    +0.000 A 
ATOM     19  C   UNL     1       5.620   3.280  12.906  0.00  0.00    +0.000 A 
ENDBRANCH  13  14
ENDBRANCH   5  13
ENDBRANCH   1   2
BRANCH   1  20
ATOM     20  C   UNL     1       3.479   6.957  18.154  0.00  0.00    +0.000 C 
BRANCH  20  21
ATOM     21  C   UNL     1       2.028   7.101  18.637  0.00  0.00    +0.000 C 
BRANCH  21  22
ATOM     22  C   UNL     1       1.941   8.294  19.608  0.00  0.00    +0.000 C 
ATOM     23  C   UNL     1       1.111   7.992  20.850  0.00  0.00    +0.000 C 
BRANCH  22  24
ATOM     24  N   UNL     1       1.374   9.435  18.907  0.00  0.00    +0.000 N 
ATOM     25  H   UNL     1       1.555   9.559  17.910  0.00  0.00    +0.000 HD
BRANCH  24  28
ATOM     26  C   UNL     1      -0.210  11.981  21.103  0.00  0.00    +0.000 A 
ATOM     27  C   UNL     1       0.716  11.089  20.578  0.00  0.00    +0.000 A 
ATOM     28  C   UNL     1       0.443  10.340  19.423  0.00  0.00    +0.000 A 
ATOM     29  C   UNL     1      -0.774  10.539  18.733  0.00  0.00    +0.000 A 
ATOM     30  N   UNL     1      -1.025   9.881  17.572  0.00  0.00    +0.000 NA
ATOM     31  C   UNL     1      -2.200  10.113  16.941  0.00  0.00    +0.000 A 
ATOM     32  C   UNL     1      -3.180  10.958  17.424  0.00  0.00    +0.000 A 
ATOM     33  C   UNL     1      -2.937  11.620  18.613  0.00  0.00    +0.000 A 
ATOM     34  C   UNL     1      -1.722  11.434  19.289  0.00  0.00    +0.000 A 
ATOM     35  C   UNL     1      -1.442  12.125  20.476  0.00  0.00    +0.000 A 
BRANCH  26  37
ATOM     36  C   UNL     1      -1.197  12.937  23.028  0.00  0.00    +0.000 C 
ATOM     37  O   UNL     1      -0.027  12.716  22.243  0.00  0.00    +0.000 OA
ENDBRANCH  26  37
ENDBRANCH  24  28
ENDBRANCH  22  24
ENDBRANCH  21  22
ENDBRANCH  20  21
ENDBRANCH   1  20
TORSDOF 9
ENDMDL
MODEL 5
REMARK VINA RESULT:      -8.3      1.592      2.557
REMARK  Name = 
REMARK  11 active torsions:
REMARK  status: ('A' for Active; 'I' for Inactive)
REMARK    1  A    between atoms: C_1  and  O_2
REMARK    2  A    between atoms: O_2  and  C_3
REMARK    3  A    between atoms: C_5  and  N_6
REMARK    4  A    between atoms: N_6  and  C_7
REMARK    5  A    between atoms: C_7  and  C_8
REMARK    6  A    between atoms: C_7  and  C_9
REMARK    7  A    between atoms: C_9  and  C_10
REMARK    8  A    between atoms: C_10  and  C_11
REMARK    9  A    between atoms: C_11  and  N_12
REMARK   10  A    between atoms: C_15  and  C_16
REMARK   11  A    between atoms: C_16  and  C_17
REMARK                            x       y       z     vdW  Elec       q    Type
REMARK                         _______ _______ _______ _____ _____    ______ ____
ROOT
ATOM      1  C   UNL     1       4.252   6.099  18.950  0.00  0.00    +0.000 C 
ENDROOT
BRANCH   1   2
ATOM      2  N   UNL     1       5.108   5.258  18.114  0.00  0.00    +0.000 N 
ATOM      3  C   UNL     1       4.668   4.031  17.642  0.00  0.00    +0.000 C 
ATOM      4  O   UNL     1       3.656   3.428  17.966  0.00  0.00    +0.000 OA
ATOM      5  C   UNL     1       5.588   3.687  16.497  0.00  0.00    +0.000 C 
ATOM      6  N   UNL     1       6.819   4.427  16.820  0.00  0.00    +0.000 NA
ATOM      7  C   UNL     1       6.462   5.564  17.683  0.00  0.00    +0.000 C 
ATOM      8  C   UNL     1       7.505   5.594  18.814  0.00  0.00    +0.000 C 
ATOM      9  C   UNL     1       8.195   6.950  18.767  0.00  0.00    +0.000 C 
ATOM     10  C   UNL     1       7.394   7.829  17.826  0.00  0.00    +0.000 C 
ATOM     11  C   UNL     1       6.603   6.894  16.924  0.00  0.00    +0.000 C 
ATOM     12  H   UNL     1       7.296   4.717  15.970  0.00  0.00    +0.000 HD
BRANCH   5  13
ATOM     13  C   UNL     1       4.904   4.197  15.216  0.00  0.00    +0.000 C 
BRANCH  13  14
ATOM     14  C   UNL     1       5.774   4.185  13.981  0.00  0.00    +0.000 A 
ATOM     15  C   UNL     1       6.898   5.015  13.901  0.00  0.00    +0.000 A 
ATOM     16  C   UNL     1       7.721   4.984  12.776  0.00  0.00    +0.000 A 
ATOM     17  C   UNL     1       7.427   4.121  11.719  0.00  0.00    +0.000 A 
ATOM     18  C   UNL     1       6.305   3.294  11.791  0.00  0.00    +0.000 A 
ATOM     19  C   UNL     1       5.485   3.323  12.915  0.00  0.00    +0.000 A 
ENDBRANCH  13  14
ENDBRANCH   5  13
ENDBRANCH   1   2
BRANCH   1  20
ATOM     20  C   UNL     1       2.958   6.480  18.256  0.00  0.00    +0.000 C 
BRANCH  20  21
ATOM     21  C   UNL     1       2.945   7.894  17.656  0.00  0.00    +0.000 C 
BRANCH  21  22
ATOM     22  C   UNL     1       2.257   8.851  18.647  0.00  0.00    +0.000 C 
ATOM     23  C   UNL     1       1.549   8.124  19.784  0.00  0.00    +0.000 C 
BRANCH  22  24
ATOM     24  N   UNL     1       1.302   9.676  17.925  0.00  0.00    +0.000 N 
ATOM     25  H   UNL     1       1.093   9.471  16.947  0.00  0.00    +0.000 HD
BRANCH  24  28
ATOM     26  C   UNL     1       0.208  12.669  19.838  0.00  0.00    +0.000 A 
ATOM     27  C   UNL     1       1.017  11.689  19.276  0.00  0.00    +0.000 A 
ATOM     28  C   UNL     1       0.485  10.666  18.476  0.00  0.00    +0.000 A 
ATOM     29  C   UNL     1      -0.895  10.661  18.175  0.00  0.00    +0.000 A 
ATOM     30  N   UNL     1      -1.417   9.724  17.342  0.00  0.00    +0.000 NA
ATOM     31  C   UNL     1      -2.743   9.767  17.074  0.00  0.00    +0.000 A 
ATOM     32  C   UNL     1      -3.611  10.689  17.625  0.00  0.00    +0.000 A 
ATOM     33  C   UNL     1      -3.090  11.637  18.485  0.00  0.00    +0.000 A 
ATOM     34  C   UNL     1      -1.717  11.651  18.771  0.00  0.00    +0.000 A 
ATOM     35  C   UNL     1      -1.163  12.626  19.612  0.00  0.00    +0.000 A 
BRANCH  26  37
ATOM     36  C   UNL     1       1.797  14.384  20.191  0.00  0.00    +0.000 C 
ATOM     37  O   UNL     1       0.651  13.673  20.655  0.00  0.00    +0.000 OA
ENDBRANCH  26  37
ENDBRANCH  24  28
ENDBRANCH  22  24
ENDBRANCH  21  22
ENDBRANCH  20  21
ENDBRANCH   1  20
TORSDOF 9
ENDMDL
MODEL 6
REMARK VINA RESULT:      -8.3      2.886     10.554
REMARK  Name = 
REMARK  11 active torsions:
REMARK  status: ('A' for Active; 'I' for Inactive)
REMARK    1  A    between atoms: C_1  and  O_2
REMARK    2  A    between atoms: O_2  and  C_3
REMARK    3  A    between atoms: C_5  and  N_6
REMARK    4  A    between atoms: N_6  and  C_7
REMARK    5  A    between atoms: C_7  and  C_8
REMARK    6  A    between atoms: C_7  and  C_9
REMARK    7  A    between atoms: C_9  and  C_10
REMARK    8  A    between atoms: C_10  and  C_11
REMARK    9  A    between atoms: C_11  and  N_12
REMARK   10  A    between atoms: C_15  and  C_16
REMARK   11  A    between atoms: C_16  and  C_17
REMARK                            x       y       z     vdW  Elec       q    Type
REMARK                         _______ _______ _______ _____ _____    ______ ____
ROOT
ATOM      1  C   UNL     1      -0.198   9.379  18.261  0.00  0.00    +0.000 C 
ENDROOT
BRANCH   1   2
ATOM      2  N   UNL     1      -1.118  10.480  17.980  0.00  0.00    +0.000 N 
ATOM      3  C   UNL     1      -2.032  10.404  16.940  0.00  0.00    +0.000 C 
ATOM      4  O   UNL     1      -2.089   9.560  16.060  0.00  0.00    +0.000 OA
ATOM      5  C   UNL     1      -3.066  11.462  17.236  0.00  0.00    +0.000 C 
ATOM      6  N   UNL     1      -2.328  12.435  18.056  0.00  0.00    +0.000 NA
ATOM      7  C   UNL     1      -1.205  11.738  18.703  0.00  0.00    +0.000 C 
ATOM      8  C   UNL     1       0.022  12.654  18.548  0.00  0.00    +0.000 C 
ATOM      9  C   UNL     1       0.534  12.975  19.945  0.00  0.00    +0.000 C 
ATOM     10  C   UNL     1      -0.177  12.046  20.910  0.00  0.00    +0.000 C 
ATOM     11  C   UNL     1      -1.451  11.588  20.214  0.00  0.00    +0.000 C 
ATOM     12  H   UNL     1      -2.947  12.883  18.727  0.00  0.00    +0.000 HD
BRANCH   5  13
ATOM     13  C   UNL     1      -4.198  10.765  18.012  0.00  0.00    +0.000 C 
BRANCH  13  14
ATOM     14  C   UNL     1      -5.466  11.573  18.154  0.00  0.00    +0.000 A 
ATOM     15  C   UNL     1      -6.262  11.444  19.298  0.00  0.00    +0.000 A 
ATOM     16  C   UNL     1      -7.417  12.212  19.446  0.00  0.00    +0.000 A 
ATOM     17  C   UNL     1      -7.786  13.117  18.450  0.00  0.00    +0.000 A 
ATOM     18  C   UNL     1      -6.999  13.247  17.305  0.00  0.00    +0.000 A 
ATOM     19  C   UNL     1      -5.845  12.483  17.158  0.00  0.00    +0.000 A 
ENDBRANCH  13  14
ENDBRANCH   5  13
ENDBRANCH   1   2
BRANCH   1  20
ATOM     20  C   UNL     1       1.256   9.787  18.116  0.00  0.00    +0.000 C 
BRANCH  20  21
ATOM     21  C   UNL     1       2.264   8.642  18.298  0.00  0.00    +0.000 C 
BRANCH  21  22
ATOM     22  C   UNL     1       1.846   7.797  19.516  0.00  0.00    +0.000 C 
ATOM     23  C   UNL     1       1.637   8.630  20.775  0.00  0.00    +0.000 C 
BRANCH  22  24
ATOM     24  N   UNL     1       2.860   6.785  19.762  0.00  0.00    +0.000 N 
ATOM     25  H   UNL     1       3.263   6.687  20.695  0.00  0.00    +0.000 HD
BRANCH  24  28
ATOM     26  C   UNL     1       4.769   4.958  17.149  0.00  0.00    +0.000 A 
ATOM     27  C   UNL     1       4.377   5.946  18.043  0.00  0.00    +0.000 A 
ATOM     28  C   UNL     1       3.257   5.782  18.874  0.00  0.00    +0.000 A 
ATOM     29  C   UNL     1       2.544   4.563  18.854  0.00  0.00    +0.000 A 
ATOM     30  N   UNL     1       1.505   4.357  19.704  0.00  0.00    +0.000 NA
ATOM     31  C   UNL     1       0.860   3.167  19.655  0.00  0.00    +0.000 A 
ATOM     32  C   UNL     1       1.173   2.157  18.768  0.00  0.00    +0.000 A 
ATOM     33  C   UNL     1       2.221   2.365  17.891  0.00  0.00    +0.000 A 
ATOM     34  C   UNL     1       2.938   3.570  17.922  0.00  0.00    +0.000 A 
ATOM     35  C   UNL     1       4.026   3.786  17.066  0.00  0.00    +0.000 A 
BRANCH  26  37
ATOM     36  C   UNL     1       6.885   5.918  16.708  0.00  0.00    +0.000 C 
ATOM     37  O   UNL     1       5.826   5.062  16.285  0.00  0.00    +0.000 OA
ENDBRANCH  26  37
ENDBRANCH  24  28
ENDBRANCH  22  24
ENDBRANCH  21  22
ENDBRANCH  20  21
ENDBRANCH   1  20
TORSDOF 9
ENDMDL
MODEL 7
REMARK VINA RESULT:      -8.3      2.017      3.321
REMARK  Name = 
REMARK  11 active torsions:
REMARK  status: ('A' for Active; 'I' for Inactive)
REMARK    1  A    between atoms: C_1  and  O_2
REMARK    2  A    between atoms: O_2  and  C_3
REMARK    3  A    between atoms: C_5  and  N_6
REMARK    4  A    between atoms: N_6  and  C_7
REMARK    5  A    between atoms: C_7  and  C_8
REMARK    6  A    between atoms: C_7  and  C_9
REMARK    7  A    between atoms: C_9  and  C_10
REMARK    8  A    between atoms: C_10  and  C_11
REMARK    9  A    between atoms: C_11  and  N_12
REMARK   10  A    between atoms: C_15  and  C_16
REMARK   11  A    between atoms: C_16  and  C_17
REMARK                            x       y       z     vdW  Elec       q    Type
REMARK                         _______ _______ _______ _____ _____    ______ ____
ROOT
ATOM      1  C   UNL     1       2.915   6.114  20.192  0.00  0.00    +0.000 C 
ENDROOT
BRANCH   1   2
ATOM      2  N   UNL     1       2.856   5.062  19.179  0.00  0.00    +0.000 N 
ATOM      3  C   UNL     1       3.161   5.325  17.852  0.00  0.00    +0.000 C 
ATOM      4  O   UNL     1       3.335   6.416  17.331  0.00  0.00    +0.000 OA
ATOM      5  C   UNL     1       3.433   3.979  17.227  0.00  0.00    +0.000 C 
ATOM      6  N   UNL     1       2.665   3.053  18.074  0.00  0.00    +0.000 NA
ATOM      7  C   UNL     1       2.492   3.671  19.398  0.00  0.00    +0.000 C 
ATOM      8  C   UNL     1       1.022   3.448  19.792  0.00  0.00    +0.000 C 
ATOM      9  C   UNL     1       1.010   2.672  21.102  0.00  0.00    +0.000 C 
ATOM     10  C   UNL     1       2.427   2.679  21.641  0.00  0.00    +0.000 C 
ATOM     11  C   UNL     1       3.343   2.950  20.456  0.00  0.00    +0.000 C 
ATOM     12  H   UNL     1       3.125   2.147  18.125  0.00  0.00    +0.000 HD
BRANCH   5  13
ATOM     13  C   UNL     1       4.953   3.752  17.320  0.00  0.00    +0.000 C 
BRANCH  13  14
ATOM     14  C   UNL     1       5.725   4.089  16.066  0.00  0.00    +0.000 A 
ATOM     15  C   UNL     1       5.252   3.678  14.814  0.00  0.00    +0.000 A 
ATOM     16  C   UNL     1       5.946   4.014  13.652  0.00  0.00    +0.000 A 
ATOM     17  C   UNL     1       7.120   4.765  13.731  0.00  0.00    +0.000 A 
ATOM     18  C   UNL     1       7.598   5.173  14.977  0.00  0.00    +0.000 A 
ATOM     19  C   UNL     1       6.905   4.840  16.137  0.00  0.00    +0.000 A 
ENDBRANCH  13  14
ENDBRANCH   5  13
ENDBRANCH   1   2
BRANCH   1  20
ATOM     20  C   UNL     1       1.640   6.933  20.254  0.00  0.00    +0.000 C 
BRANCH  20  21
ATOM     21  C   UNL     1       1.856   8.445  20.404  0.00  0.00    +0.000 C 
BRANCH  21  22
ATOM     22  C   UNL     1       1.089   9.173  19.283  0.00  0.00    +0.000 C 
ATOM     23  C   UNL     1       1.929   9.392  18.031  0.00  0.00    +0.000 C 
BRANCH  22  24
ATOM     24  N   UNL     1       0.617  10.454  19.786  0.00  0.00    +0.000 N 
ATOM     25  H   UNL     1       1.276  11.102  20.218  0.00  0.00    +0.000 HD
BRANCH  24  28
ATOM     26  C   UNL     1      -2.674  11.251  18.256  0.00  0.00    +0.000 A 
ATOM     27  C   UNL     1      -1.411  10.708  18.451  0.00  0.00    +0.000 A 
ATOM     28  C   UNL     1      -0.658  10.993  19.601  0.00  0.00    +0.000 A 
ATOM     29  C   UNL     1      -1.216  11.796  20.620  0.00  0.00    +0.000 A 
ATOM     30  N   UNL     1      -0.535  12.021  21.773  0.00  0.00    +0.000 NA
ATOM     31  C   UNL     1      -1.116  12.789  22.725  0.00  0.00    +0.000 A 
ATOM     32  C   UNL     1      -2.352  13.388  22.583  0.00  0.00    +0.000 A 
ATOM     33  C   UNL     1      -3.045  13.176  21.406  0.00  0.00    +0.000 A 
ATOM     34  C   UNL     1      -2.497  12.365  20.402  0.00  0.00    +0.000 A 
ATOM     35  C   UNL     1      -3.199  12.107  19.217  0.00  0.00    +0.000 A 
BRANCH  26  37
ATOM     36  C   UNL     1      -2.739  10.913  15.916  0.00  0.00    +0.000 C 
ATOM     37  O   UNL     1      -3.449  11.047  17.146  0.00  0.00    +0.000 OA
ENDBRANCH  26  37
ENDBRANCH  24  28
ENDBRANCH  22  24
ENDBRANCH  21  22
ENDBRANCH  20  21
ENDBRANCH   1  20
TORSDOF 9
ENDMDL
MODEL 8
REMARK VINA RESULT:      -8.3      2.315      4.171
REMARK  Name = 
REMARK  11 active torsions:
REMARK  status: ('A' for Active; 'I' for Inactive)
REMARK    1  A    between atoms: C_1  and  O_2
REMARK    2  A    between atoms: O_2  and  C_3
REMARK    3  A    between atoms: C_5  and  N_6
REMARK    4  A    between atoms: N_6  and  C_7
REMARK    5  A    between atoms: C_7  and  C_8
REMARK    6  A    between atoms: C_7  and  C_9
REMARK    7  A    between atoms: C_9  and  C_10
REMARK    8  A    between atoms: C_10  and  C_11
REMARK    9  A    between atoms: C_11  and  N_12
REMARK   10  A    between atoms: C_15  and  C_16
REMARK   11  A    between atoms: C_16  and  C_17
REMARK                            x       y       z     vdW  Elec       q    Type
REMARK                         _______ _______ _______ _____ _____    ______ ____
ROOT
ATOM      1  C   UNL     1       3.096   6.125  20.009  0.00  0.00    +0.000 C 
ENDROOT
BRANCH   1   2
ATOM      2  N   UNL     1       2.944   5.056  19.022  0.00  0.00    +0.000 N 
ATOM      3  C   UNL     1       3.231   5.270  17.683  0.00  0.00    +0.000 C 
ATOM      4  O   UNL     1       3.460   6.335  17.132  0.00  0.00    +0.000 OA
ATOM      5  C   UNL     1       3.401   3.896  17.084  0.00  0.00    +0.000 C 
ATOM      6  N   UNL     1       2.599   3.039  17.971  0.00  0.00    +0.000 NA
ATOM      7  C   UNL     1       2.499   3.697  19.284  0.00  0.00    +0.000 C 
ATOM      8  C   UNL     1       1.028   3.576  19.718  0.00  0.00    +0.000 C 
ATOM      9  C   UNL     1       1.001   2.832  21.046  0.00  0.00    +0.000 C 
ATOM     10  C   UNL     1       2.429   2.762  21.551  0.00  0.00    +0.000 C 
ATOM     11  C   UNL     1       3.329   2.947  20.338  0.00  0.00    +0.000 C 
ATOM     12  H   UNL     1       3.002   2.108  18.032  0.00  0.00    +0.000 HD
BRANCH   5  13
ATOM     13  C   UNL     1       4.906   3.574  17.145  0.00  0.00    +0.000 C 
BRANCH  13  14
ATOM     14  C   UNL     1       5.701   4.012  15.938  0.00  0.00    +0.000 A 
ATOM     15  C   UNL     1       6.881   4.749  16.099  0.00  0.00    +0.000 A 
ATOM     16  C   UNL     1       7.634   5.128  14.988  0.00  0.00    +0.000 A 
ATOM     17  C   UNL     1       7.214   4.773  13.705  0.00  0.00    +0.000 A 
ATOM     18  C   UNL     1       6.036   4.042  13.538  0.00  0.00    +0.000 A 
ATOM     19  C   UNL     1       5.286   3.662  14.646  0.00  0.00    +0.000 A 
ENDBRANCH  13  14
ENDBRANCH   5  13
ENDBRANCH   1   2
BRANCH   1  20
ATOM     20  C   UNL     1       1.858   6.997  20.114  0.00  0.00    +0.000 C 
BRANCH  20  21
ATOM     21  C   UNL     1       2.041   8.433  19.603  0.00  0.00    +0.000 C 
BRANCH  21  22
ATOM     22  C   UNL     1       0.925   9.318  20.189  0.00  0.00    +0.000 C 
ATOM     23  C   UNL     1       0.140   8.629  21.299  0.00  0.00    +0.000 C 
BRANCH  22  24
ATOM     24  N   UNL     1       0.020   9.710  19.121  0.00  0.00    +0.000 N 
ATOM     25  H   UNL     1       0.065   9.235  18.219  0.00  0.00    +0.000 HD
BRANCH  24  28
ATOM     26  C   UNL     1      -2.257  12.323  20.464  0.00  0.00    +0.000 A 
ATOM     27  C   UNL     1      -1.182  11.451  20.339  0.00  0.00    +0.000 A 
ATOM     28  C   UNL     1      -1.057  10.594  19.235  0.00  0.00    +0.000 A 
ATOM     29  C   UNL     1      -2.004  10.657  18.189  0.00  0.00    +0.000 A 
ATOM     30  N   UNL     1      -1.859   9.890  17.078  0.00  0.00    +0.000 NA
ATOM     31  C   UNL     1      -2.787   9.994  16.098  0.00  0.00    +0.000 A 
ATOM     32  C   UNL     1      -3.897  10.812  16.171  0.00  0.00    +0.000 A 
ATOM     33  C   UNL     1      -4.059  11.584  17.306  0.00  0.00    +0.000 A 
ATOM     34  C   UNL     1      -3.109  11.533  18.337  0.00  0.00    +0.000 A 
ATOM     35  C   UNL     1      -3.236  12.335  19.478  0.00  0.00    +0.000 A 
BRANCH  26  37
ATOM     36  C   UNL     1      -2.767  12.520  22.765  0.00  0.00    +0.000 C 
ATOM     37  O   UNL     1      -2.463  13.160  21.527  0.00  0.00    +0.000 OA
ENDBRANCH  26  37
ENDBRANCH  24  28
ENDBRANCH  22  24
ENDBRANCH  21  22
ENDBRANCH  20  21
ENDBRANCH   1  20
TORSDOF 9
ENDMDL
MODEL 9
REMARK VINA RESULT:      -8.3      1.369      1.779
REMARK  Name = 
REMARK  11 active torsions:
REMARK  status: ('A' for Active; 'I' for Inactive)
REMARK    1  A    between atoms: C_1  and  O_2
REMARK    2  A    between atoms: O_2  and  C_3
REMARK    3  A    between atoms: C_5  and  N_6
REMARK    4  A    between atoms: N_6  and  C_7
REMARK    5  A    between atoms: C_7  and  C_8
REMARK    6  A    between atoms: C_7  and  C_9
REMARK    7  A    between atoms: C_9  and  C_10
REMARK    8  A    between atoms: C_10  and  C_11
REMARK    9  A    between atoms: C_11  and  N_12
REMARK   10  A    between atoms: C_15  and  C_16
REMARK   11  A    between atoms: C_16  and  C_17
REMARK                            x       y       z     vdW  Elec       q    Type
REMARK                         _______ _______ _______ _____ _____    ______ ____
ROOT
ATOM      1  C   UNL     1       4.486   5.939  19.239  0.00  0.00    +0.000 C 
ENDROOT
BRANCH   1   2
ATOM      2  N   UNL     1       5.347   5.160  18.351  0.00  0.00    +0.000 N 
ATOM      3  C   UNL     1       4.954   3.916  17.880  0.00  0.00    +0.000 C 
ATOM      4  O   UNL     1       3.995   3.252  18.243  0.00  0.00    +0.000 OA
ATOM      5  C   UNL     1       5.836   3.641  16.688  0.00  0.00    +0.000 C 
ATOM      6  N   UNL     1       7.037   4.445  16.963  0.00  0.00    +0.000 NA
ATOM      7  C   UNL     1       6.659   5.549  17.860  0.00  0.00    +0.000 C 
ATOM      8  C   UNL     1       7.752   5.623  18.940  0.00  0.00    +0.000 C 
ATOM      9  C   UNL     1       8.361   7.017  18.882  0.00  0.00    +0.000 C 
ATOM     10  C   UNL     1       7.467   7.862  17.995  0.00  0.00    +0.000 C 
ATOM     11  C   UNL     1       6.687   6.894  17.116  0.00  0.00    +0.000 C 
ATOM     12  H   UNL     1       7.455   4.774  16.097  0.00  0.00    +0.000 HD
BRANCH   5  13
ATOM     13  C   UNL     1       5.063   4.128  15.449  0.00  0.00    +0.000 C 
BRANCH  13  14
ATOM     14  C   UNL     1       5.857   4.136  14.164  0.00  0.00    +0.000 A 
ATOM     15  C   UNL     1       5.480   3.313  13.096  0.00  0.00    +0.000 A 
ATOM     16  C   UNL     1       6.192   3.340  11.897  0.00  0.00    +0.000 A 
ATOM     17  C   UNL     1       7.289   4.193  11.755  0.00  0.00    +0.000 A 
ATOM     18  C   UNL     1       7.672   5.012  12.818  0.00  0.00    +0.000 A 
ATOM     19  C   UNL     1       6.960   4.987  14.013  0.00  0.00    +0.000 A 
ENDBRANCH  13  14
ENDBRANCH   5  13
ENDBRANCH   1   2
BRANCH   1  20
ATOM     20  C   UNL     1       3.194   6.366  18.569  0.00  0.00    +0.000 C 
BRANCH  20  21
ATOM     21  C   UNL     1       2.296   7.271  19.425  0.00  0.00    +0.000 C 
BRANCH  21  22
ATOM     22  C   UNL     1       1.679   8.358  18.525  0.00  0.00    +0.000 C 
ATOM     23  C   UNL     1       2.679   8.957  17.544  0.00  0.00    +0.000 C 
BRANCH  22  24
ATOM     24  N   UNL     1       1.126   9.410  19.363  0.00  0.00    +0.000 N 
ATOM     25  H   UNL     1       1.528   9.588  20.284  0.00  0.00    +0.000 HD
BRANCH  24  28
ATOM     26  C   UNL     1      -2.080  10.891  18.205  0.00  0.00    +0.000 A 
ATOM     27  C   UNL     1      -1.126   9.961  18.600  0.00  0.00    +0.000 A 
ATOM     28  C   UNL     1       0.167  10.352  18.980  0.00  0.00    +0.000 A 
ATOM     29  C   UNL     1       0.497  11.724  19.029  0.00  0.00    +0.000 A 
ATOM     30  N   UNL     1       1.718  12.126  19.467  0.00  0.00    +0.000 NA
ATOM     31  C   UNL     1       1.984  13.453  19.506  0.00  0.00    +0.000 A 
ATOM     32  C   UNL     1       1.097  14.428  19.096  0.00  0.00    +0.000 A 
ATOM     33  C   UNL     1      -0.143  14.026  18.636  0.00  0.00    +0.000 A 
ATOM     34  C   UNL     1      -0.475  12.664  18.603  0.00  0.00    +0.000 A 
ATOM     35  C   UNL     1      -1.739  12.238  18.174  0.00  0.00    +0.000 A 
BRANCH  26  37
ATOM     36  C   UNL     1      -3.713  11.087  16.506  0.00  0.00    +0.000 C 
ATOM     37  O   UNL     1      -3.346  10.582  17.788  0.00  0.00    +0.000 OA
ENDBRANCH  26  37
ENDBRANCH  24  28
ENDBRANCH  22  24
ENDBRANCH  21  22
ENDBRANCH  20  21
ENDBRANCH   1  20
TORSDOF 9
ENDMDL
