MODEL 1
REMARK VINA RESULT:      -7.4      0.000      0.000
REMARK  Name = 
REMARK  12 active torsions:
REMARK  status: ('A' for Active; 'I' for Inactive)
REMARK    1  A    between atoms: C_1  and  C_2
REMARK    2  A    between atoms: C_2  and  C_3
REMARK    3  A    between atoms: C_3  and  C_4
REMARK    4  A    between atoms: C_4  and  C_5
REMARK    5  A    between atoms: C_13  and  C_14
REMARK    6  A    between atoms: C_14  and  O_16
REMARK    7  A    between atoms: O_16  and  C_17
REMARK    8  A    between atoms: N_22  and  C_23
REMARK    9  A    between atoms: C_23  and  C_24
REMARK   10  A    between atoms: C_24  and  C_25
REMARK   11  A    between atoms: C_25  and  C_26
REMARK   12  A    between atoms: C_26  and  O_27
REMARK                            x       y       z     vdW  Elec       q    Type
REMARK                         _______ _______ _______ _____ _____    ______ ____
ROOT
ATOM      1  C   UNL     1       1.546   7.000  20.471  0.00  0.00    +0.000 A 
ATOM      2  N   UNL     1       1.798   5.739  20.736  0.00  0.00    +0.000 NA
ATOM      3  C   UNL     1       2.703   5.320  19.797  0.00  0.00    +0.000 A 
ATOM      4  C   UNL     1       3.279   4.040  19.675  0.00  0.00    +0.000 A 
ATOM      5  N   UNL     1       3.021   3.014  20.577  0.00  0.00    +0.000 N 
ATOM      6  N   UNL     1       4.100   3.777  18.642  0.00  0.00    +0.000 NA
ATOM      7  C   UNL     1       4.409   4.732  17.761  0.00  0.00    +0.000 A 
ATOM      8  C   UNL     1       5.275   4.363  16.745  0.00  0.00    +0.000 A 
ATOM      9  C   UNL     1       5.702   5.263  15.763  0.00  0.00    +0.000 A 
ATOM     10  C   UNL     1       5.238   6.576  15.800  0.00  0.00    +0.000 A 
ATOM     11  C   UNL     1       4.361   6.977  16.811  0.00  0.00    +0.000 A 
ATOM     12  C   UNL     1       3.925   6.071  17.808  0.00  0.00    +0.000 A 
ATOM     13  C   UNL     1       3.023   6.342  18.896  0.00  0.00    +0.000 A 
ATOM     14  N   UNL     1       2.293   7.432  19.379  0.00  0.00    +0.000 N 
ATOM     15  H   UNL     1       2.167   3.165  21.103  0.00  0.00    +0.000 HD
ATOM     16  H   UNL     1       3.175   2.104  20.166  0.00  0.00    +0.000 HD
ENDROOT
BRANCH   9  17
ATOM     17  C   UNL     1       6.646   4.775  14.723  0.00  0.00    +0.000 C 
ATOM     18  O   UNL     1       7.672   5.361  14.415  0.00  0.00    +0.000 OA
BRANCH  17  19
ATOM     19  O   UNL     1       6.204   3.615  14.176  0.00  0.00    +0.000 OA
ATOM     20  C   UNL     1       6.169   3.631  12.747  0.00  0.00    +0.000 C 
ENDBRANCH  17  19
ENDBRANCH   9  17
BRANCH   1  21
ATOM     21  C   UNL     1       0.628   7.816  21.334  0.00  0.00    +0.000 C 
BRANCH  21  22
ATOM     22  C   UNL     1       1.286   9.013  22.017  0.00  0.00    +0.000 C 
BRANCH  22  24
ATOM     23  C   UNL     1      -0.668  10.159  23.119  0.00  0.00    +0.000 C 
ATOM     24  C   UNL     1       0.361  10.231  22.002  0.00  0.00    +0.000 C 
ENDBRANCH  22  24
ENDBRANCH  21  22
ENDBRANCH   1  21
BRANCH  14  25
ATOM     25  C   UNL     1       2.213   8.755  18.797  0.00  0.00    +0.000 C 
BRANCH  25  26
ATOM     26  C   UNL     1       0.995   9.076  17.929  0.00  0.00    +0.000 C 
BRANCH  26  27
ATOM     27  C   UNL     1       0.314  10.409  18.257  0.00  0.00    +0.000 C 
BRANCH  27  28
ATOM     28  C   UNL     1      -1.199  10.304  18.074  0.00  0.00    +0.000 C 
BRANCH  28  29
ATOM     29  O   UNL     1      -1.580  10.801  16.798  0.00  0.00    +0.000 OA
ATOM     30  H   UNL     1      -1.584  10.051  16.180  0.00  0.00    +0.000 HD
ENDBRANCH  28  29
ENDBRANCH  27  28
ENDBRANCH  26  27
ENDBRANCH  25  26
ENDBRANCH  14  25
TORSDOF 10
ENDMDL
MODEL 2
REMARK VINA RESULT:      -7.0      1.031      1.151
REMARK  Name = 
REMARK  12 active torsions:
REMARK  status: ('A' for Active; 'I' for Inactive)
REMARK    1  A    between atoms: C_1  and  C_2
REMARK    2  A    between atoms: C_2  and  C_3
REMARK    3  A    between atoms: C_3  and  C_4
REMARK    4  A    between atoms: C_4  and  C_5
REMARK    5  A    between atoms: C_13  and  C_14
REMARK    6  A    between atoms: C_14  and  O_16
REMARK    7  A    between atoms: O_16  and  C_17
REMARK    8  A    between atoms: N_22  and  C_23
REMARK    9  A    between atoms: C_23  and  C_24
REMARK   10  A    between atoms: C_24  and  C_25
REMARK   11  A    between atoms: C_25  and  C_26
REMARK   12  A    between atoms: C_26  and  O_27
REMARK                            x       y       z     vdW  Elec       q    Type
REMARK                         _______ _______ _______ _____ _____    ______ ____
ROOT
ATOM      1  C   UNL     1       1.260   7.485  20.514  0.00  0.00    +0.000 A 
ATOM      2  N   UNL     1       1.448   6.256  20.937  0.00  0.00    +0.000 NA
ATOM      3  C   UNL     1       2.392   5.704  20.112  0.00  0.00    +0.000 A 
ATOM      4  C   UNL     1       2.926   4.401  20.174  0.00  0.00    +0.000 A 
ATOM      5  N   UNL     1       2.574   3.495  21.169  0.00  0.00    +0.000 N 
ATOM      6  N   UNL     1       3.797   3.995  19.233  0.00  0.00    +0.000 NA
ATOM      7  C   UNL     1       4.195   4.832  18.271  0.00  0.00    +0.000 A 
ATOM      8  C   UNL     1       5.106   4.320  17.362  0.00  0.00    +0.000 A 
ATOM      9  C   UNL     1       5.626   5.087  16.313  0.00  0.00    +0.000 A 
ATOM     10  C   UNL     1       5.211   6.409  16.171  0.00  0.00    +0.000 A 
ATOM     11  C   UNL     1       4.289   6.952  17.070  0.00  0.00    +0.000 A 
ATOM     12  C   UNL     1       3.760   6.181  18.134  0.00  0.00    +0.000 A 
ATOM     13  C   UNL     1       2.805   6.604  19.123  0.00  0.00    +0.000 A 
ATOM     14  N   UNL     1       2.088   7.765  19.431  0.00  0.00    +0.000 N 
ATOM     15  H   UNL     1       1.697   3.732  21.618  0.00  0.00    +0.000 HD
ATOM     16  H   UNL     1       2.718   2.540  20.875  0.00  0.00    +0.000 HD
ENDROOT
BRANCH   9  17
ATOM     17  C   UNL     1       6.612   4.453  15.398  0.00  0.00    +0.000 C 
ATOM     18  O   UNL     1       7.808   4.699  15.420  0.00  0.00    +0.000 OA
BRANCH  17  19
ATOM     19  O   UNL     1       5.999   3.587  14.554  0.00  0.00    +0.000 OA
ATOM     20  C   UNL     1       6.306   3.815  13.176  0.00  0.00    +0.000 C 
ENDBRANCH  17  19
ENDBRANCH   9  17
BRANCH   1  21
ATOM     21  C   UNL     1       0.324   8.424  21.218  0.00  0.00    +0.000 C 
BRANCH  21  22
ATOM     22  C   UNL     1       0.907   9.106  22.452  0.00  0.00    +0.000 C 
BRANCH  22  24
ATOM     23  C   UNL     1      -0.777  10.965  22.680  0.00  0.00    +0.000 C 
ATOM     24  C   UNL     1      -0.198   9.713  23.318  0.00  0.00    +0.000 C 
ENDBRANCH  22  24
ENDBRANCH  21  22
ENDBRANCH   1  21
BRANCH  14  25
ATOM     25  C   UNL     1       2.093   9.012  18.698  0.00  0.00    +0.000 C 
BRANCH  25  26
ATOM     26  C   UNL     1       0.825   9.393  17.933  0.00  0.00    +0.000 C 
BRANCH  26  27
ATOM     27  C   UNL     1       0.158  10.686  18.410  0.00  0.00    +0.000 C 
BRANCH  27  28
ATOM     28  C   UNL     1       1.115  11.502  19.277  0.00  0.00    +0.000 C 
BRANCH  28  29
ATOM     29  O   UNL     1       1.379  12.762  18.673  0.00  0.00    +0.000 OA
ATOM     30  H   UNL     1       1.328  13.438  19.370  0.00  0.00    +0.000 HD
ENDBRANCH  28  29
ENDBRANCH  27  28
ENDBRANCH  26  27
ENDBRANCH  25  26
ENDBRANCH  14  25
TORSDOF 10
ENDMDL
MODEL 3
REMARK VINA RESULT:      -7.0      1.040      1.101
REMARK  Name = 
REMARK  12 active torsions:
REMARK  status: ('A' for Active; 'I' for Inactive)
REMARK    1  A    between atoms: C_1  and  C_2
REMARK    2  A    between atoms: C_2  and  C_3
REMARK    3  A    between atoms: C_3  and  C_4
REMARK    4  A    between atoms: C_4  and  C_5
REMARK    5  A    between atoms: C_13  and  C_14
REMARK    6  A    between atoms: C_14  and  O_16
REMARK    7  A    between atoms: O_16  and  C_17
REMARK    8  A    between atoms: N_22  and  C_23
REMARK    9  A    between atoms: C_23  and  C_24
REMARK   10  A    between atoms: C_24  and  C_25
REMARK   11  A    between atoms: C_25  and  C_26
REMARK   12  A    between atoms: C_26  and  O_27
REMARK                            x       y       z     vdW  Elec       q    Type
REMARK                         _______ _______ _______ _____ _____    ______ ____
ROOT
ATOM      1  C   UNL     1       1.701   6.472  20.274  0.00  0.00    +0.000 A 
ATOM      2  N   UNL     1       1.859   5.170  20.341  0.00  0.00    +0.000 NA
ATOM      3  C   UNL     1       2.731   4.834  19.340  0.00  0.00    +0.000 A 
ATOM      4  C   UNL     1       3.212   3.550  19.019  0.00  0.00    +0.000 A 
ATOM      5  N   UNL     1       2.877   2.419  19.757  0.00  0.00    +0.000 N 
ATOM      6  N   UNL     1       4.011   3.388  17.950  0.00  0.00    +0.000 NA
ATOM      7  C   UNL     1       4.391   4.441  17.221  0.00  0.00    +0.000 A 
ATOM      8  C   UNL     1       5.228   4.168  16.151  0.00  0.00    +0.000 A 
ATOM      9  C   UNL     1       5.721   5.174  15.313  0.00  0.00    +0.000 A 
ATOM     10  C   UNL     1       5.356   6.496  15.555  0.00  0.00    +0.000 A 
ATOM     11  C   UNL     1       4.509   6.802  16.623  0.00  0.00    +0.000 A 
ATOM     12  C   UNL     1       4.007   5.788  17.476  0.00  0.00    +0.000 A 
ATOM     13  C   UNL     1       3.127   5.956  18.602  0.00  0.00    +0.000 A 
ATOM     14  N   UNL     1       2.478   7.010  19.253  0.00  0.00    +0.000 N 
ATOM     15  H   UNL     1       2.037   2.551  20.309  0.00  0.00    +0.000 HD
ATOM     16  H   UNL     1       2.964   1.574  19.211  0.00  0.00    +0.000 HD
ENDROOT
BRANCH   9  17
ATOM     17  C   UNL     1       6.627   4.782  14.201  0.00  0.00    +0.000 C 
ATOM     18  O   UNL     1       7.679   5.352  13.956  0.00  0.00    +0.000 OA
BRANCH  17  19
ATOM     19  O   UNL     1       6.121   3.729  13.514  0.00  0.00    +0.000 OA
ATOM     20  C   UNL     1       6.747   3.516  12.247  0.00  0.00    +0.000 C 
ENDBRANCH  17  19
ENDBRANCH   9  17
BRANCH   1  21
ATOM     21  C   UNL     1       0.845   7.212  21.260  0.00  0.00    +0.000 C 
BRANCH  21  22
ATOM     22  C   UNL     1       1.313   8.630  21.578  0.00  0.00    +0.000 C 
BRANCH  22  24
ATOM     23  C   UNL     1      -0.215   9.723  23.257  0.00  0.00    +0.000 C 
ATOM     24  C   UNL     1       0.123   9.568  21.782  0.00  0.00    +0.000 C 
ENDBRANCH  22  24
ENDBRANCH  21  22
ENDBRANCH   1  21
BRANCH  14  25
ATOM     25  C   UNL     1       2.497   8.408  18.879  0.00  0.00    +0.000 C 
BRANCH  25  26
ATOM     26  C   UNL     1       1.605   8.844  17.716  0.00  0.00    +0.000 C 
BRANCH  26  27
ATOM     27  C   UNL     1       0.544   9.886  18.083  0.00  0.00    +0.000 C 
BRANCH  27  28
ATOM     28  C   UNL     1       1.198  11.176  18.574  0.00  0.00    +0.000 C 
BRANCH  28  29
ATOM     29  O   UNL     1       2.271  11.545  17.718  0.00  0.00    +0.000 OA
ATOM     30  H   UNL     1       2.776  10.739  17.517  0.00  0.00    +0.000 HD
ENDBRANCH  28  29
ENDBRANCH  27  28
ENDBRANCH  26  27
ENDBRANCH  25  26
ENDBRANCH  14  25
TORSDOF 10
ENDMDL
MODEL 4
REMARK VINA RESULT:      -7.0      0.971      1.056
REMARK  Name = 
REMARK  12 active torsions:
REMARK  status: ('A' for Active; 'I' for Inactive)
REMARK    1  A    between atoms: C_1  and  C_2
REMARK    2  A    between atoms: C_2  and  C_3
REMARK    3  A    between atoms: C_3  and  C_4
REMARK    4  A    between atoms: C_4  and  C_5
REMARK    5  A    between atoms: C_13  and  C_14
REMARK    6  A    between atoms: C_14  and  O_16
REMARK    7  A    between atoms: O_16  and  C_17
REMARK    8  A    between atoms: N_22  and  C_23
REMARK    9  A    between atoms: C_23  and  C_24
REMARK   10  A    between atoms: C_24  and  C_25
REMARK   11  A    between atoms: C_25  and  C_26
REMARK   12  A    between atoms: C_26  and  O_27
REMARK                            x       y       z     vdW  Elec       q    Type
REMARK                         _______ _______ _______ _____ _____    ______ ____
ROOT
ATOM      1  C   UNL     1       1.038   7.787  20.620  0.00  0.00    +0.000 A 
ATOM      2  N   UNL     1       1.180   6.583  21.123  0.00  0.00    +0.000 NA
ATOM      3  C   UNL     1       2.154   5.967  20.382  0.00  0.00    +0.000 A 
ATOM      4  C   UNL     1       2.658   4.662  20.547  0.00  0.00    +0.000 A 
ATOM      5  N   UNL     1       2.239   3.822  21.573  0.00  0.00    +0.000 N 
ATOM      6  N   UNL     1       3.568   4.187  19.678  0.00  0.00    +0.000 NA
ATOM      7  C   UNL     1       4.031   4.958  18.691  0.00  0.00    +0.000 A 
ATOM      8  C   UNL     1       4.977   4.379  17.861  0.00  0.00    +0.000 A 
ATOM      9  C   UNL     1       5.564   5.074  16.798  0.00  0.00    +0.000 A 
ATOM     10  C   UNL     1       5.183   6.391  16.558  0.00  0.00    +0.000 A 
ATOM     11  C   UNL     1       4.227   7.002  17.375  0.00  0.00    +0.000 A 
ATOM     12  C   UNL     1       3.630   6.304  18.453  0.00  0.00    +0.000 A 
ATOM     13  C   UNL     1       2.633   6.801  19.365  0.00  0.00    +0.000 A 
ATOM     14  N   UNL     1       1.925   7.989  19.567  0.00  0.00    +0.000 N 
ATOM     15  H   UNL     1       1.344   4.100  21.961  0.00  0.00    +0.000 HD
ATOM     16  H   UNL     1       2.379   2.849  21.343  0.00  0.00    +0.000 HD
ENDROOT
BRANCH   9  17
ATOM     17  C   UNL     1       6.583   4.371  15.975  0.00  0.00    +0.000 C 
ATOM     18  O   UNL     1       7.785   4.559  16.083  0.00  0.00    +0.000 OA
BRANCH  17  19
ATOM     19  O   UNL     1       5.993   3.516  15.103  0.00  0.00    +0.000 OA
ATOM     20  C   UNL     1       6.111   3.917  13.736  0.00  0.00    +0.000 C 
ENDBRANCH  17  19
ENDBRANCH   9  17
BRANCH   1  21
ATOM     21  C   UNL     1       0.085   8.781  21.218  0.00  0.00    +0.000 C 
BRANCH  21  22
ATOM     22  C   UNL     1       0.296   9.058  22.704  0.00  0.00    +0.000 C 
BRANCH  22  24
ATOM     23  C   UNL     1      -0.914  11.173  22.065  0.00  0.00    +0.000 C 
ATOM     24  C   UNL     1      -0.610  10.192  23.186  0.00  0.00    +0.000 C 
ENDBRANCH  22  24
ENDBRANCH  21  22
ENDBRANCH   1  21
BRANCH  14  25
ATOM     25  C   UNL     1       1.992   9.191  18.764  0.00  0.00    +0.000 C 
BRANCH  25  26
ATOM     26  C   UNL     1       0.800   9.508  17.859  0.00  0.00    +0.000 C 
BRANCH  26  27
ATOM     27  C   UNL     1      -0.133  10.598  18.395  0.00  0.00    +0.000 C 
BRANCH  27  28
ATOM     28  C   UNL     1      -1.583  10.309  18.007  0.00  0.00    +0.000 C 
BRANCH  28  29
ATOM     29  O   UNL     1      -1.752  10.422  16.600  0.00  0.00    +0.000 OA
ATOM     30  H   UNL     1      -1.309   9.661  16.189  0.00  0.00    +0.000 HD
ENDBRANCH  28  29
ENDBRANCH  27  28
ENDBRANCH  26  27
ENDBRANCH  25  26
ENDBRANCH  14  25
TORSDOF 10
ENDMDL
MODEL 5
REMARK VINA RESULT:      -6.9      2.558      4.114
REMARK  Name = 
REMARK  12 active torsions:
REMARK  status: ('A' for Active; 'I' for Inactive)
REMARK    1  A    between atoms: C_1  and  C_2
REMARK    2  A    between atoms: C_2  and  C_3
REMARK    3  A    between atoms: C_3  and  C_4
REMARK    4  A    between atoms: C_4  and  C_5
REMARK    5  A    between atoms: C_13  and  C_14
REMARK    6  A    between atoms: C_14  and  O_16
REMARK    7  A    between atoms: O_16  and  C_17
REMARK    8  A    between atoms: N_22  and  C_23
REMARK    9  A    between atoms: C_23  and  C_24
REMARK   10  A    between atoms: C_24  and  C_25
REMARK   11  A    between atoms: C_25  and  C_26
REMARK   12  A    between atoms: C_26  and  O_27
REMARK                            x       y       z     vdW  Elec       q    Type
REMARK                         _______ _______ _______ _____ _____    ______ ____
ROOT
ATOM      1  C   UNL     1       1.179   7.609  20.744  0.00  0.00    +0.000 A 
ATOM      2  N   UNL     1       1.364   8.617  19.923  0.00  0.00    +0.000 NA
ATOM      3  C   UNL     1       2.190   8.161  18.930  0.00  0.00    +0.000 A 
ATOM      4  C   UNL     1       2.667   8.879  17.816  0.00  0.00    +0.000 A 
ATOM      5  N   UNL     1       2.289  10.191  17.554  0.00  0.00    +0.000 N 
ATOM      6  N   UNL     1       3.536   8.295  16.971  0.00  0.00    +0.000 NA
ATOM      7  C   UNL     1       3.910   7.026  17.154  0.00  0.00    +0.000 A 
ATOM      8  C   UNL     1       4.796   6.514  16.219  0.00  0.00    +0.000 A 
ATOM      9  C   UNL     1       5.259   5.196  16.273  0.00  0.00    +0.000 A 
ATOM     10  C   UNL     1       4.824   4.367  17.304  0.00  0.00    +0.000 A 
ATOM     11  C   UNL     1       3.935   4.855  18.265  0.00  0.00    +0.000 A 
ATOM     12  C   UNL     1       3.461   6.189  18.215  0.00  0.00    +0.000 A 
ATOM     13  C   UNL     1       2.556   6.825  19.135  0.00  0.00    +0.000 A 
ATOM     14  N   UNL     1       1.855   6.478  20.294  0.00  0.00    +0.000 N 
ATOM     15  H   UNL     1       1.927  10.662  18.376  0.00  0.00    +0.000 HD
ATOM     16  H   UNL     1       2.972  10.674  16.988  0.00  0.00    +0.000 HD
ENDROOT
BRANCH   9  17
ATOM     17  C   UNL     1       6.195   4.735  15.213  0.00  0.00    +0.000 C 
ATOM     18  O   UNL     1       7.410   4.810  15.307  0.00  0.00    +0.000 OA
BRANCH  17  19
ATOM     19  O   UNL     1       5.514   4.236  14.152  0.00  0.00    +0.000 OA
ATOM     20  C   UNL     1       6.358   3.754  13.104  0.00  0.00    +0.000 C 
ENDBRANCH  17  19
ENDBRANCH   9  17
BRANCH   1  21
ATOM     21  C   UNL     1       0.275   7.722  21.937  0.00  0.00    +0.000 C 
BRANCH  21  22
ATOM     22  C   UNL     1      -0.651   8.936  21.927  0.00  0.00    +0.000 C 
BRANCH  22  24
ATOM     23  C   UNL     1      -1.185  11.121  23.059  0.00  0.00    +0.000 C 
ATOM     24  C   UNL     1      -0.427   9.808  23.163  0.00  0.00    +0.000 C 
ENDBRANCH  22  24
ENDBRANCH  21  22
ENDBRANCH   1  21
BRANCH  14  25
ATOM     25  C   UNL     1       1.899   5.212  20.994  0.00  0.00    +0.000 C 
BRANCH  25  26
ATOM     26  C   UNL     1       0.966   4.100  20.512  0.00  0.00    +0.000 C 
BRANCH  26  27
ATOM     27  C   UNL     1       1.662   2.770  20.211  0.00  0.00    +0.000 C 
BRANCH  27  28
ATOM     28  C   UNL     1       1.282   2.260  18.822  0.00  0.00    +0.000 C 
BRANCH  28  29
ATOM     29  O   UNL     1       2.369   1.553  18.238  0.00  0.00    +0.000 OA
ATOM     30  H   UNL     1       2.836   1.090  18.954  0.00  0.00    +0.000 HD
ENDBRANCH  28  29
ENDBRANCH  27  28
ENDBRANCH  26  27
ENDBRANCH  25  26
ENDBRANCH  14  25
TORSDOF 10
ENDMDL
MODEL 6
REMARK VINA RESULT:      -6.8      2.192      7.782
REMARK  Name = 
REMARK  12 active torsions:
REMARK  status: ('A' for Active; 'I' for Inactive)
REMARK    1  A    between atoms: C_1  and  C_2
REMARK    2  A    between atoms: C_2  and  C_3
REMARK    3  A    between atoms: C_3  and  C_4
REMARK    4  A    between atoms: C_4  and  C_5
REMARK    5  A    between atoms: C_13  and  C_14
REMARK    6  A    between atoms: C_14  and  O_16
REMARK    7  A    between atoms: O_16  and  C_17
REMARK    8  A    between atoms: N_22  and  C_23
REMARK    9  A    between atoms: C_23  and  C_24
REMARK   10  A    between atoms: C_24  and  C_25
REMARK   11  A    between atoms: C_25  and  C_26
REMARK   12  A    between atoms: C_26  and  O_27
REMARK                            x       y       z     vdW  Elec       q    Type
REMARK                         _______ _______ _______ _____ _____    ______ ____
ROOT
ATOM      1  C   UNL     1       4.895   4.041  16.768  0.00  0.00    +0.000 A 
ATOM      2  N   UNL     1       4.280   3.241  17.607  0.00  0.00    +0.000 NA
ATOM      3  C   UNL     1       3.466   4.033  18.372  0.00  0.00    +0.000 A 
ATOM      4  C   UNL     1       2.603   3.626  19.408  0.00  0.00    +0.000 A 
ATOM      5  N   UNL     1       2.428   2.291  19.756  0.00  0.00    +0.000 N 
ATOM      6  N   UNL     1       1.926   4.552  20.112  0.00  0.00    +0.000 NA
ATOM      7  C   UNL     1       2.030   5.847  19.803  0.00  0.00    +0.000 A 
ATOM      8  C   UNL     1       1.280   6.717  20.578  0.00  0.00    +0.000 A 
ATOM      9  C   UNL     1       1.274   8.098  20.358  0.00  0.00    +0.000 A 
ATOM     10  C   UNL     1       2.053   8.623  19.330  0.00  0.00    +0.000 A 
ATOM     11  C   UNL     1       2.824   7.772  18.534  0.00  0.00    +0.000 A 
ATOM     12  C   UNL     1       2.833   6.372  18.752  0.00  0.00    +0.000 A 
ATOM     13  C   UNL     1       3.581   5.383  18.020  0.00  0.00    +0.000 A 
ATOM     14  N   UNL     1       4.481   5.357  16.950  0.00  0.00    +0.000 N 
ATOM     15  H   UNL     1       3.192   1.704  19.437  0.00  0.00    +0.000 HD
ATOM     16  H   UNL     1       2.112   2.189  20.709  0.00  0.00    +0.000 HD
ENDROOT
BRANCH   9  17
ATOM     17  C   UNL     1       0.423   8.947  21.232  0.00  0.00    +0.000 C 
ATOM     18  O   UNL     1      -0.548   9.570  20.830  0.00  0.00    +0.000 OA
BRANCH  17  19
ATOM     19  O   UNL     1       0.877   8.932  22.510  0.00  0.00    +0.000 OA
ATOM     20  C   UNL     1      -0.005   9.565  23.440  0.00  0.00    +0.000 C 
ENDBRANCH  17  19
ENDBRANCH   9  17
BRANCH   1  21
ATOM     21  C   UNL     1       5.837   3.514  15.726  0.00  0.00    +0.000 C 
BRANCH  21  22
ATOM     22  C   UNL     1       5.441   3.828  14.285  0.00  0.00    +0.000 C 
BRANCH  22  24
ATOM     23  C   UNL     1       6.643   3.552  12.089  0.00  0.00    +0.000 C 
ATOM     24  C   UNL     1       6.662   4.222  13.453  0.00  0.00    +0.000 C 
ENDBRANCH  22  24
ENDBRANCH  21  22
ENDBRANCH   1  21
BRANCH  14  25
ATOM     25  C   UNL     1       5.001   6.494  16.222  0.00  0.00    +0.000 C 
BRANCH  25  26
ATOM     26  C   UNL     1       6.109   7.316  16.884  0.00  0.00    +0.000 C 
BRANCH  26  27
ATOM     27  C   UNL     1       7.411   6.547  17.128  0.00  0.00    +0.000 C 
BRANCH  27  28
ATOM     28  C   UNL     1       7.620   6.297  18.621  0.00  0.00    +0.000 C 
BRANCH  28  29
ATOM     29  O   UNL     1       7.381   4.930  18.933  0.00  0.00    +0.000 OA
ATOM     30  H   UNL     1       7.015   4.894  19.832  0.00  0.00    +0.000 HD
ENDBRANCH  28  29
ENDBRANCH  27  28
ENDBRANCH  26  27
ENDBRANCH  25  26
ENDBRANCH  14  25
TORSDOF 10
ENDMDL
MODEL 7
REMARK VINA RESULT:      -6.7      3.184      5.372
REMARK  Name = 
REMARK  12 active torsions:
REMARK  status: ('A' for Active; 'I' for Inactive)
REMARK    1  A    between atoms: C_1  and  C_2
REMARK    2  A    between atoms: C_2  and  C_3
REMARK    3  A    between atoms: C_3  and  C_4
REMARK    4  A    between atoms: C_4  and  C_5
REMARK    5  A    between atoms: C_13  and  C_14
REMARK    6  A    between atoms: C_14  and  O_16
REMARK    7  A    between atoms: O_16  and  C_17
REMARK    8  A    between atoms: N_22  and  C_23
REMARK    9  A    between atoms: C_23  and  C_24
REMARK   10  A    between atoms: C_24  and  C_25
REMARK   11  A    between atoms: C_25  and  C_26
REMARK   12  A    between atoms: C_26  and  O_27
REMARK                            x       y       z     vdW  Elec       q    Type
REMARK                         _______ _______ _______ _____ _____    ______ ____
ROOT
ATOM      1  C   UNL     1      -1.620  12.094  20.932  0.00  0.00    +0.000 A 
ATOM      2  N   UNL     1      -1.297  11.390  21.992  0.00  0.00    +0.000 NA
ATOM      3  C   UNL     1      -0.401  10.443  21.570  0.00  0.00    +0.000 A 
ATOM      4  C   UNL     1       0.234   9.457  22.351  0.00  0.00    +0.000 A 
ATOM      5  N   UNL     1       0.055   9.362  23.727  0.00  0.00    +0.000 N 
ATOM      6  N   UNL     1       1.034   8.554  21.757  0.00  0.00    +0.000 NA
ATOM      7  C   UNL     1       1.269   8.614  20.444  0.00  0.00    +0.000 A 
ATOM      8  C   UNL     1       2.120   7.647  19.934  0.00  0.00    +0.000 A 
ATOM      9  C   UNL     1       2.471   7.599  18.581  0.00  0.00    +0.000 A 
ATOM     10  C   UNL     1       1.944   8.550  17.711  0.00  0.00    +0.000 A 
ATOM     11  C   UNL     1       1.079   9.535  18.194  0.00  0.00    +0.000 A 
ATOM     12  C   UNL     1       0.720   9.590  19.563  0.00  0.00    +0.000 A 
ATOM     13  C   UNL     1      -0.160  10.537  20.195  0.00  0.00    +0.000 A 
ATOM     14  N   UNL     1      -0.929  11.641  19.812  0.00  0.00    +0.000 N 
ATOM     15  H   UNL     1      -0.789   9.828  24.041  0.00  0.00    +0.000 HD
ATOM     16  H   UNL     1       0.241   8.429  24.066  0.00  0.00    +0.000 HD
ENDROOT
BRANCH   9  17
ATOM     17  C   UNL     1       3.405   6.533  18.134  0.00  0.00    +0.000 C 
ATOM     18  O   UNL     1       3.479   5.435  18.664  0.00  0.00    +0.000 OA
BRANCH  17  19
ATOM     19  O   UNL     1       4.148   6.953  17.080  0.00  0.00    +0.000 OA
ATOM     20  C   UNL     1       5.544   6.680  17.217  0.00  0.00    +0.000 C 
ENDBRANCH  17  19
ENDBRANCH   9  17
BRANCH   1  21
ATOM     21  C   UNL     1      -2.550  13.268  21.022  0.00  0.00    +0.000 C 
BRANCH  21  22
ATOM     22  C   UNL     1      -2.942  13.669  22.442  0.00  0.00    +0.000 C 
BRANCH  22  24
ATOM     23  C   UNL     1      -4.224  12.559  24.304  0.00  0.00    +0.000 C 
ATOM     24  C   UNL     1      -4.260  13.012  22.854  0.00  0.00    +0.000 C 
ENDBRANCH  22  24
ENDBRANCH  21  22
ENDBRANCH   1  21
BRANCH  14  25
ATOM     25  C   UNL     1      -1.093  12.167  18.474  0.00  0.00    +0.000 C 
BRANCH  25  26
ATOM     26  C   UNL     1      -2.349  11.763  17.700  0.00  0.00    +0.000 C 
BRANCH  26  27
ATOM     27  C   UNL     1      -2.349  10.315  17.198  0.00  0.00    +0.000 C 
BRANCH  27  28
ATOM     28  C   UNL     1      -2.639  10.262  15.699  0.00  0.00    +0.000 C 
BRANCH  28  29
ATOM     29  O   UNL     1      -3.267  11.463  15.272  0.00  0.00    +0.000 OA
ATOM     30  H   UNL     1      -3.611  11.313  14.375  0.00  0.00    +0.000 HD
ENDBRANCH  28  29
ENDBRANCH  27  28
ENDBRANCH  26  27
ENDBRANCH  25  26
ENDBRANCH  14  25
TORSDOF 10
ENDMDL
MODEL 8
REMARK VINA RESULT:      -6.7      1.138      1.445
REMARK  Name = 
REMARK  12 active torsions:
REMARK  status: ('A' for Active; 'I' for Inactive)
REMARK    1  A    between atoms: C_1  and  C_2
REMARK    2  A    between atoms: C_2  and  C_3
REMARK    3  A    between atoms: C_3  and  C_4
REMARK    4  A    between atoms: C_4  and  C_5
REMARK    5  A    between atoms: C_13  and  C_14
REMARK    6  A    between atoms: C_14  and  O_16
REMARK    7  A    between atoms: O_16  and  C_17
REMARK    8  A    between atoms: N_22  and  C_23
REMARK    9  A    between atoms: C_23  and  C_24
REMARK   10  A    between atoms: C_24  and  C_25
REMARK   11  A    between atoms: C_25  and  C_26
REMARK   12  A    between atoms: C_26  and  O_27
REMARK                            x       y       z     vdW  Elec       q    Type
REMARK                         _______ _______ _______ _____ _____    ______ ____
ROOT
ATOM      1  C   UNL     1       1.587   7.108  20.348  0.00  0.00    +0.000 A 
ATOM      2  N   UNL     1       1.824   5.856  20.663  0.00  0.00    +0.000 NA
ATOM      3  C   UNL     1       2.717   5.386  19.736  0.00  0.00    +0.000 A 
ATOM      4  C   UNL     1       3.275   4.094  19.664  0.00  0.00    +0.000 A 
ATOM      5  N   UNL     1       3.010   3.110  20.610  0.00  0.00    +0.000 N 
ATOM      6  N   UNL     1       4.084   3.777  18.637  0.00  0.00    +0.000 NA
ATOM      7  C   UNL     1       4.399   4.690  17.715  0.00  0.00    +0.000 A 
ATOM      8  C   UNL     1       5.252   4.266  16.708  0.00  0.00    +0.000 A 
ATOM      9  C   UNL     1       5.683   5.119  15.686  0.00  0.00    +0.000 A 
ATOM     10  C   UNL     1       5.237   6.438  15.672  0.00  0.00    +0.000 A 
ATOM     11  C   UNL     1       4.373   6.894  16.671  0.00  0.00    +0.000 A 
ATOM     12  C   UNL     1       3.933   6.036  17.709  0.00  0.00    +0.000 A 
ATOM     13  C   UNL     1       3.043   6.365  18.791  0.00  0.00    +0.000 A 
ATOM     14  N   UNL     1       2.331   7.484  19.233  0.00  0.00    +0.000 N 
ATOM     15  H   UNL     1       2.162   3.295  21.135  0.00  0.00    +0.000 HD
ATOM     16  H   UNL     1       3.148   2.182  20.236  0.00  0.00    +0.000 HD
ENDROOT
BRANCH   9  17
ATOM     17  C   UNL     1       6.612   4.575  14.661  0.00  0.00    +0.000 C 
ATOM     18  O   UNL     1       6.450   3.498  14.107  0.00  0.00    +0.000 OA
BRANCH  17  19
ATOM     19  O   UNL     1       7.643   5.428  14.443  0.00  0.00    +0.000 OA
ATOM     20  C   UNL     1       8.086   5.456  13.084  0.00  0.00    +0.000 C 
ENDBRANCH  17  19
ENDBRANCH   9  17
BRANCH   1  21
ATOM     21  C   UNL     1       0.687   7.972  21.182  0.00  0.00    +0.000 C 
BRANCH  21  22
ATOM     22  C   UNL     1       1.411   8.906  22.149  0.00  0.00    +0.000 C 
BRANCH  22  24
ATOM     23  C   UNL     1      -0.586  10.387  22.549  0.00  0.00    +0.000 C 
ATOM     24  C   UNL     1       0.446   9.474  23.190  0.00  0.00    +0.000 C 
ENDBRANCH  22  24
ENDBRANCH  21  22
ENDBRANCH   1  21
BRANCH  14  25
ATOM     25  C   UNL     1       2.264   8.782  18.597  0.00  0.00    +0.000 C 
BRANCH  25  26
ATOM     26  C   UNL     1       0.894   9.455  18.499  0.00  0.00    +0.000 C 
BRANCH  26  27
ATOM     27  C   UNL     1       0.945  10.973  18.292  0.00  0.00    +0.000 C 
BRANCH  27  28
ATOM     28  C   UNL     1       2.389  11.455  18.167  0.00  0.00    +0.000 C 
BRANCH  28  29
ATOM     29  O   UNL     1       2.429  12.762  17.609  0.00  0.00    +0.000 OA
ATOM     30  H   UNL     1       2.503  13.393  18.345  0.00  0.00    +0.000 HD
ENDBRANCH  28  29
ENDBRANCH  27  28
ENDBRANCH  26  27
ENDBRANCH  25  26
ENDBRANCH  14  25
TORSDOF 10
ENDMDL
MODEL 9
REMARK VINA RESULT:      -6.7      3.086      8.836
REMARK  Name = 
REMARK  12 active torsions:
REMARK  status: ('A' for Active; 'I' for Inactive)
REMARK    1  A    between atoms: C_1  and  C_2
REMARK    2  A    between atoms: C_2  and  C_3
REMARK    3  A    between atoms: C_3  and  C_4
REMARK    4  A    between atoms: C_4  and  C_5
REMARK    5  A    between atoms: C_13  and  C_14
REMARK    6  A    between atoms: C_14  and  O_16
REMARK    7  A    between atoms: O_16  and  C_17
REMARK    8  A    between atoms: N_22  and  C_23
REMARK    9  A    between atoms: C_23  and  C_24
REMARK   10  A    between atoms: C_24  and  C_25
REMARK   11  A    between atoms: C_25  and  C_26
REMARK   12  A    between atoms: C_26  and  O_27
REMARK                            x       y       z     vdW  Elec       q    Type
REMARK                         _______ _______ _______ _____ _____    ______ ____
ROOT
ATOM      1  C   UNL     1       2.784   6.941  18.681  0.00  0.00    +0.000 A 
ATOM      2  N   UNL     1       2.789   8.086  18.039  0.00  0.00    +0.000 NA
ATOM      3  C   UNL     1       2.063   8.961  18.802  0.00  0.00    +0.000 A 
ATOM      4  C   UNL     1       1.792  10.316  18.528  0.00  0.00    +0.000 A 
ATOM      5  N   UNL     1       2.307  10.971  17.414  0.00  0.00    +0.000 N 
ATOM      6  N   UNL     1       0.994  11.015  19.354  0.00  0.00    +0.000 NA
ATOM      7  C   UNL     1       0.496  10.448  20.456  0.00  0.00    +0.000 A 
ATOM      8  C   UNL     1      -0.302  11.258  21.248  0.00  0.00    +0.000 A 
ATOM      9  C   UNL     1      -0.876  10.806  22.441  0.00  0.00    +0.000 A 
ATOM     10  C   UNL     1      -0.645   9.494  22.848  0.00  0.00    +0.000 A 
ATOM     11  C   UNL     1       0.151   8.651  22.068  0.00  0.00    +0.000 A 
ATOM     12  C   UNL     1       0.735   9.104  20.860  0.00  0.00    +0.000 A 
ATOM     13  C   UNL     1       1.565   8.348  19.958  0.00  0.00    +0.000 A 
ATOM     14  N   UNL     1       2.081   7.052  19.878  0.00  0.00    +0.000 N 
ATOM     15  H   UNL     1       2.598  10.329  16.686  0.00  0.00    +0.000 HD
ATOM     16  H   UNL     1       1.743  11.767  17.152  0.00  0.00    +0.000 HD
ENDROOT
BRANCH   9  17
ATOM     17  C   UNL     1      -1.703  11.756  23.230  0.00  0.00    +0.000 C 
ATOM     18  O   UNL     1      -2.848  11.522  23.582  0.00  0.00    +0.000 OA
BRANCH  17  19
ATOM     19  O   UNL     1      -1.015  12.896  23.486  0.00  0.00    +0.000 OA
ATOM     20  C   UNL     1      -1.843  14.058  23.576  0.00  0.00    +0.000 C 
ENDBRANCH  17  19
ENDBRANCH   9  17
BRANCH   1  21
ATOM     21  C   UNL     1       3.535   5.748  18.166  0.00  0.00    +0.000 C 
BRANCH  21  22
ATOM     22  C   UNL     1       4.567   6.057  17.085  0.00  0.00    +0.000 C 
BRANCH  22  24
ATOM     23  C   UNL     1       4.472   3.541  17.028  0.00  0.00    +0.000 C 
ATOM     24  C   UNL     1       4.948   4.794  16.312  0.00  0.00    +0.000 C 
ENDBRANCH  22  24
ENDBRANCH  21  22
ENDBRANCH   1  21
BRANCH  14  25
ATOM     25  C   UNL     1       1.844   5.960  20.798  0.00  0.00    +0.000 C 
BRANCH  25  26
ATOM     26  C   UNL     1       0.890   4.850  20.352  0.00  0.00    +0.000 C 
BRANCH  26  27
ATOM     27  C   UNL     1       1.550   3.479  20.174  0.00  0.00    +0.000 C 
BRANCH  27  28
ATOM     28  C   UNL     1       1.221   2.894  18.801  0.00  0.00    +0.000 C 
BRANCH  28  29
ATOM     29  O   UNL     1       1.558   1.514  18.756  0.00  0.00    +0.000 OA
ATOM     30  H   UNL     1       1.926   1.329  17.876  0.00  0.00    +0.000 HD
ENDBRANCH  28  29
ENDBRANCH  27  28
ENDBRANCH  26  27
ENDBRANCH  25  26
ENDBRANCH  14  25
TORSDOF 10
ENDMDL
