MODEL 1
REMARK VINA RESULT:      -8.0      0.000      0.000
REMARK  Name = 
REMARK  6 active torsions:
REMARK  status: ('A' for Active; 'I' for Inactive)
REMARK    1  A    between atoms: C_1  and  C_2
REMARK    2  A    between atoms: C_4  and  C_5
REMARK    3  A    between atoms: N_7  and  N_8
REMARK    4  A    between atoms: C_9  and  C_10
REMARK    5  A    between atoms: C_11  and  C_12
REMARK    6  A    between atoms: N_13  and  C_14
REMARK                            x       y       z     vdW  Elec       q    Type
REMARK                         _______ _______ _______ _____ _____    ______ ____
ROOT
ATOM      1  N   UNL     1       2.337   7.082  20.153  0.00  0.00    +0.000 NA
ATOM      2  C   UNL     1       1.893   5.876  20.011  0.00  0.00    +0.000 C 
ENDROOT
BRANCH   2   3
ATOM      3  C   UNL     1       2.606   4.944  19.145  0.00  0.00    +0.000 A 
ATOM      4  C   UNL     1       2.549   3.553  19.234  0.00  0.00    +0.000 A 
ATOM      5  C   UNL     1       1.795   2.670  20.169  0.00  0.00    +0.000 C 
ATOM      6  N   UNL     1       3.369   3.039  18.247  0.00  0.00    +0.000 N 
ATOM      7  C   UNL     1       3.624   1.638  17.975  0.00  0.00    +0.000 C 
ATOM      8  C   UNL     1       3.955   4.056  17.522  0.00  0.00    +0.000 A 
ATOM      9  C   UNL     1       4.853   4.011  16.441  0.00  0.00    +0.000 A 
ATOM     10  C   UNL     1       5.292   5.219  15.893  0.00  0.00    +0.000 A 
ATOM     11  C   UNL     1       4.847   6.432  16.402  0.00  0.00    +0.000 A 
ATOM     12  C   UNL     1       3.952   6.464  17.476  0.00  0.00    +0.000 A 
ATOM     13  C   UNL     1       3.493   5.260  18.057  0.00  0.00    +0.000 A 
ENDBRANCH   2   3
BRANCH   1  16
ATOM     14  C   UNL     1       1.009   9.035  20.432  0.00  0.00    +0.000 C 
ATOM     15  O   UNL     1       1.033   9.316  19.236  0.00  0.00    +0.000 OA
ATOM     16  N   UNL     1       1.641   7.924  20.979  0.00  0.00    +0.000 N 
ATOM     17  H   UNL     1       1.594   7.732  21.970  0.00  0.00    +0.000 HD
BRANCH  14  21
ATOM     18  C   UNL     1      -1.661  12.485  23.074  0.00  0.00    +0.000 C 
ATOM     19  C   UNL     1      -0.856  11.336  22.592  0.00  0.00    +0.000 A 
ATOM     20  C   UNL     1      -0.397  11.066  21.278  0.00  0.00    +0.000 A 
ATOM     21  C   UNL     1       0.298   9.874  21.369  0.00  0.00    +0.000 A 
ATOM     22  N   UNL     1       0.217   9.521  22.691  0.00  0.00    +0.000 N 
ATOM     23  N   UNL     1      -0.475  10.385  23.450  0.00  0.00    +0.000 NA
ATOM     24  H   UNL     1       0.618   8.693  23.123  0.00  0.00    +0.000 HD
ENDBRANCH  14  21
ENDBRANCH   1  16
TORSDOF 3
ENDMDL
MODEL 2
REMARK VINA RESULT:      -7.8      1.442      3.132
REMARK  Name = 
REMARK  6 active torsions:
REMARK  status: ('A' for Active; 'I' for Inactive)
REMARK    1  A    between atoms: C_1  and  C_2
REMARK    2  A    between atoms: C_4  and  C_5
REMARK    3  A    between atoms: N_7  and  N_8
REMARK    4  A    between atoms: C_9  and  C_10
REMARK    5  A    between atoms: C_11  and  C_12
REMARK    6  A    between atoms: N_13  and  C_14
REMARK                            x       y       z     vdW  Elec       q    Type
REMARK                         _______ _______ _______ _____ _____    ______ ____
ROOT
ATOM      1  N   UNL     1       1.731   7.729  20.657  0.00  0.00    +0.000 NA
ATOM      2  C   UNL     1       2.107   7.567  19.431  0.00  0.00    +0.000 C 
ENDROOT
BRANCH   2   3
ATOM      3  C   UNL     1       2.588   6.262  18.993  0.00  0.00    +0.000 A 
ATOM      4  C   UNL     1       3.563   6.046  18.018  0.00  0.00    +0.000 A 
ATOM      5  C   UNL     1       4.348   7.013  17.198  0.00  0.00    +0.000 C 
ATOM      6  N   UNL     1       3.725   4.680  17.888  0.00  0.00    +0.000 N 
ATOM      7  C   UNL     1       4.628   3.997  16.982  0.00  0.00    +0.000 C 
ATOM      8  C   UNL     1       2.885   4.006  18.750  0.00  0.00    +0.000 A 
ATOM      9  C   UNL     1       2.702   2.627  18.960  0.00  0.00    +0.000 A 
ATOM     10  C   UNL     1       1.764   2.220  19.912  0.00  0.00    +0.000 A 
ATOM     11  C   UNL     1       1.035   3.156  20.633  0.00  0.00    +0.000 A 
ATOM     12  C   UNL     1       1.227   4.524  20.417  0.00  0.00    +0.000 A 
ATOM     13  C   UNL     1       2.164   4.969  19.457  0.00  0.00    +0.000 A 
ENDBRANCH   2   3
BRANCH   1  16
ATOM     14  C   UNL     1       0.024   9.086  21.609  0.00  0.00    +0.000 C 
ATOM     15  O   UNL     1      -0.724   8.134  21.816  0.00  0.00    +0.000 OA
ATOM     16  N   UNL     1       1.282   8.969  21.028  0.00  0.00    +0.000 N 
ATOM     17  H   UNL     1       1.864   9.781  20.876  0.00  0.00    +0.000 HD
BRANCH  14  21
ATOM     18  C   UNL     1      -1.753  13.456  23.546  0.00  0.00    +0.000 C 
ATOM     19  C   UNL     1      -1.117  12.377  22.752  0.00  0.00    +0.000 A 
ATOM     20  C   UNL     1      -1.107  10.981  23.003  0.00  0.00    +0.000 A 
ATOM     21  C   UNL     1      -0.376  10.427  21.969  0.00  0.00    +0.000 A 
ATOM     22  N   UNL     1      -0.011  11.492  21.187  0.00  0.00    +0.000 N 
ATOM     23  N   UNL     1      -0.445  12.679  21.638  0.00  0.00    +0.000 NA
ATOM     24  H   UNL     1       0.538  11.456  20.333  0.00  0.00    +0.000 HD
ENDBRANCH  14  21
ENDBRANCH   1  16
TORSDOF 3
ENDMDL
MODEL 3
REMARK VINA RESULT:      -7.8      1.248      2.929
REMARK  Name = 
REMARK  6 active torsions:
REMARK  status: ('A' for Active; 'I' for Inactive)
REMARK    1  A    between atoms: C_1  and  C_2
REMARK    2  A    between atoms: C_4  and  C_5
REMARK    3  A    between atoms: N_7  and  N_8
REMARK    4  A    between atoms: C_9  and  C_10
REMARK    5  A    between atoms: C_11  and  C_12
REMARK    6  A    between atoms: N_13  and  C_14
REMARK                            x       y       z     vdW  Elec       q    Type
REMARK                         _______ _______ _______ _____ _____    ______ ____
ROOT
ATOM      1  N   UNL     1       1.910   7.358  20.602  0.00  0.00    +0.000 NA
ATOM      2  C   UNL     1       2.159   7.282  19.335  0.00  0.00    +0.000 C 
ENDROOT
BRANCH   2   3
ATOM      3  C   UNL     1       2.631   6.023  18.769  0.00  0.00    +0.000 A 
ATOM      4  C   UNL     1       3.663   5.893  17.839  0.00  0.00    +0.000 A 
ATOM      5  C   UNL     1       4.529   6.923  17.198  0.00  0.00    +0.000 C 
ATOM      6  N   UNL     1       3.795   4.548  17.551  0.00  0.00    +0.000 N 
ATOM      7  C   UNL     1       4.737   3.948  16.626  0.00  0.00    +0.000 C 
ATOM      8  C   UNL     1       2.879   3.804  18.266  0.00  0.00    +0.000 A 
ATOM      9  C   UNL     1       2.643   2.418  18.291  0.00  0.00    +0.000 A 
ATOM     10  C   UNL     1       1.631   1.932  19.123  0.00  0.00    +0.000 A 
ATOM     11  C   UNL     1       0.882   2.799  19.908  0.00  0.00    +0.000 A 
ATOM     12  C   UNL     1       1.127   4.175  19.877  0.00  0.00    +0.000 A 
ATOM     13  C   UNL     1       2.140   4.700  19.041  0.00  0.00    +0.000 A 
ENDBRANCH   2   3
BRANCH   1  16
ATOM     14  C   UNL     1       0.137   8.674  21.486  0.00  0.00    +0.000 C 
ATOM     15  O   UNL     1      -0.678   7.756  21.423  0.00  0.00    +0.000 OA
ATOM     16  N   UNL     1       1.465   8.557  21.093  0.00  0.00    +0.000 N 
ATOM     17  H   UNL     1       2.101   9.339  21.164  0.00  0.00    +0.000 HD
BRANCH  14  21
ATOM     18  C   UNL     1      -0.874  13.552  22.579  0.00  0.00    +0.000 C 
ATOM     19  C   UNL     1      -0.734  12.075  22.539  0.00  0.00    +0.000 A 
ATOM     20  C   UNL     1      -0.096  11.273  21.559  0.00  0.00    +0.000 A 
ATOM     21  C   UNL     1      -0.254   9.970  21.992  0.00  0.00    +0.000 A 
ATOM     22  N   UNL     1      -0.948  10.072  23.169  0.00  0.00    +0.000 N 
ATOM     23  N   UNL     1      -1.251  11.332  23.520  0.00  0.00    +0.000 NA
ATOM     24  H   UNL     1      -1.241   9.306  23.769  0.00  0.00    +0.000 HD
ENDBRANCH  14  21
ENDBRANCH   1  16
TORSDOF 3
ENDMDL
MODEL 4
REMARK VINA RESULT:      -7.6      1.315      1.331
REMARK  Name = 
REMARK  6 active torsions:
REMARK  status: ('A' for Active; 'I' for Inactive)
REMARK    1  A    between atoms: C_1  and  C_2
REMARK    2  A    between atoms: C_4  and  C_5
REMARK    3  A    between atoms: N_7  and  N_8
REMARK    4  A    between atoms: C_9  and  C_10
REMARK    5  A    between atoms: C_11  and  C_12
REMARK    6  A    between atoms: N_13  and  C_14
REMARK                            x       y       z     vdW  Elec       q    Type
REMARK                         _______ _______ _______ _____ _____    ______ ____
ROOT
ATOM      1  N   UNL     1       1.878   7.862  19.310  0.00  0.00    +0.000 NA
ATOM      2  C   UNL     1       2.208   6.733  19.848  0.00  0.00    +0.000 C 
ENDROOT
BRANCH   2   3
ATOM      3  C   UNL     1       2.668   5.640  19.000  0.00  0.00    +0.000 A 
ATOM      4  C   UNL     1       2.254   4.311  19.100  0.00  0.00    +0.000 A 
ATOM      5  C   UNL     1       1.287   3.662  20.031  0.00  0.00    +0.000 C 
ATOM      6  N   UNL     1       2.927   3.592  18.130  0.00  0.00    +0.000 N 
ATOM      7  C   UNL     1       2.816   2.169  17.873  0.00  0.00    +0.000 C 
ATOM      8  C   UNL     1       3.763   4.416  17.405  0.00  0.00    +0.000 A 
ATOM      9  C   UNL     1       4.634   4.129  16.338  0.00  0.00    +0.000 A 
ATOM     10  C   UNL     1       5.375   5.177  15.787  0.00  0.00    +0.000 A 
ATOM     11  C   UNL     1       5.250   6.469  16.280  0.00  0.00    +0.000 A 
ATOM     12  C   UNL     1       4.380   6.743  17.340  0.00  0.00    +0.000 A 
ATOM     13  C   UNL     1       3.620   5.704  17.924  0.00  0.00    +0.000 A 
ENDBRANCH   2   3
BRANCH   1  16
ATOM     14  C   UNL     1       0.815   9.971  19.594  0.00  0.00    +0.000 C 
ATOM     15  O   UNL     1       0.599  10.110  18.392  0.00  0.00    +0.000 OA
ATOM     16  N   UNL     1       1.454   8.865  20.141  0.00  0.00    +0.000 N 
ATOM     17  H   UNL     1       1.611   8.793  21.137  0.00  0.00    +0.000 HD
BRANCH  14  21
ATOM     18  C   UNL     1      -1.293  13.037  23.081  0.00  0.00    +0.000 C 
ATOM     19  C   UNL     1      -0.457  12.378  22.048  0.00  0.00    +0.000 A 
ATOM     20  C   UNL     1      -0.665  11.132  21.403  0.00  0.00    +0.000 A 
ATOM     21  C   UNL     1       0.401  10.984  20.536  0.00  0.00    +0.000 A 
ATOM     22  N   UNL     1       1.152  12.118  20.707  0.00  0.00    +0.000 N 
ATOM     23  N   UNL     1       0.656  12.974  21.614  0.00  0.00    +0.000 NA
ATOM     24  H   UNL     1       2.016  12.351  20.225  0.00  0.00    +0.000 HD
ENDBRANCH  14  21
ENDBRANCH   1  16
TORSDOF 3
ENDMDL
MODEL 5
REMARK VINA RESULT:      -7.6      1.192      1.276
REMARK  Name = 
REMARK  6 active torsions:
REMARK  status: ('A' for Active; 'I' for Inactive)
REMARK    1  A    between atoms: C_1  and  C_2
REMARK    2  A    between atoms: C_4  and  C_5
REMARK    3  A    between atoms: N_7  and  N_8
REMARK    4  A    between atoms: C_9  and  C_10
REMARK    5  A    between atoms: C_11  and  C_12
REMARK    6  A    between atoms: N_13  and  C_14
REMARK                            x       y       z     vdW  Elec       q    Type
REMARK                         _______ _______ _______ _____ _____    ______ ____
ROOT
ATOM      1  N   UNL     1       1.809   7.403  20.611  0.00  0.00    +0.000 NA
ATOM      2  C   UNL     1       2.169   7.332  19.371  0.00  0.00    +0.000 C 
ENDROOT
BRANCH   2   3
ATOM      3  C   UNL     1       2.628   6.059  18.827  0.00  0.00    +0.000 A 
ATOM      4  C   UNL     1       2.197   4.800  19.245  0.00  0.00    +0.000 A 
ATOM      5  C   UNL     1       1.209   4.409  20.292  0.00  0.00    +0.000 C 
ATOM      6  N   UNL     1       2.874   3.858  18.494  0.00  0.00    +0.000 N 
ATOM      7  C   UNL     1       2.750   2.417  18.594  0.00  0.00    +0.000 C 
ATOM      8  C   UNL     1       3.730   4.470  17.602  0.00  0.00    +0.000 A 
ATOM      9  C   UNL     1       4.612   3.921  16.653  0.00  0.00    +0.000 A 
ATOM     10  C   UNL     1       5.373   4.795  15.872  0.00  0.00    +0.000 A 
ATOM     11  C   UNL     1       5.257   6.169  16.028  0.00  0.00    +0.000 A 
ATOM     12  C   UNL     1       4.376   6.704  16.974  0.00  0.00    +0.000 A 
ATOM     13  C   UNL     1       3.595   5.848  17.784  0.00  0.00    +0.000 A 
ENDBRANCH   2   3
BRANCH   1  16
ATOM     14  C   UNL     1       0.073   8.739  21.537  0.00  0.00    +0.000 C 
ATOM     15  O   UNL     1      -0.737   7.816  21.548  0.00  0.00    +0.000 OA
ATOM     16  N   UNL     1       1.380   8.616  21.081  0.00  0.00    +0.000 N 
ATOM     17  H   UNL     1       2.013   9.404  21.091  0.00  0.00    +0.000 HD
BRANCH  14  21
ATOM     18  C   UNL     1      -0.848  13.653  22.546  0.00  0.00    +0.000 C 
ATOM     19  C   UNL     1      -0.746  12.173  22.525  0.00  0.00    +0.000 A 
ATOM     20  C   UNL     1      -0.095  11.344  21.576  0.00  0.00    +0.000 A 
ATOM     21  C   UNL     1      -0.301  10.050  22.016  0.00  0.00    +0.000 A 
ATOM     22  N   UNL     1      -1.035  10.183  23.167  0.00  0.00    +0.000 N 
ATOM     23  N   UNL     1      -1.317  11.454  23.495  0.00  0.00    +0.000 NA
ATOM     24  H   UNL     1      -1.368   9.431  23.763  0.00  0.00    +0.000 HD
ENDBRANCH  14  21
ENDBRANCH   1  16
TORSDOF 3
ENDMDL
MODEL 6
REMARK VINA RESULT:      -7.5      2.693      3.091
REMARK  Name = 
REMARK  6 active torsions:
REMARK  status: ('A' for Active; 'I' for Inactive)
REMARK    1  A    between atoms: C_1  and  C_2
REMARK    2  A    between atoms: C_4  and  C_5
REMARK    3  A    between atoms: N_7  and  N_8
REMARK    4  A    between atoms: C_9  and  C_10
REMARK    5  A    between atoms: C_11  and  C_12
REMARK    6  A    between atoms: N_13  and  C_14
REMARK                            x       y       z     vdW  Elec       q    Type
REMARK                         _______ _______ _______ _____ _____    ______ ____
ROOT
ATOM      1  N   UNL     1       1.904   8.450  17.689  0.00  0.00    +0.000 NA
ATOM      2  C   UNL     1       3.082   8.060  18.055  0.00  0.00    +0.000 C 
ENDROOT
BRANCH   2   3
ATOM      3  C   UNL     1       3.414   6.641  18.013  0.00  0.00    +0.000 A 
ATOM      4  C   UNL     1       2.953   5.675  18.908  0.00  0.00    +0.000 A 
ATOM      5  C   UNL     1       2.046   5.797  20.086  0.00  0.00    +0.000 C 
ATOM      6  N   UNL     1       3.502   4.464  18.533  0.00  0.00    +0.000 N 
ATOM      7  C   UNL     1       3.305   3.184  19.186  0.00  0.00    +0.000 C 
ATOM      8  C   UNL     1       4.304   4.616  17.421  0.00  0.00    +0.000 A 
ATOM      9  C   UNL     1       5.061   3.674  16.701  0.00  0.00    +0.000 A 
ATOM     10  C   UNL     1       5.794   4.118  15.598  0.00  0.00    +0.000 A 
ATOM     11  C   UNL     1       5.772   5.454  15.222  0.00  0.00    +0.000 A 
ATOM     12  C   UNL     1       5.015   6.381  15.945  0.00  0.00    +0.000 A 
ATOM     13  C   UNL     1       4.266   5.967  17.070  0.00  0.00    +0.000 A 
ENDBRANCH   2   3
BRANCH   1  16
ATOM     14  C   UNL     1       1.054  10.320  18.888  0.00  0.00    +0.000 C 
ATOM     15  O   UNL     1       0.765   9.652  19.878  0.00  0.00    +0.000 OA
ATOM     16  N   UNL     1       1.633   9.792  17.740  0.00  0.00    +0.000 N 
ATOM     17  H   UNL     1       1.853  10.380  16.949  0.00  0.00    +0.000 HD
BRANCH  14  21
ATOM     18  C   UNL     1       0.842  15.401  19.268  0.00  0.00    +0.000 C 
ATOM     19  C   UNL     1       0.636  13.961  18.980  0.00  0.00    +0.000 A 
ATOM     20  C   UNL     1       1.413  12.853  19.407  0.00  0.00    +0.000 A 
ATOM     21  C   UNL     1       0.798  11.742  18.862  0.00  0.00    +0.000 A 
ATOM     22  N   UNL     1      -0.277  12.239  18.171  0.00  0.00    +0.000 N 
ATOM     23  N   UNL     1      -0.396  13.574  18.226  0.00  0.00    +0.000 NA
ATOM     24  H   UNL     1      -0.959  11.701  17.643  0.00  0.00    +0.000 HD
ENDBRANCH  14  21
ENDBRANCH   1  16
TORSDOF 3
ENDMDL
MODEL 7
REMARK VINA RESULT:      -7.4      3.061      8.373
REMARK  Name = 
REMARK  6 active torsions:
REMARK  status: ('A' for Active; 'I' for Inactive)
REMARK    1  A    between atoms: C_1  and  C_2
REMARK    2  A    between atoms: C_4  and  C_5
REMARK    3  A    between atoms: N_7  and  N_8
REMARK    4  A    between atoms: C_9  and  C_10
REMARK    5  A    between atoms: C_11  and  C_12
REMARK    6  A    between atoms: N_13  and  C_14
REMARK                            x       y       z     vdW  Elec       q    Type
REMARK                         _______ _______ _______ _____ _____    ______ ____
ROOT
ATOM      1  N   UNL     1       1.537   8.516  18.860  0.00  0.00    +0.000 NA
ATOM      2  C   UNL     1       1.248   9.602  18.221  0.00  0.00    +0.000 C 
ENDROOT
BRANCH   2   3
ATOM      3  C   UNL     1       0.080  10.380  18.615  0.00  0.00    +0.000 A 
ATOM      4  C   UNL     1       0.023  11.259  19.697  0.00  0.00    +0.000 A 
ATOM      5  C   UNL     1       1.063  11.639  20.696  0.00  0.00    +0.000 C 
ATOM      6  N   UNL     1      -1.254  11.786  19.738  0.00  0.00    +0.000 N 
ATOM      7  C   UNL     1      -1.769  12.737  20.704  0.00  0.00    +0.000 C 
ATOM      8  C   UNL     1      -2.025  11.275  18.714  0.00  0.00    +0.000 A 
ATOM      9  C   UNL     1      -3.367  11.515  18.369  0.00  0.00    +0.000 A 
ATOM     10  C   UNL     1      -3.897  10.845  17.264  0.00  0.00    +0.000 A 
ATOM     11  C   UNL     1      -3.116   9.967  16.524  0.00  0.00    +0.000 A 
ATOM     12  C   UNL     1      -1.782   9.738  16.876  0.00  0.00    +0.000 A 
ATOM     13  C   UNL     1      -1.216  10.395  17.992  0.00  0.00    +0.000 A 
ENDBRANCH   2   3
BRANCH   1  16
ATOM     14  C   UNL     1       2.916   6.587  19.050  0.00  0.00    +0.000 C 
ATOM     15  O   UNL     1       2.214   6.076  19.921  0.00  0.00    +0.000 OA
ATOM     16  N   UNL     1       2.645   7.816  18.461  0.00  0.00    +0.000 N 
ATOM     17  H   UNL     1       3.251   8.198  17.748  0.00  0.00    +0.000 HD
BRANCH  14  21
ATOM     18  C   UNL     1       6.926   4.563  16.635  0.00  0.00    +0.000 C 
ATOM     19  C   UNL     1       5.877   4.992  17.593  0.00  0.00    +0.000 A 
ATOM     20  C   UNL     1       4.753   5.825  17.359  0.00  0.00    +0.000 A 
ATOM     21  C   UNL     1       4.103   5.913  18.576  0.00  0.00    +0.000 A 
ATOM     22  N   UNL     1       4.852   5.148  19.431  0.00  0.00    +0.000 N 
ATOM     23  N   UNL     1       5.929   4.583  18.863  0.00  0.00    +0.000 NA
ATOM     24  H   UNL     1       4.668   4.984  20.417  0.00  0.00    +0.000 HD
ENDBRANCH  14  21
ENDBRANCH   1  16
TORSDOF 3
ENDMDL
MODEL 8
REMARK VINA RESULT:      -7.4      1.559      1.678
REMARK  Name = 
REMARK  6 active torsions:
REMARK  status: ('A' for Active; 'I' for Inactive)
REMARK    1  A    between atoms: C_1  and  C_2
REMARK    2  A    between atoms: C_4  and  C_5
REMARK    3  A    between atoms: N_7  and  N_8
REMARK    4  A    between atoms: C_9  and  C_10
REMARK    5  A    between atoms: C_11  and  C_12
REMARK    6  A    between atoms: N_13  and  C_14
REMARK                            x       y       z     vdW  Elec       q    Type
REMARK                         _______ _______ _______ _____ _____    ______ ____
ROOT
ATOM      1  N   UNL     1       1.777   7.607  20.721  0.00  0.00    +0.000 NA
ATOM      2  C   UNL     1       1.812   7.066  19.547  0.00  0.00    +0.000 C 
ENDROOT
BRANCH   2   3
ATOM      3  C   UNL     1       2.789   6.021  19.266  0.00  0.00    +0.000 A 
ATOM      4  C   UNL     1       2.883   4.801  19.937  0.00  0.00    +0.000 A 
ATOM      5  C   UNL     1       2.071   4.243  21.056  0.00  0.00    +0.000 C 
ATOM      6  N   UNL     1       3.937   4.101  19.382  0.00  0.00    +0.000 N 
ATOM      7  C   UNL     1       4.407   2.787  19.775  0.00  0.00    +0.000 C 
ATOM      8  C   UNL     1       4.528   4.831  18.371  0.00  0.00    +0.000 A 
ATOM      9  C   UNL     1       5.622   4.528  17.540  0.00  0.00    +0.000 A 
ATOM     10  C   UNL     1       6.011   5.472  16.587  0.00  0.00    +0.000 A 
ATOM     11  C   UNL     1       5.332   6.677  16.463  0.00  0.00    +0.000 A 
ATOM     12  C   UNL     1       4.245   6.966  17.294  0.00  0.00    +0.000 A 
ATOM     13  C   UNL     1       3.828   6.035  18.272  0.00  0.00    +0.000 A 
ENDBRANCH   2   3
BRANCH   1  16
ATOM     14  C   UNL     1       0.991   9.421  22.044  0.00  0.00    +0.000 C 
ATOM     15  O   UNL     1       1.924   9.344  22.841  0.00  0.00    +0.000 OA
ATOM     16  N   UNL     1       0.842   8.582  20.946  0.00  0.00    +0.000 N 
ATOM     17  H   UNL     1       0.057   8.681  20.317  0.00  0.00    +0.000 HD
BRANCH  14  21
ATOM     18  C   UNL     1      -2.867  12.506  23.312  0.00  0.00    +0.000 C 
ATOM     19  C   UNL     1      -1.704  11.817  22.700  0.00  0.00    +0.000 A 
ATOM     20  C   UNL     1      -1.063  10.622  23.117  0.00  0.00    +0.000 A 
ATOM     21  C   UNL     1      -0.037  10.421  22.213  0.00  0.00    +0.000 A 
ATOM     22  N   UNL     1      -0.130  11.472  21.337  0.00  0.00    +0.000 N 
ATOM     23  N   UNL     1      -1.126  12.329  21.611  0.00  0.00    +0.000 NA
ATOM     24  H   UNL     1       0.470  11.648  20.536  0.00  0.00    +0.000 HD
ENDBRANCH  14  21
ENDBRANCH   1  16
TORSDOF 3
ENDMDL
MODEL 9
REMARK VINA RESULT:      -7.4      2.432      3.596
REMARK  Name = 
REMARK  6 active torsions:
REMARK  status: ('A' for Active; 'I' for Inactive)
REMARK    1  A    between atoms: C_1  and  C_2
REMARK    2  A    between atoms: C_4  and  C_5
REMARK    3  A    between atoms: N_7  and  N_8
REMARK    4  A    between atoms: C_9  and  C_10
REMARK    5  A    between atoms: C_11  and  C_12
REMARK    6  A    between atoms: N_13  and  C_14
REMARK                            x       y       z     vdW  Elec       q    Type
REMARK                         _______ _______ _______ _____ _____    ______ ____
ROOT
ATOM      1  N   UNL     1       1.997   8.320  18.084  0.00  0.00    +0.000 NA
ATOM      2  C   UNL     1       2.449   7.440  18.917  0.00  0.00    +0.000 C 
ENDROOT
BRANCH   2   3
ATOM      3  C   UNL     1       2.855   6.128  18.426  0.00  0.00    +0.000 A 
ATOM      4  C   UNL     1       3.892   5.888  17.524  0.00  0.00    +0.000 A 
ATOM      5  C   UNL     1       4.827   6.831  16.845  0.00  0.00    +0.000 C 
ATOM      6  N   UNL     1       3.949   4.524  17.308  0.00  0.00    +0.000 N 
ATOM      7  C   UNL     1       4.868   3.822  16.434  0.00  0.00    +0.000 C 
ATOM      8  C   UNL     1       2.980   3.874  18.045  0.00  0.00    +0.000 A 
ATOM      9  C   UNL     1       2.662   2.507  18.138  0.00  0.00    +0.000 A 
ATOM     10  C   UNL     1       1.611   2.126  18.975  0.00  0.00    +0.000 A 
ATOM     11  C   UNL     1       0.902   3.075  19.699  0.00  0.00    +0.000 A 
ATOM     12  C   UNL     1       1.228   4.431  19.601  0.00  0.00    +0.000 A 
ATOM     13  C   UNL     1       2.283   4.851  18.758  0.00  0.00    +0.000 A 
ENDBRANCH   2   3
BRANCH   1  16
ATOM     14  C   UNL     1       0.382  10.058  18.258  0.00  0.00    +0.000 C 
ATOM     15  O   UNL     1      -0.430   9.480  17.539  0.00  0.00    +0.000 OA
ATOM     16  N   UNL     1       1.631   9.541  18.585  0.00  0.00    +0.000 N 
ATOM     17  H   UNL     1       2.267  10.052  19.181  0.00  0.00    +0.000 HD
BRANCH  14  21
ATOM     18  C   UNL     1      -0.651  14.233  20.998  0.00  0.00    +0.000 C 
ATOM     19  C   UNL     1      -0.385  13.218  19.949  0.00  0.00    +0.000 A 
ATOM     20  C   UNL     1      -0.096  11.838  20.106  0.00  0.00    +0.000 A 
ATOM     21  C   UNL     1       0.072  11.350  18.824  0.00  0.00    +0.000 A 
ATOM     22  N   UNL     1      -0.126  12.433  18.007  0.00  0.00    +0.000 N 
ATOM     23  N   UNL     1      -0.403  13.572  18.662  0.00  0.00    +0.000 NA
ATOM     24  H   UNL     1      -0.081  12.443  16.992  0.00  0.00    +0.000 HD
ENDBRANCH  14  21
ENDBRANCH   1  16
TORSDOF 3
ENDMDL
