MODEL 1
REMARK VINA RESULT:      -7.0      0.000      0.000
REMARK  Name = 
REMARK  16 active torsions:
REMARK  status: ('A' for Active; 'I' for Inactive)
REMARK    1  A    between atoms: C_1  and  C_2
REMARK    2  A    between atoms: C_2  and  O_3
REMARK    3  A    between atoms: O_3  and  C_4
REMARK    4  A    between atoms: C_4  and  C_6
REMARK    5  A    between atoms: C_7  and  C_8
REMARK    6  A    between atoms: C_10  and  C_11
REMARK    7  A    between atoms: C_12  and  C_13
REMARK    8  A    between atoms: C_13  and  O_15
REMARK    9  A    between atoms: O_15  and  C_16
REMARK   10  A    between atoms: C_16  and  C_17
REMARK   11  A    between atoms: C_18  and  C_19
REMARK   12  A    between atoms: C_22  and  N_23
REMARK   13  A    between atoms: N_23  and  C_24
REMARK   14  A    between atoms: N_23  and  C_26
REMARK   15  A    between atoms: C_24  and  C_25
REMARK   16  A    between atoms: C_26  and  C_27
REMARK                            x       y       z     vdW  Elec       q    Type
REMARK                         _______ _______ _______ _____ _____    ______ ____
ROOT
ATOM      1  C   UNL     1       3.710   3.573  18.447  0.00  0.00    +0.000 C 
ATOM      2  C   UNL     1       4.847   3.550  19.317  0.00  0.00    +0.000 C 
ATOM      3  C   UNL     1       5.086   2.568  20.485  0.00  0.00    +0.000 C 
ATOM      4  N   UNL     1       6.030   4.456  19.281  0.00  0.00    +0.000 N 
ATOM      5  C   UNL     1       6.367   5.187  18.131  0.00  0.00    +0.000 C 
ATOM      6  C   UNL     1       7.747   5.725  17.877  0.00  0.00    +0.000 C 
ATOM      7  C   UNL     1       5.339   5.412  17.297  0.00  0.00    +0.000 C 
ATOM      8  C   UNL     1       4.000   5.041  17.967  0.00  0.00    +0.000 C 
ATOM      9  H   UNL     1       6.822   4.213  19.894  0.00  0.00    +0.000 HD
ENDROOT
BRANCH   8  10
ATOM     10  C   UNL     1       3.098   6.025  18.849  0.00  0.00    +0.000 A 
ATOM     11  C   UNL     1       2.670   7.232  18.318  0.00  0.00    +0.000 A 
ATOM     12  C   UNL     1       1.934   8.188  19.059  0.00  0.00    +0.000 A 
ATOM     13  C   UNL     1       1.410   7.979  20.345  0.00  0.00    +0.000 A 
ATOM     14  C   UNL     1       1.652   6.696  20.837  0.00  0.00    +0.000 A 
ATOM     15  C   UNL     1       2.501   5.751  20.131  0.00  0.00    +0.000 A 
BRANCH  13  16
ATOM     16  N   UNL     1       0.799   9.017  21.057  0.00  0.00    +0.000 N 
BRANCH  16  17
ATOM     17  C   UNL     1       0.987   9.314  22.495  0.00  0.00    +0.000 C 
ATOM     18  C   UNL     1      -0.282   9.487  23.332  0.00  0.00    +0.000 C 
ENDBRANCH  16  17
BRANCH  16  19
ATOM     19  C   UNL     1      -0.090   9.906  20.288  0.00  0.00    +0.000 C 
ATOM     20  C   UNL     1       0.462  11.325  20.281  0.00  0.00    +0.000 C 
ENDBRANCH  16  19
ENDBRANCH  13  16
ENDBRANCH   8  10
BRANCH   1  21
ATOM     21  C   UNL     1       2.263   3.640  17.309  0.00  0.00    +0.000 C 
ATOM     22  O   UNL     1       2.372   3.669  16.073  0.00  0.00    +0.000 OA
BRANCH  21  23
ATOM     23  O   UNL     1       0.955   3.606  17.810  0.00  0.00    +0.000 OA
BRANCH  23  25
ATOM     24  C   UNL     1       1.013   2.672  20.600  0.00  0.00    +0.000 C 
ATOM     25  C   UNL     1       0.360   2.913  19.152  0.00  0.00    +0.000 C 
ENDBRANCH  23  25
ENDBRANCH  21  23
ENDBRANCH   1  21
BRANCH   7  26
ATOM     26  C   UNL     1       5.462   5.292  15.664  0.00  0.00    +0.000 C 
ATOM     27  O   UNL     1       5.457   6.277  14.931  0.00  0.00    +0.000 OA
BRANCH  26  28
ATOM     28  O   UNL     1       5.731   4.015  15.188  0.00  0.00    +0.000 OA
BRANCH  28  29
ATOM     29  C   UNL     1       6.380   3.636  13.876  0.00  0.00    +0.000 C 
ATOM     30  C   UNL     1       5.523   3.434  12.614  0.00  0.00    +0.000 C 
ENDBRANCH  28  29
ENDBRANCH  26  28
ENDBRANCH   7  26
TORSDOF 10
ENDMDL
MODEL 2
REMARK VINA RESULT:      -6.9      2.488      5.279
REMARK  Name = 
REMARK  16 active torsions:
REMARK  status: ('A' for Active; 'I' for Inactive)
REMARK    1  A    between atoms: C_1  and  C_2
REMARK    2  A    between atoms: C_2  and  O_3
REMARK    3  A    between atoms: O_3  and  C_4
REMARK    4  A    between atoms: C_4  and  C_6
REMARK    5  A    between atoms: C_7  and  C_8
REMARK    6  A    between atoms: C_10  and  C_11
REMARK    7  A    between atoms: C_12  and  C_13
REMARK    8  A    between atoms: C_13  and  O_15
REMARK    9  A    between atoms: O_15  and  C_16
REMARK   10  A    between atoms: C_16  and  C_17
REMARK   11  A    between atoms: C_18  and  C_19
REMARK   12  A    between atoms: C_22  and  N_23
REMARK   13  A    between atoms: N_23  and  C_24
REMARK   14  A    between atoms: N_23  and  C_26
REMARK   15  A    between atoms: C_24  and  C_25
REMARK   16  A    between atoms: C_26  and  C_27
REMARK                            x       y       z     vdW  Elec       q    Type
REMARK                         _______ _______ _______ _____ _____    ______ ____
ROOT
ATOM      1  C   UNL     1       5.495   4.732  17.599  0.00  0.00    +0.000 C 
ATOM      2  C   UNL     1       4.765   4.125  16.528  0.00  0.00    +0.000 C 
ATOM      3  C   UNL     1       5.147   4.148  15.032  0.00  0.00    +0.000 C 
ATOM      4  N   UNL     1       3.496   3.349  16.625  0.00  0.00    +0.000 N 
ATOM      5  C   UNL     1       3.074   2.769  17.832  0.00  0.00    +0.000 C 
ATOM      6  C   UNL     1       2.100   1.627  17.897  0.00  0.00    +0.000 C 
ATOM      7  C   UNL     1       3.575   3.354  18.932  0.00  0.00    +0.000 C 
ATOM      8  C   UNL     1       4.264   4.687  18.576  0.00  0.00    +0.000 C 
ATOM      9  H   UNL     1       3.179   2.865  15.772  0.00  0.00    +0.000 HD
ENDROOT
BRANCH   8  10
ATOM     10  C   UNL     1       3.548   6.117  18.517  0.00  0.00    +0.000 A 
ATOM     11  C   UNL     1       2.774   6.547  19.584  0.00  0.00    +0.000 A 
ATOM     12  C   UNL     1       2.049   7.764  19.576  0.00  0.00    +0.000 A 
ATOM     13  C   UNL     1       2.144   8.750  18.581  0.00  0.00    +0.000 A 
ATOM     14  C   UNL     1       3.070   8.439  17.583  0.00  0.00    +0.000 A 
ATOM     15  C   UNL     1       3.731   7.147  17.526  0.00  0.00    +0.000 A 
BRANCH  13  16
ATOM     16  N   UNL     1       1.304   9.867  18.585  0.00  0.00    +0.000 N 
BRANCH  16  17
ATOM     17  C   UNL     1      -0.109   9.893  19.029  0.00  0.00    +0.000 C 
ATOM     18  C   UNL     1      -1.161  10.173  17.954  0.00  0.00    +0.000 C 
ENDBRANCH  16  17
BRANCH  16  19
ATOM     19  C   UNL     1       1.897  11.138  18.131  0.00  0.00    +0.000 C 
ATOM     20  C   UNL     1       1.691  12.221  19.180  0.00  0.00    +0.000 C 
ENDBRANCH  16  19
ENDBRANCH  13  16
ENDBRANCH   8  10
BRANCH   1  21
ATOM     21  C   UNL     1       6.401   5.501  19.006  0.00  0.00    +0.000 C 
ATOM     22  O   UNL     1       6.705   4.882  20.038  0.00  0.00    +0.000 OA
BRANCH  21  23
ATOM     23  O   UNL     1       6.836   6.831  18.937  0.00  0.00    +0.000 OA
BRANCH  23  25
ATOM     24  C   UNL     1       8.230   9.111  17.703  0.00  0.00    +0.000 C 
ATOM     25  C   UNL     1       7.706   7.595  17.798  0.00  0.00    +0.000 C 
ENDBRANCH  23  25
ENDBRANCH  21  23
ENDBRANCH   1  21
BRANCH   7  26
ATOM     26  C   UNL     1       4.116   2.511  20.233  0.00  0.00    +0.000 C 
ATOM     27  O   UNL     1       5.222   1.977  20.256  0.00  0.00    +0.000 OA
BRANCH  26  28
ATOM     28  O   UNL     1       3.302   2.580  21.356  0.00  0.00    +0.000 OA
BRANCH  28  29
ATOM     29  C   UNL     1       2.170   3.547  21.617  0.00  0.00    +0.000 C 
ATOM     30  C   UNL     1       0.889   3.494  20.766  0.00  0.00    +0.000 C 
ENDBRANCH  28  29
ENDBRANCH  26  28
ENDBRANCH   7  26
TORSDOF 10
ENDMDL
MODEL 3
REMARK VINA RESULT:      -6.9      0.390      1.123
REMARK  Name = 
REMARK  16 active torsions:
REMARK  status: ('A' for Active; 'I' for Inactive)
REMARK    1  A    between atoms: C_1  and  C_2
REMARK    2  A    between atoms: C_2  and  O_3
REMARK    3  A    between atoms: O_3  and  C_4
REMARK    4  A    between atoms: C_4  and  C_6
REMARK    5  A    between atoms: C_7  and  C_8
REMARK    6  A    between atoms: C_10  and  C_11
REMARK    7  A    between atoms: C_12  and  C_13
REMARK    8  A    between atoms: C_13  and  O_15
REMARK    9  A    between atoms: O_15  and  C_16
REMARK   10  A    between atoms: C_16  and  C_17
REMARK   11  A    between atoms: C_18  and  C_19
REMARK   12  A    between atoms: C_22  and  N_23
REMARK   13  A    between atoms: N_23  and  C_24
REMARK   14  A    between atoms: N_23  and  C_26
REMARK   15  A    between atoms: C_24  and  C_25
REMARK   16  A    between atoms: C_26  and  C_27
REMARK                            x       y       z     vdW  Elec       q    Type
REMARK                         _______ _______ _______ _____ _____    ______ ____
ROOT
ATOM      1  C   UNL     1       3.729   3.631  18.516  0.00  0.00    +0.000 C 
ATOM      2  C   UNL     1       4.861   3.651  19.392  0.00  0.00    +0.000 C 
ATOM      3  C   UNL     1       5.115   2.701  20.583  0.00  0.00    +0.000 C 
ATOM      4  N   UNL     1       6.025   4.582  19.343  0.00  0.00    +0.000 N 
ATOM      5  C   UNL     1       6.353   5.295  18.179  0.00  0.00    +0.000 C 
ATOM      6  C   UNL     1       7.722   5.857  17.920  0.00  0.00    +0.000 C 
ATOM      7  C   UNL     1       5.325   5.479  17.334  0.00  0.00    +0.000 C 
ATOM      8  C   UNL     1       3.991   5.094  18.005  0.00  0.00    +0.000 C 
ATOM      9  H   UNL     1       6.819   4.369  19.965  0.00  0.00    +0.000 HD
ENDROOT
BRANCH   8  10
ATOM     10  C   UNL     1       3.062   6.078  18.860  0.00  0.00    +0.000 A 
ATOM     11  C   UNL     1       2.643   7.281  18.314  0.00  0.00    +0.000 A 
ATOM     12  C   UNL     1       1.885   8.237  19.032  0.00  0.00    +0.000 A 
ATOM     13  C   UNL     1       1.329   8.030  20.305  0.00  0.00    +0.000 A 
ATOM     14  C   UNL     1       1.563   6.749  20.808  0.00  0.00    +0.000 A 
ATOM     15  C   UNL     1       2.433   5.805  20.127  0.00  0.00    +0.000 A 
BRANCH  13  16
ATOM     16  N   UNL     1       0.696   9.067  20.997  0.00  0.00    +0.000 N 
BRANCH  16  17
ATOM     17  C   UNL     1       0.876  10.516  20.749  0.00  0.00    +0.000 C 
ATOM     18  C   UNL     1      -0.187  11.202  19.889  0.00  0.00    +0.000 C 
ENDBRANCH  16  17
BRANCH  16  19
ATOM     19  C   UNL     1      -0.257   8.670  22.049  0.00  0.00    +0.000 C 
ATOM     20  C   UNL     1      -0.117   9.583  23.259  0.00  0.00    +0.000 C 
ENDBRANCH  16  19
ENDBRANCH  13  16
ENDBRANCH   8  10
BRANCH   1  21
ATOM     21  C   UNL     1       2.288   3.641  17.368  0.00  0.00    +0.000 C 
ATOM     22  O   UNL     1       2.404   3.683  16.134  0.00  0.00    +0.000 OA
BRANCH  21  23
ATOM     23  O   UNL     1       0.980   3.547  17.861  0.00  0.00    +0.000 OA
BRANCH  23  25
ATOM     24  C   UNL     1       1.023   2.659  20.667  0.00  0.00    +0.000 C 
ATOM     25  C   UNL     1       0.407   2.814  19.192  0.00  0.00    +0.000 C 
ENDBRANCH  23  25
ENDBRANCH  21  23
ENDBRANCH   1  21
BRANCH   7  26
ATOM     26  C   UNL     1       5.461   5.325  15.705  0.00  0.00    +0.000 C 
ATOM     27  O   UNL     1       5.294   6.271  14.940  0.00  0.00    +0.000 OA
BRANCH  26  28
ATOM     28  O   UNL     1       5.930   4.093  15.269  0.00  0.00    +0.000 OA
BRANCH  28  29
ATOM     29  C   UNL     1       6.373   3.715  13.874  0.00  0.00    +0.000 C 
ATOM     30  C   UNL     1       5.351   3.647  12.724  0.00  0.00    +0.000 C 
ENDBRANCH  28  29
ENDBRANCH  26  28
ENDBRANCH   7  26
TORSDOF 10
ENDMDL
MODEL 4
REMARK VINA RESULT:      -6.6      2.367      5.179
REMARK  Name = 
REMARK  16 active torsions:
REMARK  status: ('A' for Active; 'I' for Inactive)
REMARK    1  A    between atoms: C_1  and  C_2
REMARK    2  A    between atoms: C_2  and  O_3
REMARK    3  A    between atoms: O_3  and  C_4
REMARK    4  A    between atoms: C_4  and  C_6
REMARK    5  A    between atoms: C_7  and  C_8
REMARK    6  A    between atoms: C_10  and  C_11
REMARK    7  A    between atoms: C_12  and  C_13
REMARK    8  A    between atoms: C_13  and  O_15
REMARK    9  A    between atoms: O_15  and  C_16
REMARK   10  A    between atoms: C_16  and  C_17
REMARK   11  A    between atoms: C_18  and  C_19
REMARK   12  A    between atoms: C_22  and  N_23
REMARK   13  A    between atoms: N_23  and  C_24
REMARK   14  A    between atoms: N_23  and  C_26
REMARK   15  A    between atoms: C_24  and  C_25
REMARK   16  A    between atoms: C_26  and  C_27
REMARK                            x       y       z     vdW  Elec       q    Type
REMARK                         _______ _______ _______ _____ _____    ______ ____
ROOT
ATOM      1  C   UNL     1       5.430   4.758  17.590  0.00  0.00    +0.000 C 
ATOM      2  C   UNL     1       4.690   4.151  16.525  0.00  0.00    +0.000 C 
ATOM      3  C   UNL     1       5.030   4.215  15.020  0.00  0.00    +0.000 C 
ATOM      4  N   UNL     1       3.448   3.334  16.640  0.00  0.00    +0.000 N 
ATOM      5  C   UNL     1       3.077   2.717  17.845  0.00  0.00    +0.000 C 
ATOM      6  C   UNL     1       2.139   1.545  17.912  0.00  0.00    +0.000 C 
ATOM      7  C   UNL     1       3.590   3.296  18.943  0.00  0.00    +0.000 C 
ATOM      8  C   UNL     1       4.229   4.656  18.598  0.00  0.00    +0.000 C 
ATOM      9  H   UNL     1       3.122   2.858  15.786  0.00  0.00    +0.000 HD
ENDROOT
BRANCH   8  10
ATOM     10  C   UNL     1       3.469   6.065  18.587  0.00  0.00    +0.000 A 
ATOM     11  C   UNL     1       2.732   6.460  19.693  0.00  0.00    +0.000 A 
ATOM     12  C   UNL     1       1.972   7.654  19.732  0.00  0.00    +0.000 A 
ATOM     13  C   UNL     1       1.993   8.653  18.745  0.00  0.00    +0.000 A 
ATOM     14  C   UNL     1       2.881   8.381  17.704  0.00  0.00    +0.000 A 
ATOM     15  C   UNL     1       3.577   7.109  17.602  0.00  0.00    +0.000 A 
BRANCH  13  16
ATOM     16  N   UNL     1       1.121   9.745  18.801  0.00  0.00    +0.000 N 
BRANCH  16  17
ATOM     17  C   UNL     1       1.227  10.897  19.725  0.00  0.00    +0.000 C 
ATOM     18  C   UNL     1       0.828  10.648  21.181  0.00  0.00    +0.000 C 
ENDBRANCH  16  17
BRANCH  16  19
ATOM     19  C   UNL     1       0.016   9.754  17.826  0.00  0.00    +0.000 C 
ATOM     20  C   UNL     1      -1.060  10.741  18.259  0.00  0.00    +0.000 C 
ENDBRANCH  16  19
ENDBRANCH  13  16
ENDBRANCH   8  10
BRANCH   1  21
ATOM     21  C   UNL     1       6.352   5.525  18.988  0.00  0.00    +0.000 C 
ATOM     22  O   UNL     1       6.649   4.911  20.024  0.00  0.00    +0.000 OA
BRANCH  21  23
ATOM     23  O   UNL     1       6.807   6.848  18.905  0.00  0.00    +0.000 OA
BRANCH  23  25
ATOM     24  C   UNL     1       8.199   9.094  17.610  0.00  0.00    +0.000 C 
ATOM     25  C   UNL     1       7.512   7.644  17.678  0.00  0.00    +0.000 C 
ENDBRANCH  23  25
ENDBRANCH  21  23
ENDBRANCH   1  21
BRANCH   7  26
ATOM     26  C   UNL     1       4.191   2.443  20.212  0.00  0.00    +0.000 C 
ATOM     27  O   UNL     1       5.263   1.848  20.154  0.00  0.00    +0.000 OA
BRANCH  26  28
ATOM     28  O   UNL     1       3.479   2.575  21.397  0.00  0.00    +0.000 OA
BRANCH  28  29
ATOM     29  C   UNL     1       1.981   2.497  21.587  0.00  0.00    +0.000 C 
ATOM     30  C   UNL     1       1.056   3.518  20.902  0.00  0.00    +0.000 C 
ENDBRANCH  28  29
ENDBRANCH  26  28
ENDBRANCH   7  26
TORSDOF 10
ENDMDL
MODEL 5
REMARK VINA RESULT:      -6.6      2.496      5.283
REMARK  Name = 
REMARK  16 active torsions:
REMARK  status: ('A' for Active; 'I' for Inactive)
REMARK    1  A    between atoms: C_1  and  C_2
REMARK    2  A    between atoms: C_2  and  O_3
REMARK    3  A    between atoms: O_3  and  C_4
REMARK    4  A    between atoms: C_4  and  C_6
REMARK    5  A    between atoms: C_7  and  C_8
REMARK    6  A    between atoms: C_10  and  C_11
REMARK    7  A    between atoms: C_12  and  C_13
REMARK    8  A    between atoms: C_13  and  O_15
REMARK    9  A    between atoms: O_15  and  C_16
REMARK   10  A    between atoms: C_16  and  C_17
REMARK   11  A    between atoms: C_18  and  C_19
REMARK   12  A    between atoms: C_22  and  N_23
REMARK   13  A    between atoms: N_23  and  C_24
REMARK   14  A    between atoms: N_23  and  C_26
REMARK   15  A    between atoms: C_24  and  C_25
REMARK   16  A    between atoms: C_26  and  C_27
REMARK                            x       y       z     vdW  Elec       q    Type
REMARK                         _______ _______ _______ _____ _____    ______ ____
ROOT
ATOM      1  C   UNL     1       5.490   4.826  17.657  0.00  0.00    +0.000 C 
ATOM      2  C   UNL     1       4.759   4.270  16.559  0.00  0.00    +0.000 C 
ATOM      3  C   UNL     1       5.123   4.389  15.062  0.00  0.00    +0.000 C 
ATOM      4  N   UNL     1       3.507   3.464  16.623  0.00  0.00    +0.000 N 
ATOM      5  C   UNL     1       3.111   2.805  17.798  0.00  0.00    +0.000 C 
ATOM      6  C   UNL     1       2.160   1.642  17.805  0.00  0.00    +0.000 C 
ATOM      7  C   UNL     1       3.614   3.334  18.925  0.00  0.00    +0.000 C 
ATOM      8  C   UNL     1       4.272   4.699  18.642  0.00  0.00    +0.000 C 
ATOM      9  H   UNL     1       3.188   3.025  15.746  0.00  0.00    +0.000 HD
ENDROOT
BRANCH   8  10
ATOM     10  C   UNL     1       3.528   6.116  18.676  0.00  0.00    +0.000 A 
ATOM     11  C   UNL     1       3.607   6.963  17.582  0.00  0.00    +0.000 A 
ATOM     12  C   UNL     1       3.041   8.261  17.563  0.00  0.00    +0.000 A 
ATOM     13  C   UNL     1       2.205   8.788  18.561  0.00  0.00    +0.000 A 
ATOM     14  C   UNL     1       1.939   7.884  19.591  0.00  0.00    +0.000 A 
ATOM     15  C   UNL     1       2.605   6.595  19.672  0.00  0.00    +0.000 A 
BRANCH  13  16
ATOM     16  N   UNL     1       1.786  10.121  18.526  0.00  0.00    +0.000 N 
BRANCH  16  17
ATOM     17  C   UNL     1       2.484  11.236  17.846  0.00  0.00    +0.000 C 
ATOM     18  C   UNL     1       2.257  12.637  18.415  0.00  0.00    +0.000 C 
ENDBRANCH  16  17
BRANCH  16  19
ATOM     19  C   UNL     1       0.516  10.429  19.208  0.00  0.00    +0.000 C 
ATOM     20  C   UNL     1      -0.655  10.232  18.256  0.00  0.00    +0.000 C 
ENDBRANCH  16  19
ENDBRANCH  13  16
ENDBRANCH   8  10
BRANCH   1  21
ATOM     21  C   UNL     1       6.399   5.528  19.097  0.00  0.00    +0.000 C 
ATOM     22  O   UNL     1       6.518   4.934  20.180  0.00  0.00    +0.000 OA
BRANCH  21  23
ATOM     23  O   UNL     1       7.048   6.766  19.000  0.00  0.00    +0.000 OA
BRANCH  23  25
ATOM     24  C   UNL     1       8.057   9.092  17.505  0.00  0.00    +0.000 C 
ATOM     25  C   UNL     1       7.608   7.561  17.701  0.00  0.00    +0.000 C 
ENDBRANCH  23  25
ENDBRANCH  21  23
ENDBRANCH   1  21
BRANCH   7  26
ATOM     26  C   UNL     1       4.186   2.425  20.168  0.00  0.00    +0.000 C 
ATOM     27  O   UNL     1       5.237   1.795  20.091  0.00  0.00    +0.000 OA
BRANCH  26  28
ATOM     28  O   UNL     1       3.481   2.549  21.358  0.00  0.00    +0.000 OA
BRANCH  28  29
ATOM     29  C   UNL     1       1.984   2.479  21.555  0.00  0.00    +0.000 C 
ATOM     30  C   UNL     1       1.062   3.523  20.900  0.00  0.00    +0.000 C 
ENDBRANCH  28  29
ENDBRANCH  26  28
ENDBRANCH   7  26
TORSDOF 10
ENDMDL
MODEL 6
REMARK VINA RESULT:      -6.2      2.434      5.173
REMARK  Name = 
REMARK  16 active torsions:
REMARK  status: ('A' for Active; 'I' for Inactive)
REMARK    1  A    between atoms: C_1  and  C_2
REMARK    2  A    between atoms: C_2  and  O_3
REMARK    3  A    between atoms: O_3  and  C_4
REMARK    4  A    between atoms: C_4  and  C_6
REMARK    5  A    between atoms: C_7  and  C_8
REMARK    6  A    between atoms: C_10  and  C_11
REMARK    7  A    between atoms: C_12  and  C_13
REMARK    8  A    between atoms: C_13  and  O_15
REMARK    9  A    between atoms: O_15  and  C_16
REMARK   10  A    between atoms: C_16  and  C_17
REMARK   11  A    between atoms: C_18  and  C_19
REMARK   12  A    between atoms: C_22  and  N_23
REMARK   13  A    between atoms: N_23  and  C_24
REMARK   14  A    between atoms: N_23  and  C_26
REMARK   15  A    between atoms: C_24  and  C_25
REMARK   16  A    between atoms: C_26  and  C_27
REMARK                            x       y       z     vdW  Elec       q    Type
REMARK                         _______ _______ _______ _____ _____    ______ ____
ROOT
ATOM      1  C   UNL     1       5.458   4.823  17.662  0.00  0.00    +0.000 C 
ATOM      2  C   UNL     1       4.714   4.266  16.573  0.00  0.00    +0.000 C 
ATOM      3  C   UNL     1       5.053   4.395  15.072  0.00  0.00    +0.000 C 
ATOM      4  N   UNL     1       3.468   3.451  16.653  0.00  0.00    +0.000 N 
ATOM      5  C   UNL     1       3.095   2.784  17.831  0.00  0.00    +0.000 C 
ATOM      6  C   UNL     1       2.153   1.615  17.847  0.00  0.00    +0.000 C 
ATOM      7  C   UNL     1       3.612   3.312  18.953  0.00  0.00    +0.000 C 
ATOM      8  C   UNL     1       4.257   4.683  18.666  0.00  0.00    +0.000 C 
ATOM      9  H   UNL     1       3.139   3.014  15.779  0.00  0.00    +0.000 HD
ENDROOT
BRANCH   8  10
ATOM     10  C   UNL     1       3.504   6.094  18.718  0.00  0.00    +0.000 A 
ATOM     11  C   UNL     1       3.572   6.953  17.632  0.00  0.00    +0.000 A 
ATOM     12  C   UNL     1       2.997   8.247  17.629  0.00  0.00    +0.000 A 
ATOM     13  C   UNL     1       2.163   8.758  18.637  0.00  0.00    +0.000 A 
ATOM     14  C   UNL     1       1.908   7.843  19.659  0.00  0.00    +0.000 A 
ATOM     15  C   UNL     1       2.583   6.557  19.723  0.00  0.00    +0.000 A 
BRANCH  13  16
ATOM     16  N   UNL     1       1.735  10.089  18.617  0.00  0.00    +0.000 N 
BRANCH  16  17
ATOM     17  C   UNL     1       0.575  10.642  19.355  0.00  0.00    +0.000 C 
ATOM     18  C   UNL     1       0.738  10.804  20.867  0.00  0.00    +0.000 C 
ENDBRANCH  16  17
BRANCH  16  19
ATOM     19  C   UNL     1       2.535  11.026  17.808  0.00  0.00    +0.000 C 
ATOM     20  C   UNL     1       2.334  12.452  18.299  0.00  0.00    +0.000 C 
ENDBRANCH  16  19
ENDBRANCH  13  16
ENDBRANCH   8  10
BRANCH   1  21
ATOM     21  C   UNL     1       6.385   5.524  19.091  0.00  0.00    +0.000 C 
ATOM     22  O   UNL     1       6.585   4.899  20.144  0.00  0.00    +0.000 OA
BRANCH  21  23
ATOM     23  O   UNL     1       6.955   6.802  19.017  0.00  0.00    +0.000 OA
BRANCH  23  25
ATOM     24  C   UNL     1       8.187   9.086  17.630  0.00  0.00    +0.000 C 
ATOM     25  C   UNL     1       7.569   7.609  17.749  0.00  0.00    +0.000 C 
ENDBRANCH  23  25
ENDBRANCH  21  23
ENDBRANCH   1  21
BRANCH   7  26
ATOM     26  C   UNL     1       4.210   2.402  20.182  0.00  0.00    +0.000 C 
ATOM     27  O   UNL     1       5.269   1.787  20.089  0.00  0.00    +0.000 OA
BRANCH  26  28
ATOM     28  O   UNL     1       3.516   2.505  21.380  0.00  0.00    +0.000 OA
BRANCH  28  29
ATOM     29  C   UNL     1       2.019   2.446  21.587  0.00  0.00    +0.000 C 
ATOM     30  C   UNL     1       1.102   3.503  20.946  0.00  0.00    +0.000 C 
ENDBRANCH  28  29
ENDBRANCH  26  28
ENDBRANCH   7  26
TORSDOF 10
ENDMDL
MODEL 7
REMARK VINA RESULT:      -6.2      0.900      1.416
REMARK  Name = 
REMARK  16 active torsions:
REMARK  status: ('A' for Active; 'I' for Inactive)
REMARK    1  A    between atoms: C_1  and  C_2
REMARK    2  A    between atoms: C_2  and  O_3
REMARK    3  A    between atoms: O_3  and  C_4
REMARK    4  A    between atoms: C_4  and  C_6
REMARK    5  A    between atoms: C_7  and  C_8
REMARK    6  A    between atoms: C_10  and  C_11
REMARK    7  A    between atoms: C_12  and  C_13
REMARK    8  A    between atoms: C_13  and  O_15
REMARK    9  A    between atoms: O_15  and  C_16
REMARK   10  A    between atoms: C_16  and  C_17
REMARK   11  A    between atoms: C_18  and  C_19
REMARK   12  A    between atoms: C_22  and  N_23
REMARK   13  A    between atoms: N_23  and  C_24
REMARK   14  A    between atoms: N_23  and  C_26
REMARK   15  A    between atoms: C_24  and  C_25
REMARK   16  A    between atoms: C_26  and  C_27
REMARK                            x       y       z     vdW  Elec       q    Type
REMARK                         _______ _______ _______ _____ _____    ______ ____
ROOT
ATOM      1  C   UNL     1       3.672   3.283  18.463  0.00  0.00    +0.000 C 
ATOM      2  C   UNL     1       4.734   3.293  19.422  0.00  0.00    +0.000 C 
ATOM      3  C   UNL     1       4.764   2.529  20.764  0.00  0.00    +0.000 C 
ATOM      4  N   UNL     1       6.025   4.034  19.332  0.00  0.00    +0.000 N 
ATOM      5  C   UNL     1       6.532   4.491  18.105  0.00  0.00    +0.000 C 
ATOM      6  C   UNL     1       7.984   4.808  17.885  0.00  0.00    +0.000 C 
ATOM      7  C   UNL     1       5.600   4.671  17.154  0.00  0.00    +0.000 C 
ATOM      8  C   UNL     1       4.183   4.591  17.756  0.00  0.00    +0.000 C 
ATOM      9  H   UNL     1       6.736   3.821  20.047  0.00  0.00    +0.000 HD
ENDROOT
BRANCH   8  10
ATOM     10  C   UNL     1       3.358   5.821  18.362  0.00  0.00    +0.000 A 
ATOM     11  C   UNL     1       2.884   5.760  19.663  0.00  0.00    +0.000 A 
ATOM     12  C   UNL     1       2.084   6.773  20.246  0.00  0.00    +0.000 A 
ATOM     13  C   UNL     1       1.808   8.018  19.657  0.00  0.00    +0.000 A 
ATOM     14  C   UNL     1       2.438   8.196  18.423  0.00  0.00    +0.000 A 
ATOM     15  C   UNL     1       3.165   7.121  17.771  0.00  0.00    +0.000 A 
BRANCH  13  16
ATOM     16  N   UNL     1       0.911   8.915  20.244  0.00  0.00    +0.000 N 
BRANCH  16  17
ATOM     17  C   UNL     1       0.133   8.683  21.482  0.00  0.00    +0.000 C 
ATOM     18  C   UNL     1       0.632   9.384  22.747  0.00  0.00    +0.000 C 
ENDBRANCH  16  17
BRANCH  16  19
ATOM     19  C   UNL     1       0.753  10.219  19.576  0.00  0.00    +0.000 C 
ATOM     20  C   UNL     1      -0.618  10.313  18.920  0.00  0.00    +0.000 C 
ENDBRANCH  16  19
ENDBRANCH  13  16
ENDBRANCH   8  10
BRANCH   1  21
ATOM     21  C   UNL     1       2.326   3.300  17.205  0.00  0.00    +0.000 C 
ATOM     22  O   UNL     1       2.537   3.227  15.984  0.00  0.00    +0.000 OA
BRANCH  21  23
ATOM     23  O   UNL     1       0.981   3.344  17.594  0.00  0.00    +0.000 OA
BRANCH  23  25
ATOM     24  C   UNL     1       0.949   2.856  20.497  0.00  0.00    +0.000 C 
ATOM     25  C   UNL     1       0.300   3.117  19.051  0.00  0.00    +0.000 C 
ENDBRANCH  23  25
ENDBRANCH  21  23
ENDBRANCH   1  21
BRANCH   7  26
ATOM     26  C   UNL     1       5.817   4.231  15.587  0.00  0.00    +0.000 C 
ATOM     27  O   UNL     1       5.513   3.117  15.170  0.00  0.00    +0.000 OA
BRANCH  26  28
ATOM     28  O   UNL     1       6.219   5.255  14.740  0.00  0.00    +0.000 OA
BRANCH  28  29
ATOM     29  C   UNL     1       7.315   5.216  13.700  0.00  0.00    +0.000 C 
ATOM     30  C   UNL     1       7.128   4.412  12.401  0.00  0.00    +0.000 C 
ENDBRANCH  28  29
ENDBRANCH  26  28
ENDBRANCH   7  26
TORSDOF 10
ENDMDL
MODEL 8
REMARK VINA RESULT:      -6.0      0.743      1.731
REMARK  Name = 
REMARK  16 active torsions:
REMARK  status: ('A' for Active; 'I' for Inactive)
REMARK    1  A    between atoms: C_1  and  C_2
REMARK    2  A    between atoms: C_2  and  O_3
REMARK    3  A    between atoms: O_3  and  C_4
REMARK    4  A    between atoms: C_4  and  C_6
REMARK    5  A    between atoms: C_7  and  C_8
REMARK    6  A    between atoms: C_10  and  C_11
REMARK    7  A    between atoms: C_12  and  C_13
REMARK    8  A    between atoms: C_13  and  O_15
REMARK    9  A    between atoms: O_15  and  C_16
REMARK   10  A    between atoms: C_16  and  C_17
REMARK   11  A    between atoms: C_18  and  C_19
REMARK   12  A    between atoms: C_22  and  N_23
REMARK   13  A    between atoms: N_23  and  C_24
REMARK   14  A    between atoms: N_23  and  C_26
REMARK   15  A    between atoms: C_24  and  C_25
REMARK   16  A    between atoms: C_26  and  C_27
REMARK                            x       y       z     vdW  Elec       q    Type
REMARK                         _______ _______ _______ _____ _____    ______ ____
ROOT
ATOM      1  C   UNL     1       3.598   3.322  18.478  0.00  0.00    +0.000 C 
ATOM      2  C   UNL     1       4.715   3.306  19.373  0.00  0.00    +0.000 C 
ATOM      3  C   UNL     1       4.827   2.499  20.684  0.00  0.00    +0.000 C 
ATOM      4  N   UNL     1       5.997   4.055  19.231  0.00  0.00    +0.000 N 
ATOM      5  C   UNL     1       6.428   4.554  17.991  0.00  0.00    +0.000 C 
ATOM      6  C   UNL     1       7.863   4.885  17.696  0.00  0.00    +0.000 C 
ATOM      7  C   UNL     1       5.441   4.761  17.104  0.00  0.00    +0.000 C 
ATOM      8  C   UNL     1       4.062   4.655  17.785  0.00  0.00    +0.000 C 
ATOM      9  H   UNL     1       6.749   3.823  19.895  0.00  0.00    +0.000 HD
ENDROOT
BRANCH   8  10
ATOM     10  C   UNL     1       3.272   5.861  18.479  0.00  0.00    +0.000 A 
ATOM     11  C   UNL     1       2.911   5.772  19.815  0.00  0.00    +0.000 A 
ATOM     12  C   UNL     1       2.147   6.762  20.480  0.00  0.00    +0.000 A 
ATOM     13  C   UNL     1       1.801   8.010  19.936  0.00  0.00    +0.000 A 
ATOM     14  C   UNL     1       2.320   8.218  18.657  0.00  0.00    +0.000 A 
ATOM     15  C   UNL     1       3.007   7.165  17.928  0.00  0.00    +0.000 A 
BRANCH  13  16
ATOM     16  N   UNL     1       0.942   8.882  20.612  0.00  0.00    +0.000 N 
BRANCH  16  17
ATOM     17  C   UNL     1      -0.102   9.730  19.992  0.00  0.00    +0.000 C 
ATOM     18  C   UNL     1       0.349  11.091  19.459  0.00  0.00    +0.000 C 
ENDBRANCH  16  17
BRANCH  16  19
ATOM     19  C   UNL     1       1.076   8.932  22.079  0.00  0.00    +0.000 C 
ATOM     20  C   UNL     1      -0.267   9.249  22.721  0.00  0.00    +0.000 C 
ENDBRANCH  16  19
ENDBRANCH  13  16
ENDBRANCH   8  10
BRANCH   1  21
ATOM     21  C   UNL     1       2.180   3.374  17.303  0.00  0.00    +0.000 C 
ATOM     22  O   UNL     1       2.317   3.324  16.071  0.00  0.00    +0.000 OA
BRANCH  21  23
ATOM     23  O   UNL     1       0.861   3.419  17.773  0.00  0.00    +0.000 OA
BRANCH  23  25
ATOM     24  C   UNL     1       0.975   2.855  20.660  0.00  0.00    +0.000 C 
ATOM     25  C   UNL     1       0.279   3.308  19.285  0.00  0.00    +0.000 C 
ENDBRANCH  23  25
ENDBRANCH  21  23
ENDBRANCH   1  21
BRANCH   7  26
ATOM     26  C   UNL     1       5.566   4.373  15.513  0.00  0.00    +0.000 C 
ATOM     27  O   UNL     1       5.046   3.366  15.040  0.00  0.00    +0.000 OA
BRANCH  26  28
ATOM     28  O   UNL     1       6.164   5.342  14.718  0.00  0.00    +0.000 OA
BRANCH  28  29
ATOM     29  C   UNL     1       7.312   5.162  13.751  0.00  0.00    +0.000 C 
ATOM     30  C   UNL     1       7.122   4.346  12.460  0.00  0.00    +0.000 C 
ENDBRANCH  28  29
ENDBRANCH  26  28
ENDBRANCH   7  26
TORSDOF 10
ENDMDL
MODEL 9
REMARK VINA RESULT:      -6.0      0.945      1.946
REMARK  Name = 
REMARK  16 active torsions:
REMARK  status: ('A' for Active; 'I' for Inactive)
REMARK    1  A    between atoms: C_1  and  C_2
REMARK    2  A    between atoms: C_2  and  O_3
REMARK    3  A    between atoms: O_3  and  C_4
REMARK    4  A    between atoms: C_4  and  C_6
REMARK    5  A    between atoms: C_7  and  C_8
REMARK    6  A    between atoms: C_10  and  C_11
REMARK    7  A    between atoms: C_12  and  C_13
REMARK    8  A    between atoms: C_13  and  O_15
REMARK    9  A    between atoms: O_15  and  C_16
REMARK   10  A    between atoms: C_16  and  C_17
REMARK   11  A    between atoms: C_18  and  C_19
REMARK   12  A    between atoms: C_22  and  N_23
REMARK   13  A    between atoms: N_23  and  C_24
REMARK   14  A    between atoms: N_23  and  C_26
REMARK   15  A    between atoms: C_24  and  C_25
REMARK   16  A    between atoms: C_26  and  C_27
REMARK                            x       y       z     vdW  Elec       q    Type
REMARK                         _______ _______ _______ _____ _____    ______ ____
ROOT
ATOM      1  C   UNL     1       3.594   3.044  18.623  0.00  0.00    +0.000 C 
ATOM      2  C   UNL     1       4.697   2.969  19.532  0.00  0.00    +0.000 C 
ATOM      3  C   UNL     1       4.806   2.047  20.766  0.00  0.00    +0.000 C 
ATOM      4  N   UNL     1       5.963   3.755  19.482  0.00  0.00    +0.000 N 
ATOM      5  C   UNL     1       6.403   4.375  18.301  0.00  0.00    +0.000 C 
ATOM      6  C   UNL     1       7.834   4.762  18.063  0.00  0.00    +0.000 C 
ATOM      7  C   UNL     1       5.425   4.641  17.419  0.00  0.00    +0.000 C 
ATOM      8  C   UNL     1       4.038   4.444  18.063  0.00  0.00    +0.000 C 
ATOM      9  H   UNL     1       6.710   3.478  20.136  0.00  0.00    +0.000 HD
ENDROOT
BRANCH   8  10
ATOM     10  C   UNL     1       3.210   5.564  18.851  0.00  0.00    +0.000 A 
ATOM     11  C   UNL     1       2.800   6.711  18.190  0.00  0.00    +0.000 A 
ATOM     12  C   UNL     1       2.131   7.780  18.834  0.00  0.00    +0.000 A 
ATOM     13  C   UNL     1       1.658   7.753  20.157  0.00  0.00    +0.000 A 
ATOM     14  C   UNL     1       1.878   6.531  20.795  0.00  0.00    +0.000 A 
ATOM     15  C   UNL     1       2.662   5.473  20.180  0.00  0.00    +0.000 A 
BRANCH  13  16
ATOM     16  N   UNL     1       1.115   8.893  20.756  0.00  0.00    +0.000 N 
BRANCH  16  17
ATOM     17  C   UNL     1       0.279   9.915  20.086  0.00  0.00    +0.000 C 
ATOM     18  C   UNL     1       0.990  11.187  19.622  0.00  0.00    +0.000 C 
ENDBRANCH  16  17
BRANCH  16  19
ATOM     19  C   UNL     1       1.382   9.070  22.195  0.00  0.00    +0.000 C 
ATOM     20  C   UNL     1       0.104   9.458  22.925  0.00  0.00    +0.000 C 
ENDBRANCH  16  19
ENDBRANCH  13  16
ENDBRANCH   8  10
BRANCH   1  21
ATOM     21  C   UNL     1       2.194   3.173  17.432  0.00  0.00    +0.000 C 
ATOM     22  O   UNL     1       2.349   3.199  16.201  0.00  0.00    +0.000 OA
BRANCH  21  23
ATOM     23  O   UNL     1       0.868   3.194  17.885  0.00  0.00    +0.000 OA
BRANCH  23  25
ATOM     24  C   UNL     1       0.964   2.806  20.801  0.00  0.00    +0.000 C 
ATOM     25  C   UNL     1       0.256   2.914  19.363  0.00  0.00    +0.000 C 
ENDBRANCH  23  25
ENDBRANCH  21  23
ENDBRANCH   1  21
BRANCH   7  26
ATOM     26  C   UNL     1       5.584   4.404  15.802  0.00  0.00    +0.000 C 
ATOM     27  O   UNL     1       5.642   3.283  15.306  0.00  0.00    +0.000 OA
BRANCH  26  28
ATOM     28  O   UNL     1       5.488   5.553  15.029  0.00  0.00    +0.000 OA
BRANCH  28  29
ATOM     29  C   UNL     1       5.133   6.949  15.489  0.00  0.00    +0.000 C 
ATOM     30  C   UNL     1       5.889   7.598  16.662  0.00  0.00    +0.000 C 
ENDBRANCH  28  29
ENDBRANCH  26  28
ENDBRANCH   7  26
TORSDOF 10
ENDMDL
