MODEL 1
REMARK VINA RESULT:      -7.4      0.000      0.000
REMARK  Name = 
REMARK  13 active torsions:
REMARK  status: ('A' for Active; 'I' for Inactive)
REMARK    1  A    between atoms: C_1  and  O_2
REMARK    2  A    between atoms: O_2  and  C_3
REMARK    3  A    between atoms: C_6  and  S_7
REMARK    4  A    between atoms: S_7  and  N_10
REMARK    5  A    between atoms: N_10  and  C_11
REMARK    6  A    between atoms: N_10  and  C_19
REMARK    7  A    between atoms: C_11  and  C_12
REMARK    8  A    between atoms: C_12  and  C_13
REMARK    9  A    between atoms: C_19  and  C_20
REMARK   10  A    between atoms: N_22  and  C_23
REMARK   11  A    between atoms: C_23  and  C_24
REMARK   12  A    between atoms: C_24  and  C_25
REMARK   13  A    between atoms: C_25  and  O_26
REMARK                            x       y       z     vdW  Elec       q    Type
REMARK                         _______ _______ _______ _____ _____    ______ ____
ROOT
ATOM      1  N   UNL     1       5.766   4.088  17.454  0.00  0.00    +0.000 NA
ENDROOT
BRANCH   1   2
ATOM      2  S   UNL     1       5.883   5.480  18.493  0.00  0.00    +0.000 S 
ATOM      3  O   UNL     1       6.859   6.363  17.891  0.00  0.00    +0.000 OA
ATOM      4  O   UNL     1       6.052   5.003  19.849  0.00  0.00    +0.000 OA
BRANCH   2   8
ATOM      5  C   UNL     1       2.114   8.023  18.663  0.00  0.00    +0.000 A 
ATOM      6  C   UNL     1       2.322   7.025  19.622  0.00  0.00    +0.000 A 
ATOM      7  C   UNL     1       3.427   6.172  19.532  0.00  0.00    +0.000 A 
ATOM      8  C   UNL     1       4.308   6.301  18.455  0.00  0.00    +0.000 A 
ATOM      9  C   UNL     1       4.082   7.268  17.474  0.00  0.00    +0.000 A 
ATOM     10  C   UNL     1       2.982   8.123  17.576  0.00  0.00    +0.000 A 
BRANCH   5  12
ATOM     11  C   UNL     1       0.922   9.395  20.174  0.00  0.00    +0.000 C 
ATOM     12  O   UNL     1       1.027   8.828  18.869  0.00  0.00    +0.000 OA
ENDBRANCH   5  12
ENDBRANCH   2   8
ENDBRANCH   1   2
BRANCH   1  13
ATOM     13  C   UNL     1       4.389   3.895  16.836  0.00  0.00    +0.000 C 
BRANCH  13  14
ATOM     14  C   UNL     1       3.692   2.617  17.349  0.00  0.00    +0.000 C 
BRANCH  14  15
ATOM     15  C   UNL     1       2.860   2.781  18.598  0.00  0.00    +0.000 A 
ATOM     16  C   UNL     1       3.442   2.562  19.859  0.00  0.00    +0.000 A 
ATOM     17  C   UNL     1       2.718   2.790  21.030  0.00  0.00    +0.000 A 
ATOM     18  C   UNL     1       1.401   3.237  20.956  0.00  0.00    +0.000 A 
ATOM     19  C   UNL     1       0.811   3.453  19.711  0.00  0.00    +0.000 A 
ATOM     20  C   UNL     1       1.536   3.228  18.537  0.00  0.00    +0.000 A 
ENDBRANCH  14  15
ENDBRANCH  13  14
ENDBRANCH   1  13
BRANCH   1  21
ATOM     21  C   UNL     1       6.813   4.214  16.360  0.00  0.00    +0.000 C 
BRANCH  21  22
ATOM     22  C   UNL     1       6.338   4.656  14.993  0.00  0.00    +0.000 C 
ATOM     23  O   UNL     1       5.780   5.737  14.810  0.00  0.00    +0.000 OA
ATOM     24  N   UNL     1       6.427   3.680  14.026  0.00  0.00    +0.000 N 
ATOM     25  H   UNL     1       7.099   2.941  14.201  0.00  0.00    +0.000 HD
BRANCH  24  26
ATOM     26  C   UNL     1       6.074   3.964  12.649  0.00  0.00    +0.000 C 
BRANCH  26  27
ATOM     27  C   UNL     1       5.113   2.928  12.079  0.00  0.00    +0.000 C 
BRANCH  27  28
ATOM     28  C   UNL     1       5.796   1.759  11.376  0.00  0.00    +0.000 C 
BRANCH  28  29
ATOM     29  O   UNL     1       7.209   1.860  11.467  0.00  0.00    +0.000 OA
ATOM     30  H   UNL     1       7.400   2.421  12.252  0.00  0.00    +0.000 HD
ENDBRANCH  28  29
ENDBRANCH  27  28
ENDBRANCH  26  27
ENDBRANCH  24  26
ENDBRANCH  21  22
ENDBRANCH   1  21
TORSDOF 12
ENDMDL
MODEL 2
REMARK VINA RESULT:      -7.3      1.014      1.534
REMARK  Name = 
REMARK  13 active torsions:
REMARK  status: ('A' for Active; 'I' for Inactive)
REMARK    1  A    between atoms: C_1  and  O_2
REMARK    2  A    between atoms: O_2  and  C_3
REMARK    3  A    between atoms: C_6  and  S_7
REMARK    4  A    between atoms: S_7  and  N_10
REMARK    5  A    between atoms: N_10  and  C_11
REMARK    6  A    between atoms: N_10  and  C_19
REMARK    7  A    between atoms: C_11  and  C_12
REMARK    8  A    between atoms: C_12  and  C_13
REMARK    9  A    between atoms: C_19  and  C_20
REMARK   10  A    between atoms: N_22  and  C_23
REMARK   11  A    between atoms: C_23  and  C_24
REMARK   12  A    between atoms: C_24  and  C_25
REMARK   13  A    between atoms: C_25  and  O_26
REMARK                            x       y       z     vdW  Elec       q    Type
REMARK                         _______ _______ _______ _____ _____    ______ ____
ROOT
ATOM      1  N   UNL     1       5.323   4.756  17.338  0.00  0.00    +0.000 NA
ENDROOT
BRANCH   1   2
ATOM      2  S   UNL     1       5.087   6.439  16.961  0.00  0.00    +0.000 S 
ATOM      3  O   UNL     1       4.793   6.507  15.544  0.00  0.00    +0.000 OA
ATOM      4  O   UNL     1       6.199   7.176  17.522  0.00  0.00    +0.000 OA
BRANCH   2   8
ATOM      5  C   UNL     1       1.743   8.198  19.495  0.00  0.00    +0.000 A 
ATOM      6  C   UNL     1       2.346   6.996  19.879  0.00  0.00    +0.000 A 
ATOM      7  C   UNL     1       3.310   6.391  19.065  0.00  0.00    +0.000 A 
ATOM      8  C   UNL     1       3.645   6.982  17.843  0.00  0.00    +0.000 A 
ATOM      9  C   UNL     1       3.015   8.160  17.437  0.00  0.00    +0.000 A 
ATOM     10  C   UNL     1       2.061   8.763  18.260  0.00  0.00    +0.000 A 
BRANCH   5  12
ATOM     11  C   UNL     1       1.216   8.630  21.758  0.00  0.00    +0.000 C 
ATOM     12  O   UNL     1       0.845   8.724  20.384  0.00  0.00    +0.000 OA
ENDBRANCH   5  12
ENDBRANCH   2   8
ENDBRANCH   1   2
BRANCH   1  13
ATOM     13  C   UNL     1       4.254   3.841  16.760  0.00  0.00    +0.000 C 
BRANCH  13  14
ATOM     14  C   UNL     1       3.976   2.623  17.667  0.00  0.00    +0.000 C 
BRANCH  14  15
ATOM     15  C   UNL     1       3.037   2.868  18.824  0.00  0.00    +0.000 A 
ATOM     16  C   UNL     1       1.681   3.146  18.577  0.00  0.00    +0.000 A 
ATOM     17  C   UNL     1       0.778   3.292  19.630  0.00  0.00    +0.000 A 
ATOM     18  C   UNL     1       1.219   3.163  20.945  0.00  0.00    +0.000 A 
ATOM     19  C   UNL     1       2.562   2.892  21.203  0.00  0.00    +0.000 A 
ATOM     20  C   UNL     1       3.467   2.743  20.149  0.00  0.00    +0.000 A 
ENDBRANCH  14  15
ENDBRANCH  13  14
ENDBRANCH   1  13
BRANCH   1  21
ATOM     21  C   UNL     1       6.694   4.338  16.832  0.00  0.00    +0.000 C 
BRANCH  21  22
ATOM     22  C   UNL     1       6.980   4.535  15.360  0.00  0.00    +0.000 C 
ATOM     23  O   UNL     1       7.674   5.462  14.945  0.00  0.00    +0.000 OA
ATOM     24  N   UNL     1       6.261   3.702  14.532  0.00  0.00    +0.000 N 
ATOM     25  H   UNL     1       5.921   2.845  14.952  0.00  0.00    +0.000 HD
BRANCH  24  26
ATOM     26  C   UNL     1       6.469   3.720  13.098  0.00  0.00    +0.000 C 
BRANCH  26  27
ATOM     27  C   UNL     1       5.212   3.327  12.332  0.00  0.00    +0.000 C 
BRANCH  27  28
ATOM     28  C   UNL     1       5.408   2.171  11.357  0.00  0.00    +0.000 C 
BRANCH  28  29
ATOM     29  O   UNL     1       6.653   1.522  11.573  0.00  0.00    +0.000 OA
ATOM     30  H   UNL     1       6.664   1.243  12.516  0.00  0.00    +0.000 HD
ENDBRANCH  28  29
ENDBRANCH  27  28
ENDBRANCH  26  27
ENDBRANCH  24  26
ENDBRANCH  21  22
ENDBRANCH   1  21
TORSDOF 12
ENDMDL
MODEL 3
REMARK VINA RESULT:      -7.2      0.609      1.127
REMARK  Name = 
REMARK  13 active torsions:
REMARK  status: ('A' for Active; 'I' for Inactive)
REMARK    1  A    between atoms: C_1  and  O_2
REMARK    2  A    between atoms: O_2  and  C_3
REMARK    3  A    between atoms: C_6  and  S_7
REMARK    4  A    between atoms: S_7  and  N_10
REMARK    5  A    between atoms: N_10  and  C_11
REMARK    6  A    between atoms: N_10  and  C_19
REMARK    7  A    between atoms: C_11  and  C_12
REMARK    8  A    between atoms: C_12  and  C_13
REMARK    9  A    between atoms: C_19  and  C_20
REMARK   10  A    between atoms: N_22  and  C_23
REMARK   11  A    between atoms: C_23  and  C_24
REMARK   12  A    between atoms: C_24  and  C_25
REMARK   13  A    between atoms: C_25  and  O_26
REMARK                            x       y       z     vdW  Elec       q    Type
REMARK                         _______ _______ _______ _____ _____    ______ ____
ROOT
ATOM      1  N   UNL     1       5.765   4.070  17.487  0.00  0.00    +0.000 NA
ENDROOT
BRANCH   1   2
ATOM      2  S   UNL     1       5.909   5.472  18.510  0.00  0.00    +0.000 S 
ATOM      3  O   UNL     1       6.854   6.358  17.864  0.00  0.00    +0.000 OA
ATOM      4  O   UNL     1       6.135   5.007  19.861  0.00  0.00    +0.000 OA
BRANCH   2   8
ATOM      5  C   UNL     1       2.124   7.977  18.822  0.00  0.00    +0.000 A 
ATOM      6  C   UNL     1       2.363   6.961  19.755  0.00  0.00    +0.000 A 
ATOM      7  C   UNL     1       3.474   6.120  19.621  0.00  0.00    +0.000 A 
ATOM      8  C   UNL     1       4.327   6.279  18.526  0.00  0.00    +0.000 A 
ATOM      9  C   UNL     1       4.069   7.264  17.571  0.00  0.00    +0.000 A 
ATOM     10  C   UNL     1       2.964   8.107  17.716  0.00  0.00    +0.000 A 
BRANCH   5  12
ATOM     11  C   UNL     1       0.890   9.898  18.212  0.00  0.00    +0.000 C 
ATOM     12  O   UNL     1       1.035   8.768  19.070  0.00  0.00    +0.000 OA
ENDBRANCH   5  12
ENDBRANCH   2   8
ENDBRANCH   1   2
BRANCH   1  13
ATOM     13  C   UNL     1       4.366   3.861  16.925  0.00  0.00    +0.000 C 
BRANCH  13  14
ATOM     14  C   UNL     1       3.684   2.605  17.508  0.00  0.00    +0.000 C 
BRANCH  14  15
ATOM     15  C   UNL     1       2.929   2.809  18.800  0.00  0.00    +0.000 A 
ATOM     16  C   UNL     1       1.580   3.204  18.765  0.00  0.00    +0.000 A 
ATOM     17  C   UNL     1       0.838   3.316  19.942  0.00  0.00    +0.000 A 
ATOM     18  C   UNL     1       1.436   3.038  21.168  0.00  0.00    +0.000 A 
ATOM     19  C   UNL     1       2.774   2.650  21.216  0.00  0.00    +0.000 A 
ATOM     20  C   UNL     1       3.518   2.535  20.038  0.00  0.00    +0.000 A 
ENDBRANCH  14  15
ENDBRANCH  13  14
ENDBRANCH   1  13
BRANCH   1  21
ATOM     21  C   UNL     1       6.766   4.198  16.351  0.00  0.00    +0.000 C 
BRANCH  21  22
ATOM     22  C   UNL     1       6.230   4.594  14.994  0.00  0.00    +0.000 C 
ATOM     23  O   UNL     1       5.760   5.709  14.774  0.00  0.00    +0.000 OA
ATOM     24  N   UNL     1       6.155   3.553  14.094  0.00  0.00    +0.000 N 
ATOM     25  H   UNL     1       6.768   2.766  14.275  0.00  0.00    +0.000 HD
BRANCH  24  26
ATOM     26  C   UNL     1       5.724   3.780  12.730  0.00  0.00    +0.000 C 
BRANCH  26  27
ATOM     27  C   UNL     1       6.847   3.542  11.728  0.00  0.00    +0.000 C 
BRANCH  27  28
ATOM     28  C   UNL     1       7.175   2.071  11.492  0.00  0.00    +0.000 C 
BRANCH  28  29
ATOM     29  O   UNL     1       6.010   1.264  11.581  0.00  0.00    +0.000 OA
ATOM     30  H   UNL     1       5.981   0.913  12.499  0.00  0.00    +0.000 HD
ENDBRANCH  28  29
ENDBRANCH  27  28
ENDBRANCH  26  27
ENDBRANCH  24  26
ENDBRANCH  21  22
ENDBRANCH   1  21
TORSDOF 12
ENDMDL
MODEL 4
REMARK VINA RESULT:      -7.1      1.271      1.360
REMARK  Name = 
REMARK  13 active torsions:
REMARK  status: ('A' for Active; 'I' for Inactive)
REMARK    1  A    between atoms: C_1  and  O_2
REMARK    2  A    between atoms: O_2  and  C_3
REMARK    3  A    between atoms: C_6  and  S_7
REMARK    4  A    between atoms: S_7  and  N_10
REMARK    5  A    between atoms: N_10  and  C_11
REMARK    6  A    between atoms: N_10  and  C_19
REMARK    7  A    between atoms: C_11  and  C_12
REMARK    8  A    between atoms: C_12  and  C_13
REMARK    9  A    between atoms: C_19  and  C_20
REMARK   10  A    between atoms: N_22  and  C_23
REMARK   11  A    between atoms: C_23  and  C_24
REMARK   12  A    between atoms: C_24  and  C_25
REMARK   13  A    between atoms: C_25  and  O_26
REMARK                            x       y       z     vdW  Elec       q    Type
REMARK                         _______ _______ _______ _____ _____    ______ ____
ROOT
ATOM      1  N   UNL     1       4.801   4.426  16.832  0.00  0.00    +0.000 NA
ENDROOT
BRANCH   1   2
ATOM      2  S   UNL     1       5.183   5.540  18.114  0.00  0.00    +0.000 S 
ATOM      3  O   UNL     1       6.180   6.449  17.588  0.00  0.00    +0.000 OA
ATOM      4  O   UNL     1       5.446   4.764  19.307  0.00  0.00    +0.000 OA
BRANCH   2   8
ATOM      5  C   UNL     1       1.769   8.322  19.253  0.00  0.00    +0.000 A 
ATOM      6  C   UNL     1       2.029   7.189  20.031  0.00  0.00    +0.000 A 
ATOM      7  C   UNL     1       3.014   6.272  19.645  0.00  0.00    +0.000 A 
ATOM      8  C   UNL     1       3.715   6.479  18.454  0.00  0.00    +0.000 A 
ATOM      9  C   UNL     1       3.429   7.587  17.654  0.00  0.00    +0.000 A 
ATOM     10  C   UNL     1       2.452   8.503  18.050  0.00  0.00    +0.000 A 
BRANCH   5  12
ATOM     11  C   UNL     1       0.414  10.219  18.858  0.00  0.00    +0.000 C 
ATOM     12  O   UNL     1       0.816   9.174  19.743  0.00  0.00    +0.000 OA
ENDBRANCH   5  12
ENDBRANCH   2   8
ENDBRANCH   1   2
BRANCH   1  13
ATOM     13  C   UNL     1       3.370   3.912  16.871  0.00  0.00    +0.000 C 
BRANCH  13  14
ATOM     14  C   UNL     1       3.244   2.594  17.665  0.00  0.00    +0.000 C 
BRANCH  14  15
ATOM     15  C   UNL     1       2.544   2.697  18.999  0.00  0.00    +0.000 A 
ATOM     16  C   UNL     1       3.274   2.508  20.186  0.00  0.00    +0.000 A 
ATOM     17  C   UNL     1       2.668   2.682  21.432  0.00  0.00    +0.000 A 
ATOM     18  C   UNL     1       1.326   3.045  21.506  0.00  0.00    +0.000 A 
ATOM     19  C   UNL     1       0.591   3.231  20.336  0.00  0.00    +0.000 A 
ATOM     20  C   UNL     1       1.197   3.059  19.087  0.00  0.00    +0.000 A 
ENDBRANCH  14  15
ENDBRANCH  13  14
ENDBRANCH   1  13
BRANCH   1  21
ATOM     21  C   UNL     1       5.070   5.112  15.503  0.00  0.00    +0.000 C 
BRANCH  21  22
ATOM     22  C   UNL     1       5.975   4.397  14.524  0.00  0.00    +0.000 C 
ATOM     23  O   UNL     1       7.196   4.356  14.668  0.00  0.00    +0.000 OA
ATOM     24  N   UNL     1       5.335   3.958  13.386  0.00  0.00    +0.000 N 
ATOM     25  H   UNL     1       4.334   3.821  13.465  0.00  0.00    +0.000 HD
BRANCH  24  26
ATOM     26  C   UNL     1       6.047   3.197  12.380  0.00  0.00    +0.000 C 
BRANCH  26  27
ATOM     27  C   UNL     1       5.114   2.655  11.304  0.00  0.00    +0.000 C 
BRANCH  27  28
ATOM     28  C   UNL     1       3.752   3.341  11.254  0.00  0.00    +0.000 C 
BRANCH  28  29
ATOM     29  O   UNL     1       3.227   3.345   9.935  0.00  0.00    +0.000 OA
ATOM     30  H   UNL     1       2.376   2.853   9.969  0.00  0.00    +0.000 HD
ENDBRANCH  28  29
ENDBRANCH  27  28
ENDBRANCH  26  27
ENDBRANCH  24  26
ENDBRANCH  21  22
ENDBRANCH   1  21
TORSDOF 12
ENDMDL
MODEL 5
REMARK VINA RESULT:      -6.9      1.639      2.357
REMARK  Name = 
REMARK  13 active torsions:
REMARK  status: ('A' for Active; 'I' for Inactive)
REMARK    1  A    between atoms: C_1  and  O_2
REMARK    2  A    between atoms: O_2  and  C_3
REMARK    3  A    between atoms: C_6  and  S_7
REMARK    4  A    between atoms: S_7  and  N_10
REMARK    5  A    between atoms: N_10  and  C_11
REMARK    6  A    between atoms: N_10  and  C_19
REMARK    7  A    between atoms: C_11  and  C_12
REMARK    8  A    between atoms: C_12  and  C_13
REMARK    9  A    between atoms: C_19  and  C_20
REMARK   10  A    between atoms: N_22  and  C_23
REMARK   11  A    between atoms: C_23  and  C_24
REMARK   12  A    between atoms: C_24  and  C_25
REMARK   13  A    between atoms: C_25  and  O_26
REMARK                            x       y       z     vdW  Elec       q    Type
REMARK                         _______ _______ _______ _____ _____    ______ ____
ROOT
ATOM      1  N   UNL     1       5.100   5.267  18.429  0.00  0.00    +0.000 NA
ENDROOT
BRANCH   1   2
ATOM      2  S   UNL     1       3.823   6.047  17.540  0.00  0.00    +0.000 S 
ATOM      3  O   UNL     1       2.933   4.998  17.089  0.00  0.00    +0.000 OA
ATOM      4  O   UNL     1       4.437   6.954  16.594  0.00  0.00    +0.000 OA
BRANCH   2   8
ATOM      5  C   UNL     1       1.053   8.400  20.276  0.00  0.00    +0.000 A 
ATOM      6  C   UNL     1       1.505   8.977  19.085  0.00  0.00    +0.000 A 
ATOM      7  C   UNL     1       2.431   8.307  18.276  0.00  0.00    +0.000 A 
ATOM      8  C   UNL     1       2.928   7.067  18.686  0.00  0.00    +0.000 A 
ATOM      9  C   UNL     1       2.510   6.506  19.894  0.00  0.00    +0.000 A 
ATOM     10  C   UNL     1       1.579   7.176  20.691  0.00  0.00    +0.000 A 
BRANCH   5  12
ATOM     11  C   UNL     1       0.626   9.920  22.035  0.00  0.00    +0.000 C 
ATOM     12  O   UNL     1       0.118   9.120  20.968  0.00  0.00    +0.000 OA
ENDBRANCH   5  12
ENDBRANCH   2   8
ENDBRANCH   1   2
BRANCH   1  13
ATOM     13  C   UNL     1       5.101   3.751  18.300  0.00  0.00    +0.000 C 
BRANCH  13  14
ATOM     14  C   UNL     1       4.694   3.053  19.615  0.00  0.00    +0.000 C 
BRANCH  14  15
ATOM     15  C   UNL     1       3.209   2.897  19.842  0.00  0.00    +0.000 A 
ATOM     16  C   UNL     1       2.662   3.177  21.106  0.00  0.00    +0.000 A 
ATOM     17  C   UNL     1       1.284   3.122  21.317  0.00  0.00    +0.000 A 
ATOM     18  C   UNL     1       0.434   2.785  20.266  0.00  0.00    +0.000 A 
ATOM     19  C   UNL     1       0.965   2.500  19.008  0.00  0.00    +0.000 A 
ATOM     20  C   UNL     1       2.346   2.557  18.796  0.00  0.00    +0.000 A 
ENDBRANCH  14  15
ENDBRANCH  13  14
ENDBRANCH   1  13
BRANCH   1  21
ATOM     21  C   UNL     1       6.430   5.829  17.954  0.00  0.00    +0.000 C 
BRANCH  21  22
ATOM     22  C   UNL     1       7.103   5.130  16.793  0.00  0.00    +0.000 C 
ATOM     23  O   UNL     1       8.055   4.368  16.948  0.00  0.00    +0.000 OA
ATOM     24  N   UNL     1       6.674   5.557  15.556  0.00  0.00    +0.000 N 
ATOM     25  H   UNL     1       5.755   5.985  15.528  0.00  0.00    +0.000 HD
BRANCH  24  26
ATOM     26  C   UNL     1       7.172   4.941  14.343  0.00  0.00    +0.000 C 
BRANCH  26  27
ATOM     27  C   UNL     1       6.214   3.888  13.799  0.00  0.00    +0.000 C 
BRANCH  27  28
ATOM     28  C   UNL     1       6.461   3.508  12.343  0.00  0.00    +0.000 C 
BRANCH  28  29
ATOM     29  O   UNL     1       5.848   2.267  12.025  0.00  0.00    +0.000 OA
ATOM     30  H   UNL     1       4.961   2.276  12.449  0.00  0.00    +0.000 HD
ENDBRANCH  28  29
ENDBRANCH  27  28
ENDBRANCH  26  27
ENDBRANCH  24  26
ENDBRANCH  21  22
ENDBRANCH   1  21
TORSDOF 12
ENDMDL
MODEL 6
REMARK VINA RESULT:      -6.8      2.093      6.109
REMARK  Name = 
REMARK  13 active torsions:
REMARK  status: ('A' for Active; 'I' for Inactive)
REMARK    1  A    between atoms: C_1  and  O_2
REMARK    2  A    between atoms: O_2  and  C_3
REMARK    3  A    between atoms: C_6  and  S_7
REMARK    4  A    between atoms: S_7  and  N_10
REMARK    5  A    between atoms: N_10  and  C_11
REMARK    6  A    between atoms: N_10  and  C_19
REMARK    7  A    between atoms: C_11  and  C_12
REMARK    8  A    between atoms: C_12  and  C_13
REMARK    9  A    between atoms: C_19  and  C_20
REMARK   10  A    between atoms: N_22  and  C_23
REMARK   11  A    between atoms: C_23  and  C_24
REMARK   12  A    between atoms: C_24  and  C_25
REMARK   13  A    between atoms: C_25  and  O_26
REMARK                            x       y       z     vdW  Elec       q    Type
REMARK                         _______ _______ _______ _____ _____    ______ ____
ROOT
ATOM      1  N   UNL     1       4.223   4.752  17.258  0.00  0.00    +0.000 NA
ENDROOT
BRANCH   1   2
ATOM      2  S   UNL     1       4.556   6.458  17.368  0.00  0.00    +0.000 S 
ATOM      3  O   UNL     1       4.617   6.954  16.009  0.00  0.00    +0.000 OA
ATOM      4  O   UNL     1       5.674   6.630  18.270  0.00  0.00    +0.000 OA
BRANCH   2   8
ATOM      5  C   UNL     1       1.367   8.769  19.645  0.00  0.00    +0.000 A 
ATOM      6  C   UNL     1       1.858   7.567  20.166  0.00  0.00    +0.000 A 
ATOM      7  C   UNL     1       2.769   6.795  19.437  0.00  0.00    +0.000 A 
ATOM      8  C   UNL     1       3.162   7.217  18.164  0.00  0.00    +0.000 A 
ATOM      9  C   UNL     1       2.643   8.395  17.623  0.00  0.00    +0.000 A 
ATOM     10  C   UNL     1       1.741   9.166  18.361  0.00  0.00    +0.000 A 
BRANCH   5  12
ATOM     11  C   UNL     1      -0.059   8.719  21.529  0.00  0.00    +0.000 C 
ATOM     12  O   UNL     1       0.514   9.466  20.457  0.00  0.00    +0.000 OA
ENDBRANCH   5  12
ENDBRANCH   2   8
ENDBRANCH   1   2
BRANCH   1  13
ATOM     13  C   UNL     1       4.563   4.145  15.904  0.00  0.00    +0.000 C 
BRANCH  13  14
ATOM     14  C   UNL     1       6.083   3.961  15.711  0.00  0.00    +0.000 C 
BRANCH  14  15
ATOM     15  C   UNL     1       6.594   4.162  14.305  0.00  0.00    +0.000 A 
ATOM     16  C   UNL     1       6.080   3.380  13.256  0.00  0.00    +0.000 A 
ATOM     17  C   UNL     1       6.474   3.605  11.936  0.00  0.00    +0.000 A 
ATOM     18  C   UNL     1       7.390   4.614  11.649  0.00  0.00    +0.000 A 
ATOM     19  C   UNL     1       7.912   5.393  12.681  0.00  0.00    +0.000 A 
ATOM     20  C   UNL     1       7.515   5.170  14.003  0.00  0.00    +0.000 A 
ENDBRANCH  14  15
ENDBRANCH  13  14
ENDBRANCH   1  13
BRANCH   1  21
ATOM     21  C   UNL     1       4.997   4.039  18.355  0.00  0.00    +0.000 C 
BRANCH  21  22
ATOM     22  C   UNL     1       4.244   3.029  19.191  0.00  0.00    +0.000 C 
ATOM     23  O   UNL     1       4.800   2.333  20.039  0.00  0.00    +0.000 OA
ATOM     24  N   UNL     1       2.937   2.838  18.798  0.00  0.00    +0.000 N 
ATOM     25  H   UNL     1       2.515   3.599  18.278  0.00  0.00    +0.000 HD
BRANCH  24  26
ATOM     26  C   UNL     1       2.061   1.952  19.538  0.00  0.00    +0.000 C 
BRANCH  26  27
ATOM     27  C   UNL     1       1.020   2.718  20.345  0.00  0.00    +0.000 C 
BRANCH  27  28
ATOM     28  C   UNL     1       1.388   2.917  21.812  0.00  0.00    +0.000 C 
BRANCH  28  29
ATOM     29  O   UNL     1       2.721   2.500  22.069  0.00  0.00    +0.000 OA
ATOM     30  H   UNL     1       3.241   3.316  22.245  0.00  0.00    +0.000 HD
ENDBRANCH  28  29
ENDBRANCH  27  28
ENDBRANCH  26  27
ENDBRANCH  24  26
ENDBRANCH  21  22
ENDBRANCH   1  21
TORSDOF 12
ENDMDL
MODEL 7
REMARK VINA RESULT:      -6.8      1.142      1.340
REMARK  Name = 
REMARK  13 active torsions:
REMARK  status: ('A' for Active; 'I' for Inactive)
REMARK    1  A    between atoms: C_1  and  O_2
REMARK    2  A    between atoms: O_2  and  C_3
REMARK    3  A    between atoms: C_6  and  S_7
REMARK    4  A    between atoms: S_7  and  N_10
REMARK    5  A    between atoms: N_10  and  C_11
REMARK    6  A    between atoms: N_10  and  C_19
REMARK    7  A    between atoms: C_11  and  C_12
REMARK    8  A    between atoms: C_12  and  C_13
REMARK    9  A    between atoms: C_19  and  C_20
REMARK   10  A    between atoms: N_22  and  C_23
REMARK   11  A    between atoms: C_23  and  C_24
REMARK   12  A    between atoms: C_24  and  C_25
REMARK   13  A    between atoms: C_25  and  O_26
REMARK                            x       y       z     vdW  Elec       q    Type
REMARK                         _______ _______ _______ _____ _____    ______ ____
ROOT
ATOM      1  N   UNL     1       5.229   4.725  17.332  0.00  0.00    +0.000 NA
ENDROOT
BRANCH   1   2
ATOM      2  S   UNL     1       5.046   6.437  17.070  0.00  0.00    +0.000 S 
ATOM      3  O   UNL     1       4.786   6.612  15.657  0.00  0.00    +0.000 OA
ATOM      4  O   UNL     1       6.165   7.100  17.704  0.00  0.00    +0.000 OA
BRANCH   2   8
ATOM      5  C   UNL     1       1.689   8.139  19.625  0.00  0.00    +0.000 A 
ATOM      6  C   UNL     1       2.306   6.941  19.999  0.00  0.00    +0.000 A 
ATOM      7  C   UNL     1       3.275   6.353  19.178  0.00  0.00    +0.000 A 
ATOM      8  C   UNL     1       3.600   6.956  17.960  0.00  0.00    +0.000 A 
ATOM      9  C   UNL     1       2.956   8.130  17.563  0.00  0.00    +0.000 A 
ATOM     10  C   UNL     1       1.997   8.717  18.393  0.00  0.00    +0.000 A 
BRANCH   5  12
ATOM     11  C   UNL     1       0.156   9.867  20.128  0.00  0.00    +0.000 C 
ATOM     12  O   UNL     1       0.787   8.649  20.519  0.00  0.00    +0.000 OA
ENDBRANCH   5  12
ENDBRANCH   2   8
ENDBRANCH   1   2
BRANCH   1  13
ATOM     13  C   UNL     1       4.076   3.894  16.790  0.00  0.00    +0.000 C 
BRANCH  13  14
ATOM     14  C   UNL     1       3.843   2.610  17.615  0.00  0.00    +0.000 C 
BRANCH  14  15
ATOM     15  C   UNL     1       2.919   2.752  18.801  0.00  0.00    +0.000 A 
ATOM     16  C   UNL     1       3.433   2.643  20.105  0.00  0.00    +0.000 A 
ATOM     17  C   UNL     1       2.616   2.855  21.216  0.00  0.00    +0.000 A 
ATOM     18  C   UNL     1       1.272   3.177  21.037  0.00  0.00    +0.000 A 
ATOM     19  C   UNL     1       0.749   3.283  19.749  0.00  0.00    +0.000 A 
ATOM     20  C   UNL     1       1.568   3.073  18.635  0.00  0.00    +0.000 A 
ENDBRANCH  14  15
ENDBRANCH  13  14
ENDBRANCH   1  13
BRANCH   1  21
ATOM     21  C   UNL     1       6.535   4.278  16.697  0.00  0.00    +0.000 C 
BRANCH  21  22
ATOM     22  C   UNL     1       6.740   4.598  15.233  0.00  0.00    +0.000 C 
ATOM     23  O   UNL     1       7.558   5.433  14.852  0.00  0.00    +0.000 OA
ATOM     24  N   UNL     1       5.820   4.007  14.396  0.00  0.00    +0.000 N 
ATOM     25  H   UNL     1       5.361   3.178  14.755  0.00  0.00    +0.000 HD
BRANCH  24  26
ATOM     26  C   UNL     1       5.918   4.160  12.958  0.00  0.00    +0.000 C 
BRANCH  26  27
ATOM     27  C   UNL     1       6.421   2.892  12.280  0.00  0.00    +0.000 C 
BRANCH  27  28
ATOM     28  C   UNL     1       5.382   2.195  11.406  0.00  0.00    +0.000 C 
BRANCH  28  29
ATOM     29  O   UNL     1       4.209   2.983  11.275  0.00  0.00    +0.000 OA
ATOM     30  H   UNL     1       3.455   2.355  11.210  0.00  0.00    +0.000 HD
ENDBRANCH  28  29
ENDBRANCH  27  28
ENDBRANCH  26  27
ENDBRANCH  24  26
ENDBRANCH  21  22
ENDBRANCH   1  21
TORSDOF 12
ENDMDL
MODEL 8
REMARK VINA RESULT:      -6.7      0.864      1.255
REMARK  Name = 
REMARK  13 active torsions:
REMARK  status: ('A' for Active; 'I' for Inactive)
REMARK    1  A    between atoms: C_1  and  O_2
REMARK    2  A    between atoms: O_2  and  C_3
REMARK    3  A    between atoms: C_6  and  S_7
REMARK    4  A    between atoms: S_7  and  N_10
REMARK    5  A    between atoms: N_10  and  C_11
REMARK    6  A    between atoms: N_10  and  C_19
REMARK    7  A    between atoms: C_11  and  C_12
REMARK    8  A    between atoms: C_12  and  C_13
REMARK    9  A    between atoms: C_19  and  C_20
REMARK   10  A    between atoms: N_22  and  C_23
REMARK   11  A    between atoms: C_23  and  C_24
REMARK   12  A    between atoms: C_24  and  C_25
REMARK   13  A    between atoms: C_25  and  O_26
REMARK                            x       y       z     vdW  Elec       q    Type
REMARK                         _______ _______ _______ _____ _____    ______ ____
ROOT
ATOM      1  N   UNL     1       5.246   4.212  16.777  0.00  0.00    +0.000 NA
ENDROOT
BRANCH   1   2
ATOM      2  S   UNL     1       5.780   5.113  18.168  0.00  0.00    +0.000 S 
ATOM      3  O   UNL     1       6.948   5.860  17.753  0.00  0.00    +0.000 OA
ATOM      4  O   UNL     1       5.846   4.196  19.286  0.00  0.00    +0.000 OA
BRANCH   2   8
ATOM      5  C   UNL     1       2.144   7.750  18.894  0.00  0.00    +0.000 A 
ATOM      6  C   UNL     1       3.038   8.068  17.865  0.00  0.00    +0.000 A 
ATOM      7  C   UNL     1       4.209   7.324  17.685  0.00  0.00    +0.000 A 
ATOM      8  C   UNL     1       4.500   6.279  18.566  0.00  0.00    +0.000 A 
ATOM      9  C   UNL     1       3.632   5.985  19.620  0.00  0.00    +0.000 A 
ATOM     10  C   UNL     1       2.459   6.726  19.786  0.00  0.00    +0.000 A 
BRANCH   5  12
ATOM     11  C   UNL     1       0.997   9.660  18.104  0.00  0.00    +0.000 C 
ATOM     12  O   UNL     1       1.010   8.514  18.954  0.00  0.00    +0.000 OA
ENDBRANCH   5  12
ENDBRANCH   2   8
ENDBRANCH   1   2
BRANCH   1  13
ATOM     13  C   UNL     1       3.805   3.732  16.871  0.00  0.00    +0.000 C 
BRANCH  13  14
ATOM     14  C   UNL     1       3.667   2.469  17.748  0.00  0.00    +0.000 C 
BRANCH  14  15
ATOM     15  C   UNL     1       2.789   2.612  18.968  0.00  0.00    +0.000 A 
ATOM     16  C   UNL     1       3.336   2.421  20.249  0.00  0.00    +0.000 A 
ATOM     17  C   UNL     1       2.566   2.631  21.394  0.00  0.00    +0.000 A 
ATOM     18  C   UNL     1       1.238   3.032  21.273  0.00  0.00    +0.000 A 
ATOM     19  C   UNL     1       0.682   3.219  20.008  0.00  0.00    +0.000 A 
ATOM     20  C   UNL     1       1.453   3.012  18.860  0.00  0.00    +0.000 A 
ENDBRANCH  14  15
ENDBRANCH  13  14
ENDBRANCH   1  13
BRANCH   1  21
ATOM     21  C   UNL     1       5.424   5.082  15.544  0.00  0.00    +0.000 C 
BRANCH  21  22
ATOM     22  C   UNL     1       6.295   4.540  14.432  0.00  0.00    +0.000 C 
ATOM     23  O   UNL     1       7.504   4.757  14.382  0.00  0.00    +0.000 OA
ATOM     24  N   UNL     1       5.592   3.944  13.409  0.00  0.00    +0.000 N 
ATOM     25  H   UNL     1       4.667   3.605  13.645  0.00  0.00    +0.000 HD
BRANCH  24  26
ATOM     26  C   UNL     1       6.283   3.316  12.301  0.00  0.00    +0.000 C 
BRANCH  26  27
ATOM     27  C   UNL     1       5.356   2.434  11.473  0.00  0.00    +0.000 C 
BRANCH  27  28
ATOM     28  C   UNL     1       5.905   1.039  11.190  0.00  0.00    +0.000 C 
BRANCH  28  29
ATOM     29  O   UNL     1       7.215   1.104  10.646  0.00  0.00    +0.000 OA
ATOM     30  H   UNL     1       7.447   0.190  10.366  0.00  0.00    +0.000 HD
ENDBRANCH  28  29
ENDBRANCH  27  28
ENDBRANCH  26  27
ENDBRANCH  24  26
ENDBRANCH  21  22
ENDBRANCH   1  21
TORSDOF 12
ENDMDL
MODEL 9
REMARK VINA RESULT:      -6.7      1.147      1.509
REMARK  Name = 
REMARK  13 active torsions:
REMARK  status: ('A' for Active; 'I' for Inactive)
REMARK    1  A    between atoms: C_1  and  O_2
REMARK    2  A    between atoms: O_2  and  C_3
REMARK    3  A    between atoms: C_6  and  S_7
REMARK    4  A    between atoms: S_7  and  N_10
REMARK    5  A    between atoms: N_10  and  C_11
REMARK    6  A    between atoms: N_10  and  C_19
REMARK    7  A    between atoms: C_11  and  C_12
REMARK    8  A    between atoms: C_12  and  C_13
REMARK    9  A    between atoms: C_19  and  C_20
REMARK   10  A    between atoms: N_22  and  C_23
REMARK   11  A    between atoms: C_23  and  C_24
REMARK   12  A    between atoms: C_24  and  C_25
REMARK   13  A    between atoms: C_25  and  O_26
REMARK                            x       y       z     vdW  Elec       q    Type
REMARK                         _______ _______ _______ _____ _____    ______ ____
ROOT
ATOM      1  N   UNL     1       6.256   4.679  16.757  0.00  0.00    +0.000 NA
ENDROOT
BRANCH   1   2
ATOM      2  S   UNL     1       6.291   6.184  17.631  0.00  0.00    +0.000 S 
ATOM      3  O   UNL     1       6.717   7.198  16.690  0.00  0.00    +0.000 OA
ATOM      4  O   UNL     1       7.022   5.961  18.860  0.00  0.00    +0.000 OA
BRANCH   2   8
ATOM      5  C   UNL     1       2.238   7.589  19.147  0.00  0.00    +0.000 A 
ATOM      6  C   UNL     1       2.915   6.566  19.821  0.00  0.00    +0.000 A 
ATOM      7  C   UNL     1       4.117   6.057  19.318  0.00  0.00    +0.000 A 
ATOM      8  C   UNL     1       4.623   6.555  18.114  0.00  0.00    +0.000 A 
ATOM      9  C   UNL     1       3.929   7.546  17.417  0.00  0.00    +0.000 A 
ATOM     10  C   UNL     1       2.735   8.057  17.930  0.00  0.00    +0.000 A 
BRANCH   5  12
ATOM     11  C   UNL     1       1.165   8.194  21.164  0.00  0.00    +0.000 C 
ATOM     12  O   UNL     1       1.095   8.042  19.747  0.00  0.00    +0.000 OA
ENDBRANCH   5  12
ENDBRANCH   2   8
ENDBRANCH   1   2
BRANCH   1  13
ATOM     13  C   UNL     1       5.578   3.545  17.512  0.00  0.00    +0.000 C 
BRANCH  13  14
ATOM     14  C   UNL     1       4.202   3.186  16.912  0.00  0.00    +0.000 C 
BRANCH  14  15
ATOM     15  C   UNL     1       3.056   3.119  17.894  0.00  0.00    +0.000 A 
ATOM     16  C   UNL     1       1.855   3.794  17.613  0.00  0.00    +0.000 A 
ATOM     17  C   UNL     1       0.754   3.677  18.463  0.00  0.00    +0.000 A 
ATOM     18  C   UNL     1       0.841   2.886  19.606  0.00  0.00    +0.000 A 
ATOM     19  C   UNL     1       2.029   2.216  19.898  0.00  0.00    +0.000 A 
ATOM     20  C   UNL     1       3.131   2.329  19.046  0.00  0.00    +0.000 A 
ENDBRANCH  14  15
ENDBRANCH  13  14
ENDBRANCH   1  13
BRANCH   1  21
ATOM     21  C   UNL     1       5.555   4.911  15.429  0.00  0.00    +0.000 C 
BRANCH  21  22
ATOM     22  C   UNL     1       6.338   4.613  14.169  0.00  0.00    +0.000 C 
ATOM     23  O   UNL     1       7.334   5.259  13.848  0.00  0.00    +0.000 OA
ATOM     24  N   UNL     1       5.742   3.686  13.343  0.00  0.00    +0.000 N 
ATOM     25  H   UNL     1       5.085   3.054  13.787  0.00  0.00    +0.000 HD
BRANCH  24  26
ATOM     26  C   UNL     1       6.398   3.242  12.130  0.00  0.00    +0.000 C 
BRANCH  26  27
ATOM     27  C   UNL     1       5.658   2.085  11.470  0.00  0.00    +0.000 C 
BRANCH  27  28
ATOM     28  C   UNL     1       6.566   0.974  10.953  0.00  0.00    +0.000 C 
BRANCH  28  29
ATOM     29  O   UNL     1       6.141  -0.297  11.423  0.00  0.00    +0.000 OA
ATOM     30  H   UNL     1       5.803  -0.787  10.639  0.00  0.00    +0.000 HD
ENDBRANCH  28  29
ENDBRANCH  27  28
ENDBRANCH  26  27
ENDBRANCH  24  26
ENDBRANCH  21  22
ENDBRANCH   1  21
TORSDOF 12
ENDMDL
