MODEL 1
REMARK VINA RESULT:      -8.8      0.000      0.000
REMARK  Name = 
REMARK  7 active torsions:
REMARK  status: ('A' for Active; 'I' for Inactive)
REMARK    1  A    between atoms: N_14  and  C_15
REMARK    2  A    between atoms: C_15  and  C_16
REMARK    3  A    between atoms: C_16  and  C_17
REMARK    4  A    between atoms: C_17  and  C_18
REMARK    5  A    between atoms: C_18  and  C_19
REMARK    6  A    between atoms: C_19  and  C_20
REMARK    7  A    between atoms: C_20  and  N_21
REMARK                            x       y       z     vdW  Elec       q    Type
REMARK                         _______ _______ _______ _____ _____    ______ ____
ROOT
ATOM      1  C   UNL     1       7.135   6.467  16.805  0.00  0.00    +0.000 C 
ENDROOT
BRANCH   1   2
ATOM      2  C   UNL     1       5.782   6.035  16.248  0.00  0.00    +0.000 C 
BRANCH   2  16
ATOM      3  O   UNL     1       4.336   3.143  17.397  0.00  0.00    +0.000 OA
ATOM      4  S   UNL     1       4.940   4.230  18.130  0.00  0.00    +0.000 S 
ATOM      5  O   UNL     1       6.021   4.107  19.075  0.00  0.00    +0.000 OA
ATOM      6  C   UNL     1       3.623   4.590  19.246  0.00  0.00    +0.000 A 
ATOM      7  C   UNL     1       3.069   3.823  20.257  0.00  0.00    +0.000 A 
ATOM      8  C   UNL     1       2.020   4.411  20.981  0.00  0.00    +0.000 A 
ATOM      9  C   UNL     1       1.557   5.707  20.685  0.00  0.00    +0.000 A 
ATOM     10  C   UNL     1       2.140   6.460  19.651  0.00  0.00    +0.000 A 
ATOM     11  C   UNL     1       1.766   7.760  19.265  0.00  0.00    +0.000 A 
ATOM     12  C   UNL     1       2.432   8.408  18.210  0.00  0.00    +0.000 A 
ATOM     13  C   UNL     1       3.478   7.793  17.509  0.00  0.00    +0.000 A 
ATOM     14  C   UNL     1       3.841   6.508  17.903  0.00  0.00    +0.000 A 
ATOM     15  C   UNL     1       3.168   5.869  18.951  0.00  0.00    +0.000 A 
ATOM     16  N   UNL     1       4.890   5.710  17.335  0.00  0.00    +0.000 N 
ENDBRANCH   2  16
ENDBRANCH   1   2
BRANCH   1  17
ATOM     17  C   UNL     1       7.034   7.757  17.606  0.00  0.00    +0.000 C 
BRANCH  17  18
ATOM     18  C   UNL     1       8.393   8.218  18.135  0.00  0.00    +0.000 C 
BRANCH  18  19
ATOM     19  C   UNL     1       8.571   9.732  18.025  0.00  0.00    +0.000 C 
BRANCH  19  20
ATOM     20  C   UNL     1       9.164  10.387  19.290  0.00  0.00    +0.000 C 
BRANCH  20  21
ATOM     21  N   UNL     1      10.495  10.974  19.072  0.00  0.00    +0.000 NA
ATOM     22  C   UNL     1      10.605  11.684  17.776  0.00  0.00    +0.000 C 
ATOM     23  C   UNL     1       9.779  12.979  17.670  0.00  0.00    +0.000 C 
ATOM     24  N   UNL     1      10.048  13.870  18.799  0.00  0.00    +0.000 N 
ATOM     25  C   UNL     1      10.214  15.214  18.557  0.00  0.00    +0.000 A 
ATOM     26  C   UNL     1       9.875  16.177  19.506  0.00  0.00    +0.000 A 
ATOM     27  C   UNL     1      10.085  17.530  19.239  0.00  0.00    +0.000 A 
ATOM     28  C   UNL     1      10.638  17.898  18.026  0.00  0.00    +0.000 A 
ATOM     29  C   UNL     1      10.942  16.899  17.126  0.00  0.00    +0.000 A 
ATOM     30  N   UNL     1      10.734  15.584  17.366  0.00  0.00    +0.000 NA
ATOM     31  C   UNL     1      10.164  13.305  20.142  0.00  0.00    +0.000 C 
ATOM     32  C   UNL     1      10.869  11.927  20.141  0.00  0.00    +0.000 C 
ENDBRANCH  20  21
ENDBRANCH  19  20
ENDBRANCH  18  19
ENDBRANCH  17  18
ENDBRANCH   1  17
TORSDOF 7
ENDMDL
MODEL 2
REMARK VINA RESULT:      -8.7      1.342      1.750
REMARK  Name = 
REMARK  7 active torsions:
REMARK  status: ('A' for Active; 'I' for Inactive)
REMARK    1  A    between atoms: N_14  and  C_15
REMARK    2  A    between atoms: C_15  and  C_16
REMARK    3  A    between atoms: C_16  and  C_17
REMARK    4  A    between atoms: C_17  and  C_18
REMARK    5  A    between atoms: C_18  and  C_19
REMARK    6  A    between atoms: C_19  and  C_20
REMARK    7  A    between atoms: C_20  and  N_21
REMARK                            x       y       z     vdW  Elec       q    Type
REMARK                         _______ _______ _______ _____ _____    ______ ____
ROOT
ATOM      1  C   UNL     1       6.788   6.325  17.084  0.00  0.00    +0.000 C 
ENDROOT
BRANCH   1   2
ATOM      2  C   UNL     1       5.336   6.776  17.206  0.00  0.00    +0.000 C 
BRANCH   2  16
ATOM      3  O   UNL     1       4.511   3.450  17.036  0.00  0.00    +0.000 OA
ATOM      4  S   UNL     1       4.986   4.229  18.154  0.00  0.00    +0.000 S 
ATOM      5  O   UNL     1       6.153   3.935  18.946  0.00  0.00    +0.000 OA
ATOM      6  C   UNL     1       3.734   3.834  19.331  0.00  0.00    +0.000 A 
ATOM      7  C   UNL     1       3.412   2.627  19.927  0.00  0.00    +0.000 A 
ATOM      8  C   UNL     1       2.348   2.648  20.844  0.00  0.00    +0.000 A 
ATOM      9  C   UNL     1       1.648   3.835  21.130  0.00  0.00    +0.000 A 
ATOM     10  C   UNL     1       1.998   5.045  20.506  0.00  0.00    +0.000 A 
ATOM     11  C   UNL     1       1.376   6.289  20.713  0.00  0.00    +0.000 A 
ATOM     12  C   UNL     1       1.824   7.431  20.025  0.00  0.00    +0.000 A 
ATOM     13  C   UNL     1       2.891   7.375  19.118  0.00  0.00    +0.000 A 
ATOM     14  C   UNL     1       3.501   6.139  18.926  0.00  0.00    +0.000 A 
ATOM     15  C   UNL     1       3.044   5.007  19.612  0.00  0.00    +0.000 A 
ATOM     16  N   UNL     1       4.613   5.866  18.062  0.00  0.00    +0.000 N 
ENDBRANCH   2  16
ENDBRANCH   1   2
BRANCH   1  17
ATOM     17  C   UNL     1       7.716   7.150  17.964  0.00  0.00    +0.000 C 
BRANCH  17  18
ATOM     18  C   UNL     1       7.737   8.626  17.560  0.00  0.00    +0.000 C 
BRANCH  18  19
ATOM     19  C   UNL     1       8.675   9.451  18.439  0.00  0.00    +0.000 C 
BRANCH  19  20
ATOM     20  C   UNL     1       8.819  10.921  17.995  0.00  0.00    +0.000 C 
BRANCH  20  21
ATOM     21  N   UNL     1      10.205  11.409  18.039  0.00  0.00    +0.000 NA
ATOM     22  C   UNL     1      10.343  12.797  17.539  0.00  0.00    +0.000 C 
ATOM     23  C   UNL     1       9.706  13.878  18.431  0.00  0.00    +0.000 C 
ATOM     24  N   UNL     1      10.163  13.756  19.815  0.00  0.00    +0.000 N 
ATOM     25  C   UNL     1      10.505  14.897  20.503  0.00  0.00    +0.000 A 
ATOM     26  C   UNL     1      10.361  14.990  21.886  0.00  0.00    +0.000 A 
ATOM     27  C   UNL     1      10.747  16.151  22.556  0.00  0.00    +0.000 A 
ATOM     28  C   UNL     1      11.278  17.201  21.828  0.00  0.00    +0.000 A 
ATOM     29  C   UNL     1      11.385  17.051  20.463  0.00  0.00    +0.000 A 
ATOM     30  N   UNL     1      11.005  15.936  19.798  0.00  0.00    +0.000 NA
ATOM     31  C   UNL     1      10.272  12.428  20.416  0.00  0.00    +0.000 C 
ATOM     32  C   UNL     1      10.771  11.366  19.406  0.00  0.00    +0.000 C 
ENDBRANCH  20  21
ENDBRANCH  19  20
ENDBRANCH  18  19
ENDBRANCH  17  18
ENDBRANCH   1  17
TORSDOF 7
ENDMDL
MODEL 3
REMARK VINA RESULT:      -8.4      3.754     11.393
REMARK  Name = 
REMARK  7 active torsions:
REMARK  status: ('A' for Active; 'I' for Inactive)
REMARK    1  A    between atoms: N_14  and  C_15
REMARK    2  A    between atoms: C_15  and  C_16
REMARK    3  A    between atoms: C_16  and  C_17
REMARK    4  A    between atoms: C_17  and  C_18
REMARK    5  A    between atoms: C_18  and  C_19
REMARK    6  A    between atoms: C_19  and  C_20
REMARK    7  A    between atoms: C_20  and  N_21
REMARK                            x       y       z     vdW  Elec       q    Type
REMARK                         _______ _______ _______ _____ _____    ______ ____
ROOT
ATOM      1  C   UNL     1       9.697  11.367  17.994  0.00  0.00    +0.000 C 
ENDROOT
BRANCH   1   2
ATOM      2  C   UNL     1       8.811  12.605  18.103  0.00  0.00    +0.000 C 
BRANCH   2  16
ATOM      3  O   UNL     1       7.459  14.189  20.830  0.00  0.00    +0.000 OA
ATOM      4  S   UNL     1       8.721  13.501  20.691  0.00  0.00    +0.000 S 
ATOM      5  O   UNL     1       9.173  12.404  21.508  0.00  0.00    +0.000 OA
ATOM      6  C   UNL     1       9.801  14.763  21.281  0.00  0.00    +0.000 A 
ATOM      7  C   UNL     1       9.913  15.333  22.538  0.00  0.00    +0.000 A 
ATOM      8  C   UNL     1      10.895  16.325  22.687  0.00  0.00    +0.000 A 
ATOM      9  C   UNL     1      11.714  16.718  21.611  0.00  0.00    +0.000 A 
ATOM     10  C   UNL     1      11.575  16.120  20.347  0.00  0.00    +0.000 A 
ATOM     11  C   UNL     1      12.333  16.427  19.202  0.00  0.00    +0.000 A 
ATOM     12  C   UNL     1      12.096  15.753  17.991  0.00  0.00    +0.000 A 
ATOM     13  C   UNL     1      11.108  14.765  17.877  0.00  0.00    +0.000 A 
ATOM     14  C   UNL     1      10.368  14.468  19.018  0.00  0.00    +0.000 A 
ATOM     15  C   UNL     1      10.608  15.148  20.217  0.00  0.00    +0.000 A 
ATOM     16  N   UNL     1       9.328  13.485  19.123  0.00  0.00    +0.000 N 
ENDBRANCH   2  16
ENDBRANCH   1   2
BRANCH   1  17
ATOM     17  C   UNL     1       9.103  10.177  18.733  0.00  0.00    +0.000 C 
BRANCH  17  18
ATOM     18  C   UNL     1       8.127   9.383  17.863  0.00  0.00    +0.000 C 
BRANCH  18  19
ATOM     19  C   UNL     1       8.140   7.892  18.196  0.00  0.00    +0.000 C 
BRANCH  19  20
ATOM     20  C   UNL     1       7.241   7.037  17.278  0.00  0.00    +0.000 C 
BRANCH  20  21
ATOM     21  N   UNL     1       7.323   5.597  17.561  0.00  0.00    +0.000 NA
ATOM     22  C   UNL     1       6.905   5.257  18.941  0.00  0.00    +0.000 C 
ATOM     23  C   UNL     1       5.406   5.448  19.234  0.00  0.00    +0.000 C 
ATOM     24  N   UNL     1       4.582   4.764  18.236  0.00  0.00    +0.000 N 
ATOM     25  C   UNL     1       3.487   4.047  18.660  0.00  0.00    +0.000 A 
ATOM     26  C   UNL     1       2.360   3.889  17.856  0.00  0.00    +0.000 A 
ATOM     27  C   UNL     1       1.279   3.130  18.305  0.00  0.00    +0.000 A 
ATOM     28  C   UNL     1       1.348   2.534  19.552  0.00  0.00    +0.000 A 
ATOM     29  C   UNL     1       2.486   2.737  20.301  0.00  0.00    +0.000 A 
ATOM     30  N   UNL     1       3.537   3.479  19.885  0.00  0.00    +0.000 NA
ATOM     31  C   UNL     1       4.963   4.835  16.827  0.00  0.00    +0.000 C 
ATOM     32  C   UNL     1       6.499   4.794  16.630  0.00  0.00    +0.000 C 
ENDBRANCH  20  21
ENDBRANCH  19  20
ENDBRANCH  18  19
ENDBRANCH  17  18
ENDBRANCH   1  17
TORSDOF 7
ENDMDL
MODEL 4
REMARK VINA RESULT:      -8.3      1.119      1.421
REMARK  Name = 
REMARK  7 active torsions:
REMARK  status: ('A' for Active; 'I' for Inactive)
REMARK    1  A    between atoms: N_14  and  C_15
REMARK    2  A    between atoms: C_15  and  C_16
REMARK    3  A    between atoms: C_16  and  C_17
REMARK    4  A    between atoms: C_17  and  C_18
REMARK    5  A    between atoms: C_18  and  C_19
REMARK    6  A    between atoms: C_19  and  C_20
REMARK    7  A    between atoms: C_20  and  N_21
REMARK                            x       y       z     vdW  Elec       q    Type
REMARK                         _______ _______ _______ _____ _____    ______ ____
ROOT
ATOM      1  C   UNL     1       7.237   5.956  16.813  0.00  0.00    +0.000 C 
ENDROOT
BRANCH   1   2
ATOM      2  C   UNL     1       5.871   5.575  16.249  0.00  0.00    +0.000 C 
BRANCH   2  16
ATOM      3  O   UNL     1       4.146   2.887  17.503  0.00  0.00    +0.000 OA
ATOM      4  S   UNL     1       4.833   3.950  18.197  0.00  0.00    +0.000 S 
ATOM      5  O   UNL     1       5.881   3.777  19.170  0.00  0.00    +0.000 OA
ATOM      6  C   UNL     1       3.535   4.483  19.264  0.00  0.00    +0.000 A 
ATOM      7  C   UNL     1       2.895   3.821  20.298  0.00  0.00    +0.000 A 
ATOM      8  C   UNL     1       1.891   4.537  20.969  0.00  0.00    +0.000 A 
ATOM      9  C   UNL     1       1.554   5.853  20.601  0.00  0.00    +0.000 A 
ATOM     10  C   UNL     1       2.222   6.497  19.544  0.00  0.00    +0.000 A 
ATOM     11  C   UNL     1       1.975   7.805  19.089  0.00  0.00    +0.000 A 
ATOM     12  C   UNL     1       2.717   8.336  18.019  0.00  0.00    +0.000 A 
ATOM     13  C   UNL     1       3.715   7.595  17.372  0.00  0.00    +0.000 A 
ATOM     14  C   UNL     1       3.952   6.304  17.836  0.00  0.00    +0.000 A 
ATOM     15  C   UNL     1       3.204   5.782  18.898  0.00  0.00    +0.000 A 
ATOM     16  N   UNL     1       4.933   5.387  17.330  0.00  0.00    +0.000 N 
ENDBRANCH   2  16
ENDBRANCH   1   2
BRANCH   1  17
ATOM     17  C   UNL     1       7.117   6.890  18.009  0.00  0.00    +0.000 C 
BRANCH  17  18
ATOM     18  C   UNL     1       8.404   7.679  18.259  0.00  0.00    +0.000 C 
BRANCH  18  19
ATOM     19  C   UNL     1       8.263   9.150  17.868  0.00  0.00    +0.000 C 
BRANCH  19  20
ATOM     20  C   UNL     1       8.906  10.129  18.872  0.00  0.00    +0.000 C 
BRANCH  20  21
ATOM     21  N   UNL     1       9.813  11.098  18.239  0.00  0.00    +0.000 NA
ATOM     22  C   UNL     1       9.132  12.353  17.847  0.00  0.00    +0.000 C 
ATOM     23  C   UNL     1       8.662  13.233  19.019  0.00  0.00    +0.000 C 
ATOM     24  N   UNL     1       9.753  13.483  19.961  0.00  0.00    +0.000 N 
ATOM     25  C   UNL     1       9.917  14.754  20.462  0.00  0.00    +0.000 A 
ATOM     26  C   UNL     1      10.458  14.978  21.727  0.00  0.00    +0.000 A 
ATOM     27  C   UNL     1      10.639  16.281  22.193  0.00  0.00    +0.000 A 
ATOM     28  C   UNL     1      10.281  17.341  21.379  0.00  0.00    +0.000 A 
ATOM     29  C   UNL     1       9.743  17.052  20.144  0.00  0.00    +0.000 A 
ATOM     30  N   UNL     1       9.551  15.795  19.683  0.00  0.00    +0.000 NA
ATOM     31  C   UNL     1      10.652  12.388  20.317  0.00  0.00    +0.000 C 
ATOM     32  C   UNL     1      10.950  11.457  19.116  0.00  0.00    +0.000 C 
ENDBRANCH  20  21
ENDBRANCH  19  20
ENDBRANCH  18  19
ENDBRANCH  17  18
ENDBRANCH   1  17
TORSDOF 7
ENDMDL
MODEL 5
REMARK VINA RESULT:      -8.2      6.609      8.831
REMARK  Name = 
REMARK  7 active torsions:
REMARK  status: ('A' for Active; 'I' for Inactive)
REMARK    1  A    between atoms: N_14  and  C_15
REMARK    2  A    between atoms: C_15  and  C_16
REMARK    3  A    between atoms: C_16  and  C_17
REMARK    4  A    between atoms: C_17  and  C_18
REMARK    5  A    between atoms: C_18  and  C_19
REMARK    6  A    between atoms: C_19  and  C_20
REMARK    7  A    between atoms: C_20  and  N_21
REMARK                            x       y       z     vdW  Elec       q    Type
REMARK                         _______ _______ _______ _____ _____    ______ ____
ROOT
ATOM      1  C   UNL     1       1.000   5.565  20.207  0.00  0.00    +0.000 C 
ENDROOT
BRANCH   1   2
ATOM      2  C   UNL     1       1.838   6.506  21.066  0.00  0.00    +0.000 C 
BRANCH   2  16
ATOM      3  O   UNL     1      -0.866   8.336  22.121  0.00  0.00    +0.000 OA
ATOM      4  S   UNL     1       0.526   8.707  22.040  0.00  0.00    +0.000 S 
ATOM      5  O   UNL     1       1.329   9.198  23.130  0.00  0.00    +0.000 OA
ATOM      6  C   UNL     1       0.372  10.193  21.104  0.00  0.00    +0.000 A 
ATOM      7  C   UNL     1      -0.235  11.395  21.423  0.00  0.00    +0.000 A 
ATOM      8  C   UNL     1      -0.176  12.402  20.446  0.00  0.00    +0.000 A 
ATOM      9  C   UNL     1       0.463  12.191  19.210  0.00  0.00    +0.000 A 
ATOM     10  C   UNL     1       1.070  10.957  18.916  0.00  0.00    +0.000 A 
ATOM     11  C   UNL     1       1.737  10.631  17.721  0.00  0.00    +0.000 A 
ATOM     12  C   UNL     1       2.306   9.356  17.550  0.00  0.00    +0.000 A 
ATOM     13  C   UNL     1       2.230   8.374  18.547  0.00  0.00    +0.000 A 
ATOM     14  C   UNL     1       1.571   8.712  19.725  0.00  0.00    +0.000 A 
ATOM     15  C   UNL     1       1.004   9.981  19.884  0.00  0.00    +0.000 A 
ATOM     16  N   UNL     1       1.396   7.867  20.872  0.00  0.00    +0.000 N 
ENDBRANCH   2  16
ENDBRANCH   1   2
BRANCH   1  17
ATOM     17  C   UNL     1       1.245   4.105  20.559  0.00  0.00    +0.000 C 
BRANCH  17  18
ATOM     18  C   UNL     1       2.727   3.805  20.790  0.00  0.00    +0.000 C 
BRANCH  18  19
ATOM     19  C   UNL     1       3.478   3.566  19.481  0.00  0.00    +0.000 C 
BRANCH  19  20
ATOM     20  C   UNL     1       4.828   4.307  19.388  0.00  0.00    +0.000 C 
BRANCH  20  21
ATOM     21  N   UNL     1       4.790   5.477  18.498  0.00  0.00    +0.000 NA
ATOM     22  C   UNL     1       6.132   5.878  18.017  0.00  0.00    +0.000 C 
ATOM     23  C   UNL     1       6.798   4.889  17.044  0.00  0.00    +0.000 C 
ATOM     24  N   UNL     1       5.904   4.557  15.934  0.00  0.00    +0.000 N 
ATOM     25  C   UNL     1       6.419   4.512  14.659  0.00  0.00    +0.000 A 
ATOM     26  C   UNL     1       5.886   3.672  13.683  0.00  0.00    +0.000 A 
ATOM     27  C   UNL     1       6.413   3.674  12.391  0.00  0.00    +0.000 A 
ATOM     28  C   UNL     1       7.464   4.523  12.095  0.00  0.00    +0.000 A 
ATOM     29  C   UNL     1       7.952   5.321  13.107  0.00  0.00    +0.000 A 
ATOM     30  N   UNL     1       7.459   5.323  14.366  0.00  0.00    +0.000 NA
ATOM     31  C   UNL     1       4.489   4.317  16.206  0.00  0.00    +0.000 C 
ATOM     32  C   UNL     1       3.935   5.250  17.311  0.00  0.00    +0.000 C 
ENDBRANCH  20  21
ENDBRANCH  19  20
ENDBRANCH  18  19
ENDBRANCH  17  18
ENDBRANCH   1  17
TORSDOF 7
ENDMDL
MODEL 6
REMARK VINA RESULT:      -8.2      6.220      9.213
REMARK  Name = 
REMARK  7 active torsions:
REMARK  status: ('A' for Active; 'I' for Inactive)
REMARK    1  A    between atoms: N_14  and  C_15
REMARK    2  A    between atoms: C_15  and  C_16
REMARK    3  A    between atoms: C_16  and  C_17
REMARK    4  A    between atoms: C_17  and  C_18
REMARK    5  A    between atoms: C_18  and  C_19
REMARK    6  A    between atoms: C_19  and  C_20
REMARK    7  A    between atoms: C_20  and  N_21
REMARK                            x       y       z     vdW  Elec       q    Type
REMARK                         _______ _______ _______ _____ _____    ______ ____
ROOT
ATOM      1  C   UNL     1       1.146   6.489  20.318  0.00  0.00    +0.000 C 
ENDROOT
BRANCH   1   2
ATOM      2  C   UNL     1       2.020   7.738  20.354  0.00  0.00    +0.000 C 
BRANCH   2  16
ATOM      3  O   UNL     1       2.192  10.528  18.363  0.00  0.00    +0.000 OA
ATOM      4  S   UNL     1       1.058   9.704  18.705  0.00  0.00    +0.000 S 
ATOM      5  O   UNL     1       0.187   9.044  17.766  0.00  0.00    +0.000 OA
ATOM      6  C   UNL     1      -0.041  10.955  19.285  0.00  0.00    +0.000 A 
ATOM      7  C   UNL     1      -0.633  12.010  18.612  0.00  0.00    +0.000 A 
ATOM      8  C   UNL     1      -1.478  12.836  19.371  0.00  0.00    +0.000 A 
ATOM      9  C   UNL     1      -1.700  12.602  20.741  0.00  0.00    +0.000 A 
ATOM     10  C   UNL     1      -1.082  11.523  21.395  0.00  0.00    +0.000 A 
ATOM     11  C   UNL     1      -1.228  11.188  22.754  0.00  0.00    +0.000 A 
ATOM     12  C   UNL     1      -0.553  10.077  23.289  0.00  0.00    +0.000 A 
ATOM     13  C   UNL     1       0.282   9.271  22.503  0.00  0.00    +0.000 A 
ATOM     14  C   UNL     1       0.414   9.610  21.160  0.00  0.00    +0.000 A 
ATOM     15  C   UNL     1      -0.258  10.721  20.637  0.00  0.00    +0.000 A 
ATOM     16  N   UNL     1       1.199   8.913  20.182  0.00  0.00    +0.000 N 
ENDBRANCH   2  16
ENDBRANCH   1   2
BRANCH   1  17
ATOM     17  C   UNL     1       1.970   5.215  20.438  0.00  0.00    +0.000 C 
BRANCH  17  18
ATOM     18  C   UNL     1       1.126   4.020  20.884  0.00  0.00    +0.000 C 
BRANCH  18  19
ATOM     19  C   UNL     1       1.604   2.710  20.258  0.00  0.00    +0.000 C 
BRANCH  19  20
ATOM     20  C   UNL     1       1.274   2.576  18.757  0.00  0.00    +0.000 C 
BRANCH  20  21
ATOM     21  N   UNL     1       2.424   2.154  17.945  0.00  0.00    +0.000 NA
ATOM     22  C   UNL     1       2.778   3.137  16.894  0.00  0.00    +0.000 C 
ATOM     23  C   UNL     1       3.358   4.465  17.413  0.00  0.00    +0.000 C 
ATOM     24  N   UNL     1       4.473   4.231  18.331  0.00  0.00    +0.000 N 
ATOM     25  C   UNL     1       5.601   5.011  18.215  0.00  0.00    +0.000 A 
ATOM     26  C   UNL     1       6.405   5.303  19.316  0.00  0.00    +0.000 A 
ATOM     27  C   UNL     1       7.559   6.071  19.157  0.00  0.00    +0.000 A 
ATOM     28  C   UNL     1       7.893   6.530  17.895  0.00  0.00    +0.000 A 
ATOM     29  C   UNL     1       7.051   6.214  16.851  0.00  0.00    +0.000 A 
ATOM     30  N   UNL     1       5.924   5.480  16.990  0.00  0.00    +0.000 NA
ATOM     31  C   UNL     1       4.370   3.160  19.320  0.00  0.00    +0.000 C 
ATOM     32  C   UNL     1       3.633   1.916  18.765  0.00  0.00    +0.000 C 
ENDBRANCH  20  21
ENDBRANCH  19  20
ENDBRANCH  18  19
ENDBRANCH  17  18
ENDBRANCH   1  17
TORSDOF 7
ENDMDL
MODEL 7
REMARK VINA RESULT:      -8.2      6.736      8.911
REMARK  Name = 
REMARK  7 active torsions:
REMARK  status: ('A' for Active; 'I' for Inactive)
REMARK    1  A    between atoms: N_14  and  C_15
REMARK    2  A    between atoms: C_15  and  C_16
REMARK    3  A    between atoms: C_16  and  C_17
REMARK    4  A    between atoms: C_17  and  C_18
REMARK    5  A    between atoms: C_18  and  C_19
REMARK    6  A    between atoms: C_19  and  C_20
REMARK    7  A    between atoms: C_20  and  N_21
REMARK                            x       y       z     vdW  Elec       q    Type
REMARK                         _______ _______ _______ _____ _____    ______ ____
ROOT
ATOM      1  C   UNL     1       1.655   6.270  20.047  0.00  0.00    +0.000 C 
ENDROOT
BRANCH   1   2
ATOM      2  C   UNL     1       2.404   7.552  19.697  0.00  0.00    +0.000 C 
BRANCH   2  16
ATOM      3  O   UNL     1       2.146  10.513  17.982  0.00  0.00    +0.000 OA
ATOM      4  S   UNL     1       1.117   9.581  18.378  0.00  0.00    +0.000 S 
ATOM      5  O   UNL     1       0.174   8.946  17.494  0.00  0.00    +0.000 OA
ATOM      6  C   UNL     1       0.029  10.692  19.209  0.00  0.00    +0.000 A 
ATOM      7  C   UNL     1      -0.709  11.757  18.721  0.00  0.00    +0.000 A 
ATOM      8  C   UNL     1      -1.497  12.449  19.655  0.00  0.00    +0.000 A 
ATOM      9  C   UNL     1      -1.525  12.078  21.013  0.00  0.00    +0.000 A 
ATOM     10  C   UNL     1      -0.762  10.992  21.477  0.00  0.00    +0.000 A 
ATOM     11  C   UNL     1      -0.710  10.529  22.804  0.00  0.00    +0.000 A 
ATOM     12  C   UNL     1       0.095   9.426  23.141  0.00  0.00    +0.000 A 
ATOM     13  C   UNL     1       0.868   8.756  22.183  0.00  0.00    +0.000 A 
ATOM     14  C   UNL     1       0.804   9.222  20.873  0.00  0.00    +0.000 A 
ATOM     15  C   UNL     1       0.004  10.324  20.548  0.00  0.00    +0.000 A 
ATOM     16  N   UNL     1       1.497   8.674  19.742  0.00  0.00    +0.000 N 
ENDBRANCH   2  16
ENDBRANCH   1   2
BRANCH   1  17
ATOM     17  C   UNL     1       2.392   5.449  21.095  0.00  0.00    +0.000 C 
BRANCH  17  18
ATOM     18  C   UNL     1       2.622   4.006  20.644  0.00  0.00    +0.000 C 
BRANCH  18  19
ATOM     19  C   UNL     1       3.318   3.931  19.286  0.00  0.00    +0.000 C 
BRANCH  19  20
ATOM     20  C   UNL     1       4.753   4.496  19.285  0.00  0.00    +0.000 C 
BRANCH  20  21
ATOM     21  N   UNL     1       4.914   5.673  18.419  0.00  0.00    +0.000 NA
ATOM     22  C   UNL     1       6.310   5.866  17.963  0.00  0.00    +0.000 C 
ATOM     23  C   UNL     1       6.827   4.803  16.977  0.00  0.00    +0.000 C 
ATOM     24  N   UNL     1       5.909   4.639  15.850  0.00  0.00    +0.000 N 
ATOM     25  C   UNL     1       6.430   4.537  14.581  0.00  0.00    +0.000 A 
ATOM     26  C   UNL     1       5.785   3.811  13.580  0.00  0.00    +0.000 A 
ATOM     27  C   UNL     1       6.327   3.754  12.296  0.00  0.00    +0.000 A 
ATOM     28  C   UNL     1       7.503   4.432  12.031  0.00  0.00    +0.000 A 
ATOM     29  C   UNL     1       8.096   5.124  13.065  0.00  0.00    +0.000 A 
ATOM     30  N   UNL     1       7.590   5.179  14.319  0.00  0.00    +0.000 NA
ATOM     31  C   UNL     1       4.469   4.620  16.099  0.00  0.00    +0.000 C 
ATOM     32  C   UNL     1       4.053   5.607  17.217  0.00  0.00    +0.000 C 
ENDBRANCH  20  21
ENDBRANCH  19  20
ENDBRANCH  18  19
ENDBRANCH  17  18
ENDBRANCH   1  17
TORSDOF 7
ENDMDL
MODEL 8
REMARK VINA RESULT:      -8.2      4.181     10.515
REMARK  Name = 
REMARK  7 active torsions:
REMARK  status: ('A' for Active; 'I' for Inactive)
REMARK    1  A    between atoms: N_14  and  C_15
REMARK    2  A    between atoms: C_15  and  C_16
REMARK    3  A    between atoms: C_16  and  C_17
REMARK    4  A    between atoms: C_17  and  C_18
REMARK    5  A    between atoms: C_18  and  C_19
REMARK    6  A    between atoms: C_19  and  C_20
REMARK    7  A    between atoms: C_20  and  N_21
REMARK                            x       y       z     vdW  Elec       q    Type
REMARK                         _______ _______ _______ _____ _____    ______ ____
ROOT
ATOM      1  C   UNL     1      10.582  11.397  18.345  0.00  0.00    +0.000 C 
ENDROOT
BRANCH   1   2
ATOM      2  C   UNL     1      10.481  12.888  18.035  0.00  0.00    +0.000 C 
BRANCH   2  16
ATOM      3  O   UNL     1      10.152  12.635  21.442  0.00  0.00    +0.000 OA
ATOM      4  S   UNL     1      10.176  13.807  20.599  0.00  0.00    +0.000 S 
ATOM      5  O   UNL     1      11.083  14.918  20.733  0.00  0.00    +0.000 OA
ATOM      6  C   UNL     1       8.689  14.582  21.143  0.00  0.00    +0.000 A 
ATOM      7  C   UNL     1       8.354  15.113  22.377  0.00  0.00    +0.000 A 
ATOM      8  C   UNL     1       7.072  15.676  22.486  0.00  0.00    +0.000 A 
ATOM      9  C   UNL     1       6.180  15.690  21.397  0.00  0.00    +0.000 A 
ATOM     10  C   UNL     1       6.551  15.142  20.157  0.00  0.00    +0.000 A 
ATOM     11  C   UNL     1       5.750  15.100  19.001  0.00  0.00    +0.000 A 
ATOM     12  C   UNL     1       6.240  14.522  17.817  0.00  0.00    +0.000 A 
ATOM     13  C   UNL     1       7.526  13.971  17.742  0.00  0.00    +0.000 A 
ATOM     14  C   UNL     1       8.310  14.023  18.891  0.00  0.00    +0.000 A 
ATOM     15  C   UNL     1       7.811  14.595  20.067  0.00  0.00    +0.000 A 
ATOM     16  N   UNL     1       9.653  13.535  19.025  0.00  0.00    +0.000 N 
ENDBRANCH   2  16
ENDBRANCH   1   2
BRANCH   1  17
ATOM     17  C   UNL     1       9.259  10.828  18.837  0.00  0.00    +0.000 C 
BRANCH  17  18
ATOM     18  C   UNL     1       8.572   9.962  17.780  0.00  0.00    +0.000 C 
BRANCH  18  19
ATOM     19  C   UNL     1       8.354   8.529  18.261  0.00  0.00    +0.000 C 
BRANCH  19  20
ATOM     20  C   UNL     1       7.329   7.735  17.425  0.00  0.00    +0.000 C 
BRANCH  20  21
ATOM     21  N   UNL     1       7.644   6.302  17.325  0.00  0.00    +0.000 NA
ATOM     22  C   UNL     1       7.426   5.576  18.598  0.00  0.00    +0.000 C 
ATOM     23  C   UNL     1       5.955   5.444  19.031  0.00  0.00    +0.000 C 
ATOM     24  N   UNL     1       5.135   4.895  17.950  0.00  0.00    +0.000 N 
ATOM     25  C   UNL     1       4.204   3.929  18.251  0.00  0.00    +0.000 A 
ATOM     26  C   UNL     1       3.030   3.787  17.511  0.00  0.00    +0.000 A 
ATOM     27  C   UNL     1       2.121   2.776  17.825  0.00  0.00    +0.000 A 
ATOM     28  C   UNL     1       2.406   1.917  18.871  0.00  0.00    +0.000 A 
ATOM     29  C   UNL     1       3.578   2.116  19.568  0.00  0.00    +0.000 A 
ATOM     30  N   UNL     1       4.463   3.098  19.284  0.00  0.00    +0.000 NA
ATOM     31  C   UNL     1       5.350   5.365  16.583  0.00  0.00    +0.000 C 
ATOM     32  C   UNL     1       6.846   5.625  16.279  0.00  0.00    +0.000 C 
ENDBRANCH  20  21
ENDBRANCH  19  20
ENDBRANCH  18  19
ENDBRANCH  17  18
ENDBRANCH   1  17
TORSDOF 7
ENDMDL
MODEL 9
REMARK VINA RESULT:      -8.2      3.426     10.782
REMARK  Name = 
REMARK  7 active torsions:
REMARK  status: ('A' for Active; 'I' for Inactive)
REMARK    1  A    between atoms: N_14  and  C_15
REMARK    2  A    between atoms: C_15  and  C_16
REMARK    3  A    between atoms: C_16  and  C_17
REMARK    4  A    between atoms: C_17  and  C_18
REMARK    5  A    between atoms: C_18  and  C_19
REMARK    6  A    between atoms: C_19  and  C_20
REMARK    7  A    between atoms: C_20  and  N_21
REMARK                            x       y       z     vdW  Elec       q    Type
REMARK                         _______ _______ _______ _____ _____    ______ ____
ROOT
ATOM      1  C   UNL     1       9.008   9.819  17.878  0.00  0.00    +0.000 C 
ENDROOT
BRANCH   1   2
ATOM      2  C   UNL     1       9.234  10.353  19.289  0.00  0.00    +0.000 C 
BRANCH   2  16
ATOM      3  O   UNL     1      10.457  12.799  17.216  0.00  0.00    +0.000 OA
ATOM      4  S   UNL     1       9.167  12.686  17.853  0.00  0.00    +0.000 S 
ATOM      5  O   UNL     1       7.894  12.701  17.178  0.00  0.00    +0.000 OA
ATOM      6  C   UNL     1       9.095  14.264  18.636  0.00  0.00    +0.000 A 
ATOM      7  C   UNL     1       9.045  15.535  18.090  0.00  0.00    +0.000 A 
ATOM      8  C   UNL     1       8.986  16.603  19.000  0.00  0.00    +0.000 A 
ATOM      9  C   UNL     1       8.984  16.384  20.391  0.00  0.00    +0.000 A 
ATOM     10  C   UNL     1       9.037  15.081  20.914  0.00  0.00    +0.000 A 
ATOM     11  C   UNL     1       9.039  14.739  22.279  0.00  0.00    +0.000 A 
ATOM     12  C   UNL     1       9.094  13.391  22.674  0.00  0.00    +0.000 A 
ATOM     13  C   UNL     1       9.150  12.349  21.739  0.00  0.00    +0.000 A 
ATOM     14  C   UNL     1       9.143  12.700  20.392  0.00  0.00    +0.000 A 
ATOM     15  C   UNL     1       9.094  14.046  20.008  0.00  0.00    +0.000 A 
ATOM     16  N   UNL     1       9.177  11.795  19.278  0.00  0.00    +0.000 N 
ENDBRANCH   2  16
ENDBRANCH   1   2
BRANCH   1  17
ATOM     17  C   UNL     1       7.859   8.822  17.825  0.00  0.00    +0.000 C 
BRANCH  17  18
ATOM     18  C   UNL     1       8.250   7.457  18.395  0.00  0.00    +0.000 C 
BRANCH  18  19
ATOM     19  C   UNL     1       7.186   6.394  18.127  0.00  0.00    +0.000 C 
BRANCH  19  20
ATOM     20  C   UNL     1       7.126   5.923  16.659  0.00  0.00    +0.000 C 
BRANCH  20  21
ATOM     21  N   UNL     1       5.778   6.002  16.077  0.00  0.00    +0.000 NA
ATOM     22  C   UNL     1       5.174   4.669  15.844  0.00  0.00    +0.000 C 
ATOM     23  C   UNL     1       4.813   3.885  17.118  0.00  0.00    +0.000 C 
ATOM     24  N   UNL     1       3.998   4.696  18.023  0.00  0.00    +0.000 N 
ATOM     25  C   UNL     1       2.911   4.116  18.636  0.00  0.00    +0.000 A 
ATOM     26  C   UNL     1       2.465   4.537  19.887  0.00  0.00    +0.000 A 
ATOM     27  C   UNL     1       1.341   3.947  20.466  0.00  0.00    +0.000 A 
ATOM     28  C   UNL     1       0.677   2.947  19.778  0.00  0.00    +0.000 A 
ATOM     29  C   UNL     1       1.175   2.569  18.550  0.00  0.00    +0.000 A 
ATOM     30  N   UNL     1       2.269   3.124  17.981  0.00  0.00    +0.000 NA
ATOM     31  C   UNL     1       4.341   6.102  18.225  0.00  0.00    +0.000 C 
ATOM     32  C   UNL     1       4.845   6.777  16.925  0.00  0.00    +0.000 C 
ENDBRANCH  20  21
ENDBRANCH  19  20
ENDBRANCH  18  19
ENDBRANCH  17  18
ENDBRANCH   1  17
TORSDOF 7
ENDMDL
