MODEL 1
REMARK VINA RESULT:      -9.9      0.000      0.000
REMARK  Name = 
REMARK  6 active torsions:
REMARK  status: ('A' for Active; 'I' for Inactive)
REMARK    1  A    between atoms: C_2  and  C_4
REMARK    2  A    between atoms: C_9  and  N_10
REMARK    3  A    between atoms: N_10  and  C_11
REMARK    4  A    between atoms: C_13  and  O_14
REMARK    5  A    between atoms: O_14  and  C_15
REMARK    6  A    between atoms: C_27  and  C_28
REMARK                            x       y       z     vdW  Elec       q    Type
REMARK                         _______ _______ _______ _____ _____    ______ ____
ROOT
ATOM      1  C   UNL     1       3.563   4.361  19.257  0.00  0.00    +0.000 A 
ATOM      2  C   UNL     1       3.369   5.646  19.799  0.00  0.00    +0.000 A 
ATOM      3  C   UNL     1       2.136   5.978  20.335  0.00  0.00    +0.000 A 
ATOM      4  N   UNL     1       1.070   5.153  20.277  0.00  0.00    +0.000 NA
ATOM      5  C   UNL     1       1.261   3.934  19.736  0.00  0.00    +0.000 A 
ATOM      6  C   UNL     1       2.473   3.480  19.224  0.00  0.00    +0.000 A 
ENDROOT
BRANCH   6   7
ATOM      7  C   UNL     1       2.513   2.074  18.716  0.00  0.00    +0.000 C 
ATOM      8  F   UNL     1       3.633   1.387  19.078  0.00  0.00    +0.000 F 
ATOM      9  F   UNL     1       1.461   1.331  19.158  0.00  0.00    +0.000 F 
ATOM     10  F   UNL     1       2.466   2.011  17.357  0.00  0.00    +0.000 F 
ENDBRANCH   6   7
BRANCH   1  11
ATOM     11  N   UNL     1       4.859   3.975  18.826  0.00  0.00    +0.000 N 
ATOM     12  H   UNL     1       5.546   3.843  19.577  0.00  0.00    +0.000 HD
BRANCH  11  18
ATOM     13  C   UNL     1       6.665   5.199  17.638  0.00  0.00    +0.000 A 
ATOM     14  C   UNL     1       7.290   5.540  16.424  0.00  0.00    +0.000 A 
ATOM     15  C   UNL     1       6.803   5.068  15.206  0.00  0.00    +0.000 A 
ATOM     16  C   UNL     1       5.668   4.269  15.185  0.00  0.00    +0.000 A 
ATOM     17  C   UNL     1       5.034   3.931  16.380  0.00  0.00    +0.000 A 
ATOM     18  C   UNL     1       5.523   4.367  17.628  0.00  0.00    +0.000 A 
BRANCH  13  20
ATOM     19  N   UNL     1       8.126   6.841  18.727  0.00  0.00    +0.000 N 
ATOM     20  C   UNL     1       7.289   5.770  18.868  0.00  0.00    +0.000 C 
ATOM     21  O   UNL     1       7.041   5.325  19.983  0.00  0.00    +0.000 OA
ATOM     22  H   UNL     1       8.429   7.302  19.575  0.00  0.00    +0.000 HD
ATOM     23  H   UNL     1       8.172   7.350  17.850  0.00  0.00    +0.000 HD
ENDBRANCH  13  20
ENDBRANCH  11  18
ENDBRANCH   1  11
BRANCH   3  24
ATOM     24  O   UNL     1       2.038   7.191  21.019  0.00  0.00    +0.000 OA
BRANCH  24  25
ATOM     25  C   UNL     1       1.490   8.254  20.314  0.00  0.00    +0.000 A 
ATOM     26  C   UNL     1       1.757   8.415  18.945  0.00  0.00    +0.000 A 
ATOM     27  C   UNL     1       1.310   9.543  18.269  0.00  0.00    +0.000 A 
ATOM     28  C   UNL     1       0.576  10.508  18.949  0.00  0.00    +0.000 A 
ATOM     29  C   UNL     1       0.231  10.334  20.299  0.00  0.00    +0.000 A 
ATOM     30  C   UNL     1      -0.521  11.316  20.962  0.00  0.00    +0.000 A 
ATOM     31  C   UNL     1      -0.920  11.138  22.285  0.00  0.00    +0.000 A 
ATOM     32  C   UNL     1      -0.585   9.968  22.956  0.00  0.00    +0.000 A 
ATOM     33  C   UNL     1       0.201   8.999  22.323  0.00  0.00    +0.000 A 
ATOM     34  C   UNL     1       0.648   9.170  20.993  0.00  0.00    +0.000 A 
ENDBRANCH  24  25
ENDBRANCH   3  24
TORSDOF 6
ENDMDL
MODEL 2
REMARK VINA RESULT:      -9.4      1.339      1.537
REMARK  Name = 
REMARK  6 active torsions:
REMARK  status: ('A' for Active; 'I' for Inactive)
REMARK    1  A    between atoms: C_2  and  C_4
REMARK    2  A    between atoms: C_9  and  N_10
REMARK    3  A    between atoms: N_10  and  C_11
REMARK    4  A    between atoms: C_13  and  O_14
REMARK    5  A    between atoms: O_14  and  C_15
REMARK    6  A    between atoms: C_27  and  C_28
REMARK                            x       y       z     vdW  Elec       q    Type
REMARK                         _______ _______ _______ _____ _____    ______ ____
ROOT
ATOM      1  C   UNL     1       2.576   4.638  18.187  0.00  0.00    +0.000 A 
ATOM      2  C   UNL     1       2.690   6.015  18.460  0.00  0.00    +0.000 A 
ATOM      3  C   UNL     1       2.137   6.526  19.621  0.00  0.00    +0.000 A 
ATOM      4  N   UNL     1       1.402   5.776  20.470  0.00  0.00    +0.000 NA
ATOM      5  C   UNL     1       1.281   4.464  20.188  0.00  0.00    +0.000 A 
ATOM      6  C   UNL     1       1.847   3.841  19.079  0.00  0.00    +0.000 A 
ENDROOT
BRANCH   6   7
ATOM      7  C   UNL     1       1.657   2.362  18.960  0.00  0.00    +0.000 C 
ATOM      8  F   UNL     1       2.506   1.765  18.076  0.00  0.00    +0.000 F 
ATOM      9  F   UNL     1       1.838   1.716  20.144  0.00  0.00    +0.000 F 
ATOM     10  F   UNL     1       0.403   2.032  18.545  0.00  0.00    +0.000 F 
ENDBRANCH   6   7
BRANCH   1  11
ATOM     11  N   UNL     1       3.252   4.093  17.065  0.00  0.00    +0.000 N 
ATOM     12  H   UNL     1       2.999   3.126  16.831  0.00  0.00    +0.000 HD
BRANCH  11  18
ATOM     13  C   UNL     1       5.675   4.335  17.557  0.00  0.00    +0.000 A 
ATOM     14  C   UNL     1       6.979   4.584  17.088  0.00  0.00    +0.000 A 
ATOM     15  C   UNL     1       7.221   4.849  15.741  0.00  0.00    +0.000 A 
ATOM     16  C   UNL     1       6.159   4.893  14.849  0.00  0.00    +0.000 A 
ATOM     17  C   UNL     1       4.862   4.656  15.301  0.00  0.00    +0.000 A 
ATOM     18  C   UNL     1       4.590   4.354  16.651  0.00  0.00    +0.000 A 
BRANCH  13  20
ATOM     19  N   UNL     1       5.269   2.788  19.416  0.00  0.00    +0.000 N 
ATOM     20  C   UNL     1       5.556   4.063  19.020  0.00  0.00    +0.000 C 
ATOM     21  O   UNL     1       5.742   4.941  19.855  0.00  0.00    +0.000 OA
ATOM     22  H   UNL     1       5.329   2.590  20.407  0.00  0.00    +0.000 HD
ATOM     23  H   UNL     1       5.326   2.016  18.759  0.00  0.00    +0.000 HD
ENDBRANCH  13  20
ENDBRANCH  11  18
ENDBRANCH   1  11
BRANCH   3  24
ATOM     24  O   UNL     1       2.423   7.854  19.941  0.00  0.00    +0.000 OA
BRANCH  24  25
ATOM     25  C   UNL     1       1.418   8.779  19.694  0.00  0.00    +0.000 A 
ATOM     26  C   UNL     1       1.114   9.167  18.379  0.00  0.00    +0.000 A 
ATOM     27  C   UNL     1       0.194  10.180  18.140  0.00  0.00    +0.000 A 
ATOM     28  C   UNL     1      -0.444  10.799  19.210  0.00  0.00    +0.000 A 
ATOM     29  C   UNL     1      -0.214  10.377  20.528  0.00  0.00    +0.000 A 
ATOM     30  C   UNL     1      -0.878  11.008  21.592  0.00  0.00    +0.000 A 
ATOM     31  C   UNL     1      -0.706  10.569  22.902  0.00  0.00    +0.000 A 
ATOM     32  C   UNL     1       0.121   9.483  23.164  0.00  0.00    +0.000 A 
ATOM     33  C   UNL     1       0.824   8.871  22.120  0.00  0.00    +0.000 A 
ATOM     34  C   UNL     1       0.694   9.318  20.787  0.00  0.00    +0.000 A 
ENDBRANCH  24  25
ENDBRANCH   3  24
TORSDOF 6
ENDMDL
MODEL 3
REMARK VINA RESULT:      -9.3      1.421      1.953
REMARK  Name = 
REMARK  6 active torsions:
REMARK  status: ('A' for Active; 'I' for Inactive)
REMARK    1  A    between atoms: C_2  and  C_4
REMARK    2  A    between atoms: C_9  and  N_10
REMARK    3  A    between atoms: N_10  and  C_11
REMARK    4  A    between atoms: C_13  and  O_14
REMARK    5  A    between atoms: O_14  and  C_15
REMARK    6  A    between atoms: C_27  and  C_28
REMARK                            x       y       z     vdW  Elec       q    Type
REMARK                         _______ _______ _______ _____ _____    ______ ____
ROOT
ATOM      1  C   UNL     1       3.235   4.590  18.919  0.00  0.00    +0.000 A 
ATOM      2  C   UNL     1       3.059   5.856  19.512  0.00  0.00    +0.000 A 
ATOM      3  C   UNL     1       1.955   6.082  20.316  0.00  0.00    +0.000 A 
ATOM      4  N   UNL     1       0.978   5.167  20.486  0.00  0.00    +0.000 NA
ATOM      5  C   UNL     1       1.146   3.967  19.897  0.00  0.00    +0.000 A 
ATOM      6  C   UNL     1       2.246   3.618  19.119  0.00  0.00    +0.000 A 
ENDROOT
BRANCH   6   7
ATOM      7  C   UNL     1       2.290   2.219  18.593  0.00  0.00    +0.000 C 
ATOM      8  F   UNL     1       3.376   1.507  19.009  0.00  0.00    +0.000 F 
ATOM      9  F   UNL     1       1.202   1.488  18.963  0.00  0.00    +0.000 F 
ATOM     10  F   UNL     1       2.321   2.176  17.233  0.00  0.00    +0.000 F 
ENDBRANCH   6   7
BRANCH   1  11
ATOM     11  N   UNL     1       4.429   4.317  18.202  0.00  0.00    +0.000 N 
ATOM     12  H   UNL     1       4.643   3.322  18.074  0.00  0.00    +0.000 HD
BRANCH  11  18
ATOM     13  C   UNL     1       6.112   5.755  17.075  0.00  0.00    +0.000 A 
ATOM     14  C   UNL     1       7.305   6.499  17.153  0.00  0.00    +0.000 A 
ATOM     15  C   UNL     1       8.028   6.577  18.343  0.00  0.00    +0.000 A 
ATOM     16  C   UNL     1       7.581   5.890  19.463  0.00  0.00    +0.000 A 
ATOM     17  C   UNL     1       6.406   5.143  19.397  0.00  0.00    +0.000 A 
ATOM     18  C   UNL     1       5.637   5.072  18.218  0.00  0.00    +0.000 A 
BRANCH  13  20
ATOM     19  N   UNL     1       5.072   6.960  15.210  0.00  0.00    +0.000 N 
ATOM     20  C   UNL     1       5.436   5.757  15.744  0.00  0.00    +0.000 C 
ATOM     21  O   UNL     1       5.239   4.721  15.120  0.00  0.00    +0.000 OA
ATOM     22  H   UNL     1       4.745   6.957  14.252  0.00  0.00    +0.000 HD
ATOM     23  H   UNL     1       5.417   7.829  15.606  0.00  0.00    +0.000 HD
ENDBRANCH  13  20
ENDBRANCH  11  18
ENDBRANCH   1  11
BRANCH   3  24
ATOM     24  O   UNL     1       1.910   7.284  21.023  0.00  0.00    +0.000 OA
BRANCH  24  25
ATOM     25  C   UNL     1       1.357   8.371  20.358  0.00  0.00    +0.000 A 
ATOM     26  C   UNL     1       1.594   8.564  18.988  0.00  0.00    +0.000 A 
ATOM     27  C   UNL     1       1.144   9.713  18.351  0.00  0.00    +0.000 A 
ATOM     28  C   UNL     1       0.436  10.668  19.072  0.00  0.00    +0.000 A 
ATOM     29  C   UNL     1       0.120  10.463  20.424  0.00  0.00    +0.000 A 
ATOM     30  C   UNL     1      -0.605  11.436  21.130  0.00  0.00    +0.000 A 
ATOM     31  C   UNL     1      -0.976  11.228  22.456  0.00  0.00    +0.000 A 
ATOM     32  C   UNL     1      -0.638  10.038  23.090  0.00  0.00    +0.000 A 
ATOM     33  C   UNL     1       0.123   9.077  22.414  0.00  0.00    +0.000 A 
ATOM     34  C   UNL     1       0.541   9.278  21.080  0.00  0.00    +0.000 A 
ENDBRANCH  24  25
ENDBRANCH   3  24
TORSDOF 6
ENDMDL
MODEL 4
REMARK VINA RESULT:      -9.1      1.142      2.040
REMARK  Name = 
REMARK  6 active torsions:
REMARK  status: ('A' for Active; 'I' for Inactive)
REMARK    1  A    between atoms: C_2  and  C_4
REMARK    2  A    between atoms: C_9  and  N_10
REMARK    3  A    between atoms: N_10  and  C_11
REMARK    4  A    between atoms: C_13  and  O_14
REMARK    5  A    between atoms: O_14  and  C_15
REMARK    6  A    between atoms: C_27  and  C_28
REMARK                            x       y       z     vdW  Elec       q    Type
REMARK                         _______ _______ _______ _____ _____    ______ ____
ROOT
ATOM      1  C   UNL     1       3.438   4.838  19.485  0.00  0.00    +0.000 A 
ATOM      2  C   UNL     1       3.241   6.204  19.203  0.00  0.00    +0.000 A 
ATOM      3  C   UNL     1       2.162   6.866  19.763  0.00  0.00    +0.000 A 
ATOM      4  N   UNL     1       1.224   6.235  20.500  0.00  0.00    +0.000 NA
ATOM      5  C   UNL     1       1.409   4.924  20.746  0.00  0.00    +0.000 A 
ATOM      6  C   UNL     1       2.490   4.180  20.280  0.00  0.00    +0.000 A 
ENDROOT
BRANCH   6   7
ATOM      7  C   UNL     1       2.561   2.748  20.703  0.00  0.00    +0.000 C 
ATOM      8  F   UNL     1       3.743   2.403  21.289  0.00  0.00    +0.000 F 
ATOM      9  F   UNL     1       1.592   2.420  21.601  0.00  0.00    +0.000 F 
ATOM     10  F   UNL     1       2.406   1.889  19.659  0.00  0.00    +0.000 F 
ENDBRANCH   6   7
BRANCH   1  11
ATOM     11  N   UNL     1       4.611   4.193  19.018  0.00  0.00    +0.000 N 
ATOM     12  H   UNL     1       5.279   3.919  19.749  0.00  0.00    +0.000 HD
BRANCH  11  18
ATOM     13  C   UNL     1       6.541   5.127  17.762  0.00  0.00    +0.000 A 
ATOM     14  C   UNL     1       7.191   5.327  16.529  0.00  0.00    +0.000 A 
ATOM     15  C   UNL     1       6.638   4.855  15.340  0.00  0.00    +0.000 A 
ATOM     16  C   UNL     1       5.415   4.200  15.364  0.00  0.00    +0.000 A 
ATOM     17  C   UNL     1       4.756   4.002  16.577  0.00  0.00    +0.000 A 
ATOM     18  C   UNL     1       5.306   4.439  17.799  0.00  0.00    +0.000 A 
BRANCH  13  20
ATOM     19  N   UNL     1       8.110   6.718  18.772  0.00  0.00    +0.000 N 
ATOM     20  C   UNL     1       7.241   5.680  18.959  0.00  0.00    +0.000 C 
ATOM     21  O   UNL     1       7.027   5.251  20.086  0.00  0.00    +0.000 OA
ATOM     22  H   UNL     1       8.468   7.172  19.603  0.00  0.00    +0.000 HD
ATOM     23  H   UNL     1       8.135   7.220  17.891  0.00  0.00    +0.000 HD
ENDBRANCH  13  20
ENDBRANCH  11  18
ENDBRANCH   1  11
BRANCH   3  24
ATOM     24  O   UNL     1       2.103   8.251  19.603  0.00  0.00    +0.000 OA
BRANCH  24  25
ATOM     25  C   UNL     1       1.324   8.945  20.519  0.00  0.00    +0.000 A 
ATOM     26  C   UNL     1       1.469   8.716  21.896  0.00  0.00    +0.000 A 
ATOM     27  C   UNL     1       0.608   9.319  22.804  0.00  0.00    +0.000 A 
ATOM     28  C   UNL     1      -0.391  10.171  22.345  0.00  0.00    +0.000 A 
ATOM     29  C   UNL     1      -0.508  10.475  20.980  0.00  0.00    +0.000 A 
ATOM     30  C   UNL     1      -1.518  11.346  20.541  0.00  0.00    +0.000 A 
ATOM     31  C   UNL     1      -1.618  11.704  19.199  0.00  0.00    +0.000 A 
ATOM     32  C   UNL     1      -0.701  11.207  18.281  0.00  0.00    +0.000 A 
ATOM     33  C   UNL     1       0.284  10.303  18.695  0.00  0.00    +0.000 A 
ATOM     34  C   UNL     1       0.387   9.897  20.044  0.00  0.00    +0.000 A 
ENDBRANCH  24  25
ENDBRANCH   3  24
TORSDOF 6
ENDMDL
MODEL 5
REMARK VINA RESULT:      -8.7      2.696      4.427
REMARK  Name = 
REMARK  6 active torsions:
REMARK  status: ('A' for Active; 'I' for Inactive)
REMARK    1  A    between atoms: C_2  and  C_4
REMARK    2  A    between atoms: C_9  and  N_10
REMARK    3  A    between atoms: N_10  and  C_11
REMARK    4  A    between atoms: C_13  and  O_14
REMARK    5  A    between atoms: O_14  and  C_15
REMARK    6  A    between atoms: C_27  and  C_28
REMARK                            x       y       z     vdW  Elec       q    Type
REMARK                         _______ _______ _______ _____ _____    ______ ____
ROOT
ATOM      1  C   UNL     1       2.740   6.725  19.465  0.00  0.00    +0.000 A 
ATOM      2  C   UNL     1       1.849   7.548  20.181  0.00  0.00    +0.000 A 
ATOM      3  C   UNL     1       1.435   8.746  19.626  0.00  0.00    +0.000 A 
ATOM      4  N   UNL     1       1.924   9.216  18.459  0.00  0.00    +0.000 NA
ATOM      5  C   UNL     1       2.793   8.432  17.793  0.00  0.00    +0.000 A 
ATOM      6  C   UNL     1       3.228   7.185  18.234  0.00  0.00    +0.000 A 
ENDROOT
BRANCH   6   7
ATOM      7  C   UNL     1       4.150   6.429  17.333  0.00  0.00    +0.000 C 
ATOM      8  F   UNL     1       3.693   5.193  16.985  0.00  0.00    +0.000 F 
ATOM      9  F   UNL     1       4.386   7.082  16.162  0.00  0.00    +0.000 F 
ATOM     10  F   UNL     1       5.373   6.223  17.895  0.00  0.00    +0.000 F 
ENDBRANCH   6   7
BRANCH   1  11
ATOM     11  N   UNL     1       3.064   5.441  19.973  0.00  0.00    +0.000 N 
ATOM     12  H   UNL     1       4.055   5.297  20.197  0.00  0.00    +0.000 HD
BRANCH  11  18
ATOM     13  C   UNL     1       3.212   3.003  19.519  0.00  0.00    +0.000 A 
ATOM     14  C   UNL     1       2.562   1.799  19.185  0.00  0.00    +0.000 A 
ATOM     15  C   UNL     1       1.187   1.763  18.956  0.00  0.00    +0.000 A 
ATOM     16  C   UNL     1       0.449   2.935  19.033  0.00  0.00    +0.000 A 
ATOM     17  C   UNL     1       1.081   4.136  19.354  0.00  0.00    +0.000 A 
ATOM     18  C   UNL     1       2.463   4.197  19.623  0.00  0.00    +0.000 A 
BRANCH  13  20
ATOM     19  N   UNL     1       5.178   1.741  20.267  0.00  0.00    +0.000 N 
ATOM     20  C   UNL     1       4.685   2.901  19.740  0.00  0.00    +0.000 C 
ATOM     21  O   UNL     1       5.447   3.810  19.430  0.00  0.00    +0.000 OA
ATOM     22  H   UNL     1       6.184   1.634  20.280  0.00  0.00    +0.000 HD
ATOM     23  H   UNL     1       4.596   0.911  20.326  0.00  0.00    +0.000 HD
ENDBRANCH  13  20
ENDBRANCH  11  18
ENDBRANCH   1  11
BRANCH   3  24
ATOM     24  O   UNL     1       0.420   9.442  20.283  0.00  0.00    +0.000 OA
BRANCH  24  25
ATOM     25  C   UNL     1      -0.270  10.384  19.531  0.00  0.00    +0.000 A 
ATOM     26  C   UNL     1      -1.321   9.991  18.688  0.00  0.00    +0.000 A 
ATOM     27  C   UNL     1      -1.930  10.913  17.846  0.00  0.00    +0.000 A 
ATOM     28  C   UNL     1      -1.506  12.238  17.853  0.00  0.00    +0.000 A 
ATOM     29  C   UNL     1      -0.509  12.671  18.741  0.00  0.00    +0.000 A 
ATOM     30  C   UNL     1      -0.105  14.016  18.739  0.00  0.00    +0.000 A 
ATOM     31  C   UNL     1       0.843  14.478  19.648  0.00  0.00    +0.000 A 
ATOM     32  C   UNL     1       1.389  13.604  20.581  0.00  0.00    +0.000 A 
ATOM     33  C   UNL     1       1.030  12.252  20.567  0.00  0.00    +0.000 A 
ATOM     34  C   UNL     1       0.096  11.750  19.634  0.00  0.00    +0.000 A 
ENDBRANCH  24  25
ENDBRANCH   3  24
TORSDOF 6
ENDMDL
MODEL 6
REMARK VINA RESULT:      -8.7      2.021      6.495
REMARK  Name = 
REMARK  6 active torsions:
REMARK  status: ('A' for Active; 'I' for Inactive)
REMARK    1  A    between atoms: C_2  and  C_4
REMARK    2  A    between atoms: C_9  and  N_10
REMARK    3  A    between atoms: N_10  and  C_11
REMARK    4  A    between atoms: C_13  and  O_14
REMARK    5  A    between atoms: O_14  and  C_15
REMARK    6  A    between atoms: C_27  and  C_28
REMARK                            x       y       z     vdW  Elec       q    Type
REMARK                         _______ _______ _______ _____ _____    ______ ____
ROOT
ATOM      1  C   UNL     1       3.073   4.802  20.231  0.00  0.00    +0.000 A 
ATOM      2  C   UNL     1       4.456   4.809  19.965  0.00  0.00    +0.000 A 
ATOM      3  C   UNL     1       5.078   3.638  19.567  0.00  0.00    +0.000 A 
ATOM      4  N   UNL     1       4.434   2.454  19.511  0.00  0.00    +0.000 NA
ATOM      5  C   UNL     1       3.115   2.454  19.788  0.00  0.00    +0.000 A 
ATOM      6  C   UNL     1       2.384   3.584  20.140  0.00  0.00    +0.000 A 
ENDROOT
BRANCH   6   7
ATOM      7  C   UNL     1       0.915   3.404  20.354  0.00  0.00    +0.000 C 
ATOM      8  F   UNL     1       0.218   4.574  20.418  0.00  0.00    +0.000 F 
ATOM      9  F   UNL     1       0.330   2.675  19.365  0.00  0.00    +0.000 F 
ATOM     10  F   UNL     1       0.636   2.748  21.513  0.00  0.00    +0.000 F 
ENDBRANCH   6   7
BRANCH   1  11
ATOM     11  N   UNL     1       2.411   6.024  20.513  0.00  0.00    +0.000 N 
ATOM     12  H   UNL     1       1.607   5.950  21.146  0.00  0.00    +0.000 HD
BRANCH  11  18
ATOM     13  C   UNL     1       1.524   8.293  20.022  0.00  0.00    +0.000 A 
ATOM     14  C   UNL     1       1.392   9.363  19.117  0.00  0.00    +0.000 A 
ATOM     15  C   UNL     1       1.950   9.300  17.841  0.00  0.00    +0.000 A 
ATOM     16  C   UNL     1       2.625   8.155  17.444  0.00  0.00    +0.000 A 
ATOM     17  C   UNL     1       2.756   7.084  18.327  0.00  0.00    +0.000 A 
ATOM     18  C   UNL     1       2.231   7.132  19.634  0.00  0.00    +0.000 A 
BRANCH  13  20
ATOM     19  N   UNL     1       1.662   8.933  22.385  0.00  0.00    +0.000 N 
ATOM     20  C   UNL     1       0.882   8.491  21.355  0.00  0.00    +0.000 C 
ATOM     21  O   UNL     1      -0.317   8.300  21.527  0.00  0.00    +0.000 OA
ATOM     22  H   UNL     1       1.188   9.196  23.240  0.00  0.00    +0.000 HD
ATOM     23  H   UNL     1       2.593   9.298  22.210  0.00  0.00    +0.000 HD
ENDBRANCH  13  20
ENDBRANCH  11  18
ENDBRANCH   1  11
BRANCH   3  24
ATOM     24  O   UNL     1       6.405   3.727  19.144  0.00  0.00    +0.000 OA
BRANCH  24  25
ATOM     25  C   UNL     1       6.756   4.878  18.451  0.00  0.00    +0.000 A 
ATOM     26  C   UNL     1       7.582   5.844  19.046  0.00  0.00    +0.000 A 
ATOM     27  C   UNL     1       7.834   7.048  18.401  0.00  0.00    +0.000 A 
ATOM     28  C   UNL     1       7.279   7.288  17.148  0.00  0.00    +0.000 A 
ATOM     29  C   UNL     1       6.513   6.307  16.500  0.00  0.00    +0.000 A 
ATOM     30  C   UNL     1       5.973   6.567  15.230  0.00  0.00    +0.000 A 
ATOM     31  C   UNL     1       5.255   5.589  14.545  0.00  0.00    +0.000 A 
ATOM     32  C   UNL     1       5.082   4.333  15.116  0.00  0.00    +0.000 A 
ATOM     33  C   UNL     1       5.576   4.073  16.399  0.00  0.00    +0.000 A 
ATOM     34  C   UNL     1       6.278   5.058  17.129  0.00  0.00    +0.000 A 
ENDBRANCH  24  25
ENDBRANCH   3  24
TORSDOF 6
ENDMDL
MODEL 7
REMARK VINA RESULT:      -8.6      4.278      8.587
REMARK  Name = 
REMARK  6 active torsions:
REMARK  status: ('A' for Active; 'I' for Inactive)
REMARK    1  A    between atoms: C_2  and  C_4
REMARK    2  A    between atoms: C_9  and  N_10
REMARK    3  A    between atoms: N_10  and  C_11
REMARK    4  A    between atoms: C_13  and  O_14
REMARK    5  A    between atoms: O_14  and  C_15
REMARK    6  A    between atoms: C_27  and  C_28
REMARK                            x       y       z     vdW  Elec       q    Type
REMARK                         _______ _______ _______ _____ _____    ______ ____
ROOT
ATOM      1  C   UNL     1       0.861   9.782  18.928  0.00  0.00    +0.000 A 
ATOM      2  C   UNL     1       1.539   9.008  17.966  0.00  0.00    +0.000 A 
ATOM      3  C   UNL     1       2.211   7.866  18.364  0.00  0.00    +0.000 A 
ATOM      4  N   UNL     1       2.329   7.503  19.658  0.00  0.00    +0.000 NA
ATOM      5  C   UNL     1       1.695   8.262  20.573  0.00  0.00    +0.000 A 
ATOM      6  C   UNL     1       0.945   9.395  20.273  0.00  0.00    +0.000 A 
ENDROOT
BRANCH   6   7
ATOM      7  C   UNL     1       0.262  10.080  21.414  0.00  0.00    +0.000 C 
ATOM      8  F   UNL     1      -1.098  10.007  21.368  0.00  0.00    +0.000 F 
ATOM      9  F   UNL     1       0.622   9.564  22.621  0.00  0.00    +0.000 F 
ATOM     10  F   UNL     1       0.557  11.407  21.474  0.00  0.00    +0.000 F 
ENDBRANCH   6   7
BRANCH   1  11
ATOM     11  N   UNL     1       0.066  10.878  18.506  0.00  0.00    +0.000 N 
ATOM     12  H   UNL     1       0.299  11.779  18.940  0.00  0.00    +0.000 HD
BRANCH  11  18
ATOM     13  C   UNL     1      -2.256  11.735  18.735  0.00  0.00    +0.000 A 
ATOM     14  C   UNL     1      -3.603  11.681  18.330  0.00  0.00    +0.000 A 
ATOM     15  C   UNL     1      -4.027  10.778  17.357  0.00  0.00    +0.000 A 
ATOM     16  C   UNL     1      -3.114   9.898  16.794  0.00  0.00    +0.000 A 
ATOM     17  C   UNL     1      -1.778   9.934  17.191  0.00  0.00    +0.000 A 
ATOM     18  C   UNL     1      -1.314  10.858  18.149  0.00  0.00    +0.000 A 
BRANCH  13  20
ATOM     19  N   UNL     1      -2.707  12.773  20.910  0.00  0.00    +0.000 N 
ATOM     20  C   UNL     1      -1.936  12.748  19.783  0.00  0.00    +0.000 C 
ATOM     21  O   UNL     1      -0.990  13.519  19.666  0.00  0.00    +0.000 OA
ATOM     22  H   UNL     1      -2.394  13.366  21.668  0.00  0.00    +0.000 HD
ATOM     23  H   UNL     1      -3.347  12.012  21.116  0.00  0.00    +0.000 HD
ENDBRANCH  13  20
ENDBRANCH  11  18
ENDBRANCH   1  11
BRANCH   3  24
ATOM     24  O   UNL     1       2.716   7.036  17.362  0.00  0.00    +0.000 OA
BRANCH  24  25
ATOM     25  C   UNL     1       3.613   6.056  17.766  0.00  0.00    +0.000 A 
ATOM     26  C   UNL     1       4.973   6.361  17.933  0.00  0.00    +0.000 A 
ATOM     27  C   UNL     1       5.889   5.356  18.219  0.00  0.00    +0.000 A 
ATOM     28  C   UNL     1       5.451   4.044  18.358  0.00  0.00    +0.000 A 
ATOM     29  C   UNL     1       4.087   3.725  18.271  0.00  0.00    +0.000 A 
ATOM     30  C   UNL     1       3.667   2.395  18.427  0.00  0.00    +0.000 A 
ATOM     31  C   UNL     1       2.314   2.066  18.398  0.00  0.00    +0.000 A 
ATOM     32  C   UNL     1       1.363   3.065  18.227  0.00  0.00    +0.000 A 
ATOM     33  C   UNL     1       1.768   4.390  18.027  0.00  0.00    +0.000 A 
ATOM     34  C   UNL     1       3.135   4.745  18.017  0.00  0.00    +0.000 A 
ENDBRANCH  24  25
ENDBRANCH   3  24
TORSDOF 6
ENDMDL
MODEL 8
REMARK VINA RESULT:      -8.5      4.309      8.622
REMARK  Name = 
REMARK  6 active torsions:
REMARK  status: ('A' for Active; 'I' for Inactive)
REMARK    1  A    between atoms: C_2  and  C_4
REMARK    2  A    between atoms: C_9  and  N_10
REMARK    3  A    between atoms: N_10  and  C_11
REMARK    4  A    between atoms: C_13  and  O_14
REMARK    5  A    between atoms: O_14  and  C_15
REMARK    6  A    between atoms: C_27  and  C_28
REMARK                            x       y       z     vdW  Elec       q    Type
REMARK                         _______ _______ _______ _____ _____    ______ ____
ROOT
ATOM      1  C   UNL     1       0.935   9.671  18.833  0.00  0.00    +0.000 A 
ATOM      2  C   UNL     1       1.606   8.819  17.934  0.00  0.00    +0.000 A 
ATOM      3  C   UNL     1       2.216   7.672  18.410  0.00  0.00    +0.000 A 
ATOM      4  N   UNL     1       2.282   7.374  19.725  0.00  0.00    +0.000 NA
ATOM      5  C   UNL     1       1.656   8.207  20.579  0.00  0.00    +0.000 A 
ATOM      6  C   UNL     1       0.964   9.353  20.198  0.00  0.00    +0.000 A 
ENDROOT
BRANCH   6   7
ATOM      7  C   UNL     1       0.280  10.125  21.280  0.00  0.00    +0.000 C 
ATOM      8  F   UNL     1      -1.072  10.210  21.128  0.00  0.00    +0.000 F 
ATOM      9  F   UNL     1       0.483   9.585  22.514  0.00  0.00    +0.000 F 
ATOM     10  F   UNL     1       0.722  11.410  21.360  0.00  0.00    +0.000 F 
ENDBRANCH   6   7
BRANCH   1  11
ATOM     11  N   UNL     1       0.201  10.775  18.331  0.00  0.00    +0.000 N 
ATOM     12  H   UNL     1       0.518  11.695  18.658  0.00  0.00    +0.000 HD
BRANCH  11  18
ATOM     13  C   UNL     1      -2.028  11.859  18.508  0.00  0.00    +0.000 A 
ATOM     14  C   UNL     1      -3.394  11.864  18.167  0.00  0.00    +0.000 A 
ATOM     15  C   UNL     1      -3.938  10.864  17.363  0.00  0.00    +0.000 A 
ATOM     16  C   UNL     1      -3.130   9.831  16.911  0.00  0.00    +0.000 A 
ATOM     17  C   UNL     1      -1.777   9.809  17.248  0.00  0.00    +0.000 A 
ATOM     18  C   UNL     1      -1.192  10.824  18.032  0.00  0.00    +0.000 A 
BRANCH  13  20
ATOM     19  N   UNL     1      -2.488  13.566  20.208  0.00  0.00    +0.000 N 
ATOM     20  C   UNL     1      -1.574  12.988  19.372  0.00  0.00    +0.000 C 
ATOM     21  O   UNL     1      -0.411  13.374  19.370  0.00  0.00    +0.000 OA
ATOM     22  H   UNL     1      -2.135  14.231  20.885  0.00  0.00    +0.000 HD
ATOM     23  H   UNL     1      -3.385  13.124  20.378  0.00  0.00    +0.000 HD
ENDBRANCH  13  20
ENDBRANCH  11  18
ENDBRANCH   1  11
BRANCH   3  24
ATOM     24  O   UNL     1       2.713   6.770  17.469  0.00  0.00    +0.000 OA
BRANCH  24  25
ATOM     25  C   UNL     1       3.556   5.776  17.950  0.00  0.00    +0.000 A 
ATOM     26  C   UNL     1       3.028   4.571  18.439  0.00  0.00    +0.000 A 
ATOM     27  C   UNL     1       3.859   3.629  19.032  0.00  0.00    +0.000 A 
ATOM     28  C   UNL     1       5.225   3.875  19.123  0.00  0.00    +0.000 A 
ATOM     29  C   UNL     1       5.786   5.038  18.575  0.00  0.00    +0.000 A 
ATOM     30  C   UNL     1       7.169   5.260  18.669  0.00  0.00    +0.000 A 
ATOM     31  C   UNL     1       7.754   6.381  18.084  0.00  0.00    +0.000 A 
ATOM     32  C   UNL     1       6.965   7.286  17.384  0.00  0.00    +0.000 A 
ATOM     33  C   UNL     1       5.579   7.102  17.319  0.00  0.00    +0.000 A 
ATOM     34  C   UNL     1       4.956   5.992  17.933  0.00  0.00    +0.000 A 
ENDBRANCH  24  25
ENDBRANCH   3  24
TORSDOF 6
ENDMDL
MODEL 9
REMARK VINA RESULT:      -8.5      2.638      3.963
REMARK  Name = 
REMARK  6 active torsions:
REMARK  status: ('A' for Active; 'I' for Inactive)
REMARK    1  A    between atoms: C_2  and  C_4
REMARK    2  A    between atoms: C_9  and  N_10
REMARK    3  A    between atoms: N_10  and  C_11
REMARK    4  A    between atoms: C_13  and  O_14
REMARK    5  A    between atoms: O_14  and  C_15
REMARK    6  A    between atoms: C_27  and  C_28
REMARK                            x       y       z     vdW  Elec       q    Type
REMARK                         _______ _______ _______ _____ _____    ______ ____
ROOT
ATOM      1  C   UNL     1       2.253   6.992  18.477  0.00  0.00    +0.000 A 
ATOM      2  C   UNL     1       1.943   8.318  18.117  0.00  0.00    +0.000 A 
ATOM      3  C   UNL     1       1.526   9.207  19.092  0.00  0.00    +0.000 A 
ATOM      4  N   UNL     1       1.310   8.837  20.372  0.00  0.00    +0.000 NA
ATOM      5  C   UNL     1       1.589   7.561  20.701  0.00  0.00    +0.000 A 
ATOM      6  C   UNL     1       2.067   6.604  19.811  0.00  0.00    +0.000 A 
ENDROOT
BRANCH   6   7
ATOM      7  C   UNL     1       2.378   5.252  20.369  0.00  0.00    +0.000 C 
ATOM      8  F   UNL     1       2.069   5.115  21.690  0.00  0.00    +0.000 F 
ATOM      9  F   UNL     1       1.708   4.256  19.725  0.00  0.00    +0.000 F 
ATOM     10  F   UNL     1       3.698   4.938  20.266  0.00  0.00    +0.000 F 
ENDBRANCH   6   7
BRANCH   1  11
ATOM     11  N   UNL     1       2.802   6.117  17.505  0.00  0.00    +0.000 N 
ATOM     12  H   UNL     1       2.218   5.307  17.267  0.00  0.00    +0.000 HD
BRANCH  11  18
ATOM     13  C   UNL     1       4.627   4.455  17.215  0.00  0.00    +0.000 A 
ATOM     14  C   UNL     1       5.995   4.194  17.008  0.00  0.00    +0.000 A 
ATOM     15  C   UNL     1       6.917   5.234  16.897  0.00  0.00    +0.000 A 
ATOM     16  C   UNL     1       6.487   6.548  17.016  0.00  0.00    +0.000 A 
ATOM     17  C   UNL     1       5.136   6.820  17.229  0.00  0.00    +0.000 A 
ATOM     18  C   UNL     1       4.176   5.791  17.314  0.00  0.00    +0.000 A 
BRANCH  13  20
ATOM     19  N   UNL     1       4.221   2.164  17.990  0.00  0.00    +0.000 N 
ATOM     20  C   UNL     1       3.748   3.253  17.314  0.00  0.00    +0.000 C 
ATOM     21  O   UNL     1       2.618   3.240  16.839  0.00  0.00    +0.000 OA
ATOM     22  H   UNL     1       3.566   1.414  18.169  0.00  0.00    +0.000 HD
ATOM     23  H   UNL     1       5.054   2.235  18.566  0.00  0.00    +0.000 HD
ENDBRANCH  13  20
ENDBRANCH  11  18
ENDBRANCH   1  11
BRANCH   3  24
ATOM     24  O   UNL     1       1.401  10.549  18.728  0.00  0.00    +0.000 OA
BRANCH  24  25
ATOM     25  C   UNL     1       0.250  11.199  19.153  0.00  0.00    +0.000 A 
ATOM     26  C   UNL     1       0.302  12.116  20.214  0.00  0.00    +0.000 A 
ATOM     27  C   UNL     1      -0.866  12.675  20.719  0.00  0.00    +0.000 A 
ATOM     28  C   UNL     1      -2.091  12.336  20.155  0.00  0.00    +0.000 A 
ATOM     29  C   UNL     1      -2.162  11.480  19.046  0.00  0.00    +0.000 A 
ATOM     30  C   UNL     1      -3.409  11.161  18.485  0.00  0.00    +0.000 A 
ATOM     31  C   UNL     1      -3.499  10.358  17.351  0.00  0.00    +0.000 A 
ATOM     32  C   UNL     1      -2.340   9.875  16.753  0.00  0.00    +0.000 A 
ATOM     33  C   UNL     1      -1.092  10.148  17.325  0.00  0.00    +0.000 A 
ATOM     34  C   UNL     1      -0.976  10.932  18.495  0.00  0.00    +0.000 A 
ENDBRANCH  24  25
ENDBRANCH   3  24
TORSDOF 6
ENDMDL
