MODEL 1
REMARK VINA RESULT:      -6.4      0.000      0.000
REMARK  Name = 
REMARK  11 active torsions:
REMARK  status: ('A' for Active; 'I' for Inactive)
REMARK    1  A    between atoms: C_2  and  C_3
REMARK    2  A    between atoms: C_3  and  O_4
REMARK    3  A    between atoms: O_4  and  C_5
REMARK    4  A    between atoms: C_5  and  C_7
REMARK    5  A    between atoms: C_8  and  C_9
REMARK    6  A    between atoms: N_15  and  C_16
REMARK    7  A    between atoms: C_16  and  C_17
REMARK    8  A    between atoms: C_17  and  C_18
REMARK    9  A    between atoms: C_18  and  C_19
REMARK   10  A    between atoms: C_19  and  C_20
REMARK   11  A    between atoms: C_21  and  N_22
REMARK                            x       y       z     vdW  Elec       q    Type
REMARK                         _______ _______ _______ _____ _____    ______ ____
ROOT
ATOM      1  C   UNL     1       4.764   6.306  17.587  0.00  0.00    +0.000 A 
ATOM      2  C   UNL     1       5.062   5.066  18.204  0.00  0.00    +0.000 A 
ATOM      3  C   UNL     1       6.195   4.161  17.794  0.00  0.00    +0.000 C 
ATOM      4  N   UNL     1       4.359   4.535  19.251  0.00  0.00    +0.000 NA
ATOM      5  C   UNL     1       3.337   5.298  19.680  0.00  0.00    +0.000 A 
ATOM      6  C   UNL     1       2.946   6.522  19.159  0.00  0.00    +0.000 A 
ATOM      7  C   UNL     1       1.837   6.891  19.953  0.00  0.00    +0.000 A 
ATOM      8  N   UNL     1       1.556   6.011  20.908  0.00  0.00    +0.000 NA
ATOM      9  N   UNL     1       2.461   5.028  20.702  0.00  0.00    +0.000 N 
ATOM     10  C   UNL     1       3.663   7.057  18.069  0.00  0.00    +0.000 A 
ENDROOT
BRANCH  10  11
ATOM     11  N   UNL     1       3.202   8.223  17.434  0.00  0.00    +0.000 N 
ATOM     12  H   UNL     1       3.802   9.038  17.509  0.00  0.00    +0.000 HD
ATOM     13  H   UNL     1       2.867   8.068  16.484  0.00  0.00    +0.000 HD
ENDBRANCH  10  11
BRANCH   1  14
ATOM     14  C   UNL     1       5.595   6.834  16.453  0.00  0.00    +0.000 C 
ATOM     15  O   UNL     1       5.609   6.359  15.331  0.00  0.00    +0.000 OA
BRANCH  14  16
ATOM     16  O   UNL     1       6.371   7.881  16.863  0.00  0.00    +0.000 OA
BRANCH  16  17
ATOM     17  C   UNL     1       7.583   7.560  17.568  0.00  0.00    +0.000 C 
BRANCH  17  19
ATOM     18  C   UNL     1       8.833   9.899  18.538  0.00  0.00    +0.000 C 
ATOM     19  C   UNL     1       8.256   8.819  18.090  0.00  0.00    +0.000 C 
ENDBRANCH  17  19
ENDBRANCH  16  17
ENDBRANCH  14  16
ENDBRANCH   1  14
BRANCH   9  20
ATOM     20  C   UNL     1       2.435   3.858  21.558  0.00  0.00    +0.000 C 
BRANCH  20  21
ATOM     21  C   UNL     1       1.250   2.919  21.302  0.00  0.00    +0.000 C 
BRANCH  21  22
ATOM     22  C   UNL     1       0.945   2.717  19.815  0.00  0.00    +0.000 C 
BRANCH  22  23
ATOM     23  C   UNL     1       2.014   1.836  19.166  0.00  0.00    +0.000 C 
ATOM     24  C   UNL     1       2.325   2.277  17.747  0.00  0.00    +0.000 C 
ENDBRANCH  22  23
ENDBRANCH  21  22
ENDBRANCH  20  21
ENDBRANCH   9  20
TORSDOF 9
ENDMDL
MODEL 2
REMARK VINA RESULT:      -6.4      1.943      2.843
REMARK  Name = 
REMARK  11 active torsions:
REMARK  status: ('A' for Active; 'I' for Inactive)
REMARK    1  A    between atoms: C_2  and  C_3
REMARK    2  A    between atoms: C_3  and  O_4
REMARK    3  A    between atoms: O_4  and  C_5
REMARK    4  A    between atoms: C_5  and  C_7
REMARK    5  A    between atoms: C_8  and  C_9
REMARK    6  A    between atoms: N_15  and  C_16
REMARK    7  A    between atoms: C_16  and  C_17
REMARK    8  A    between atoms: C_17  and  C_18
REMARK    9  A    between atoms: C_18  and  C_19
REMARK   10  A    between atoms: C_19  and  C_20
REMARK   11  A    between atoms: C_21  and  N_22
REMARK                            x       y       z     vdW  Elec       q    Type
REMARK                         _______ _______ _______ _____ _____    ______ ____
ROOT
ATOM      1  C   UNL     1       6.183   5.043  17.260  0.00  0.00    +0.000 A 
ATOM      2  C   UNL     1       6.216   4.868  18.665  0.00  0.00    +0.000 A 
ATOM      3  C   UNL     1       7.301   5.403  19.565  0.00  0.00    +0.000 C 
ATOM      4  N   UNL     1       5.267   4.191  19.381  0.00  0.00    +0.000 NA
ATOM      5  C   UNL     1       4.259   3.695  18.642  0.00  0.00    +0.000 A 
ATOM      6  C   UNL     1       4.116   3.798  17.267  0.00  0.00    +0.000 A 
ATOM      7  C   UNL     1       2.909   3.114  16.998  0.00  0.00    +0.000 A 
ATOM      8  N   UNL     1       2.316   2.642  18.090  0.00  0.00    +0.000 NA
ATOM      9  N   UNL     1       3.173   2.976  19.080  0.00  0.00    +0.000 N 
ATOM     10  C   UNL     1       5.105   4.481  16.531  0.00  0.00    +0.000 A 
ENDROOT
BRANCH  10  11
ATOM     11  N   UNL     1       5.058   4.477  15.125  0.00  0.00    +0.000 N 
ATOM     12  H   UNL     1       5.086   5.386  14.676  0.00  0.00    +0.000 HD
ATOM     13  H   UNL     1       5.694   3.807  14.695  0.00  0.00    +0.000 HD
ENDBRANCH  10  11
BRANCH   1  14
ATOM     14  C   UNL     1       7.253   5.816  16.543  0.00  0.00    +0.000 C 
ATOM     15  O   UNL     1       7.586   5.620  15.388  0.00  0.00    +0.000 OA
BRANCH  14  16
ATOM     16  O   UNL     1       7.835   6.729  17.376  0.00  0.00    +0.000 OA
BRANCH  16  17
ATOM     17  C   UNL     1       7.335   8.077  17.319  0.00  0.00    +0.000 C 
BRANCH  17  19
ATOM     18  C   UNL     1       8.995   9.828  18.787  0.00  0.00    +0.000 C 
ATOM     19  C   UNL     1       8.228   9.020  18.110  0.00  0.00    +0.000 C 
ENDBRANCH  17  19
ENDBRANCH  16  17
ENDBRANCH  14  16
ENDBRANCH   1  14
BRANCH   9  20
ATOM     20  C   UNL     1       2.863   2.586  20.441  0.00  0.00    +0.000 C 
BRANCH  20  21
ATOM     21  C   UNL     1       2.317   3.724  21.311  0.00  0.00    +0.000 C 
BRANCH  21  22
ATOM     22  C   UNL     1       1.241   4.561  20.612  0.00  0.00    +0.000 C 
BRANCH  22  23
ATOM     23  C   UNL     1       1.561   6.052  20.733  0.00  0.00    +0.000 C 
ATOM     24  C   UNL     1       2.494   6.521  19.631  0.00  0.00    +0.000 C 
ENDBRANCH  22  23
ENDBRANCH  21  22
ENDBRANCH  20  21
ENDBRANCH   9  20
TORSDOF 9
ENDMDL
MODEL 3
REMARK VINA RESULT:      -6.3      1.980      3.589
REMARK  Name = 
REMARK  11 active torsions:
REMARK  status: ('A' for Active; 'I' for Inactive)
REMARK    1  A    between atoms: C_2  and  C_3
REMARK    2  A    between atoms: C_3  and  O_4
REMARK    3  A    between atoms: O_4  and  C_5
REMARK    4  A    between atoms: C_5  and  C_7
REMARK    5  A    between atoms: C_8  and  C_9
REMARK    6  A    between atoms: N_15  and  C_16
REMARK    7  A    between atoms: C_16  and  C_17
REMARK    8  A    between atoms: C_17  and  C_18
REMARK    9  A    between atoms: C_18  and  C_19
REMARK   10  A    between atoms: C_19  and  C_20
REMARK   11  A    between atoms: C_21  and  N_22
REMARK                            x       y       z     vdW  Elec       q    Type
REMARK                         _______ _______ _______ _____ _____    ______ ____
ROOT
ATOM      1  C   UNL     1       5.359   5.772  17.631  0.00  0.00    +0.000 A 
ATOM      2  C   UNL     1       4.127   6.314  18.073  0.00  0.00    +0.000 A 
ATOM      3  C   UNL     1       3.524   7.594  17.553  0.00  0.00    +0.000 C 
ATOM      4  N   UNL     1       3.331   5.743  19.028  0.00  0.00    +0.000 NA
ATOM      5  C   UNL     1       3.802   4.587  19.529  0.00  0.00    +0.000 A 
ATOM      6  C   UNL     1       4.989   3.960  19.181  0.00  0.00    +0.000 A 
ATOM      7  C   UNL     1       5.011   2.802  19.990  0.00  0.00    +0.000 A 
ATOM      8  N   UNL     1       3.936   2.677  20.762  0.00  0.00    +0.000 NA
ATOM      9  N   UNL     1       3.226   3.795  20.492  0.00  0.00    +0.000 N 
ATOM     10  C   UNL     1       5.815   4.561  18.209  0.00  0.00    +0.000 A 
ENDROOT
BRANCH  10  11
ATOM     11  N   UNL     1       7.086   4.022  17.943  0.00  0.00    +0.000 N 
ATOM     12  H   UNL     1       7.656   4.535  17.278  0.00  0.00    +0.000 HD
ATOM     13  H   UNL     1       7.602   3.755  18.779  0.00  0.00    +0.000 HD
ENDBRANCH  10  11
BRANCH   1  14
ATOM     14  C   UNL     1       6.171   6.447  16.563  0.00  0.00    +0.000 C 
ATOM     15  O   UNL     1       6.919   7.389  16.760  0.00  0.00    +0.000 OA
BRANCH  14  16
ATOM     16  O   UNL     1       5.919   5.898  15.338  0.00  0.00    +0.000 OA
BRANCH  16  17
ATOM     17  C   UNL     1       6.944   5.060  14.774  0.00  0.00    +0.000 C 
BRANCH  17  19
ATOM     18  C   UNL     1       5.904   3.461  12.692  0.00  0.00    +0.000 C 
ATOM     19  C   UNL     1       6.385   4.200  13.653  0.00  0.00    +0.000 C 
ENDBRANCH  17  19
ENDBRANCH  16  17
ENDBRANCH  14  16
ENDBRANCH   1  14
BRANCH   9  20
ATOM     20  C   UNL     1       1.977   4.020  21.191  0.00  0.00    +0.000 C 
BRANCH  20  21
ATOM     21  C   UNL     1       0.826   3.120  20.724  0.00  0.00    +0.000 C 
BRANCH  21  22
ATOM     22  C   UNL     1       0.614   3.143  19.208  0.00  0.00    +0.000 C 
BRANCH  22  23
ATOM     23  C   UNL     1       1.186   1.876  18.569  0.00  0.00    +0.000 C 
ATOM     24  C   UNL     1       2.262   2.196  17.547  0.00  0.00    +0.000 C 
ENDBRANCH  22  23
ENDBRANCH  21  22
ENDBRANCH  20  21
ENDBRANCH   9  20
TORSDOF 9
ENDMDL
MODEL 4
REMARK VINA RESULT:      -6.3      1.809      3.106
REMARK  Name = 
REMARK  11 active torsions:
REMARK  status: ('A' for Active; 'I' for Inactive)
REMARK    1  A    between atoms: C_2  and  C_3
REMARK    2  A    between atoms: C_3  and  O_4
REMARK    3  A    between atoms: O_4  and  C_5
REMARK    4  A    between atoms: C_5  and  C_7
REMARK    5  A    between atoms: C_8  and  C_9
REMARK    6  A    between atoms: N_15  and  C_16
REMARK    7  A    between atoms: C_16  and  C_17
REMARK    8  A    between atoms: C_17  and  C_18
REMARK    9  A    between atoms: C_18  and  C_19
REMARK   10  A    between atoms: C_19  and  C_20
REMARK   11  A    between atoms: C_21  and  N_22
REMARK                            x       y       z     vdW  Elec       q    Type
REMARK                         _______ _______ _______ _____ _____    ______ ____
ROOT
ATOM      1  C   UNL     1       4.696   5.367  16.843  0.00  0.00    +0.000 A 
ATOM      2  C   UNL     1       3.594   5.967  17.500  0.00  0.00    +0.000 A 
ATOM      3  C   UNL     1       3.420   7.453  17.686  0.00  0.00    +0.000 C 
ATOM      4  N   UNL     1       2.549   5.273  18.046  0.00  0.00    +0.000 NA
ATOM      5  C   UNL     1       2.632   3.938  17.904  0.00  0.00    +0.000 A 
ATOM      6  C   UNL     1       3.656   3.236  17.288  0.00  0.00    +0.000 A 
ATOM      7  C   UNL     1       3.265   1.884  17.414  0.00  0.00    +0.000 A 
ATOM      8  N   UNL     1       2.095   1.728  18.024  0.00  0.00    +0.000 NA
ATOM      9  N   UNL     1       1.741   2.991  18.348  0.00  0.00    +0.000 N 
ATOM     10  C   UNL     1       4.739   3.954  16.741  0.00  0.00    +0.000 A 
ENDROOT
BRANCH  10  11
ATOM     11  N   UNL     1       5.855   3.261  16.239  0.00  0.00    +0.000 N 
ATOM     12  H   UNL     1       5.892   2.268  16.446  0.00  0.00    +0.000 HD
ATOM     13  H   UNL     1       6.061   3.467  15.263  0.00  0.00    +0.000 HD
ENDBRANCH  10  11
BRANCH   1  14
ATOM     14  C   UNL     1       5.799   6.197  16.250  0.00  0.00    +0.000 C 
ATOM     15  O   UNL     1       5.637   7.036  15.382  0.00  0.00    +0.000 OA
BRANCH  14  16
ATOM     16  O   UNL     1       7.010   5.846  16.775  0.00  0.00    +0.000 OA
BRANCH  16  17
ATOM     17  C   UNL     1       7.334   6.372  18.075  0.00  0.00    +0.000 C 
BRANCH  17  19
ATOM     18  C   UNL     1       8.225   9.045  17.885  0.00  0.00    +0.000 C 
ATOM     19  C   UNL     1       7.814   7.811  17.973  0.00  0.00    +0.000 C 
ENDBRANCH  17  19
ENDBRANCH  16  17
ENDBRANCH  14  16
ENDBRANCH   1  14
BRANCH   9  20
ATOM     20  C   UNL     1       0.503   3.212  19.069  0.00  0.00    +0.000 C 
BRANCH  20  21
ATOM     21  C   UNL     1       0.693   3.769  20.485  0.00  0.00    +0.000 C 
BRANCH  21  22
ATOM     22  C   UNL     1       1.349   2.773  21.446  0.00  0.00    +0.000 C 
BRANCH  22  23
ATOM     23  C   UNL     1       2.813   3.147  21.685  0.00  0.00    +0.000 C 
ATOM     24  C   UNL     1       3.762   2.123  21.090  0.00  0.00    +0.000 C 
ENDBRANCH  22  23
ENDBRANCH  21  22
ENDBRANCH  20  21
ENDBRANCH   9  20
TORSDOF 9
ENDMDL
MODEL 5
REMARK VINA RESULT:      -6.3      3.921      6.725
REMARK  Name = 
REMARK  11 active torsions:
REMARK  status: ('A' for Active; 'I' for Inactive)
REMARK    1  A    between atoms: C_2  and  C_3
REMARK    2  A    between atoms: C_3  and  O_4
REMARK    3  A    between atoms: O_4  and  C_5
REMARK    4  A    between atoms: C_5  and  C_7
REMARK    5  A    between atoms: C_8  and  C_9
REMARK    6  A    between atoms: N_15  and  C_16
REMARK    7  A    between atoms: C_16  and  C_17
REMARK    8  A    between atoms: C_17  and  C_18
REMARK    9  A    between atoms: C_18  and  C_19
REMARK   10  A    between atoms: C_19  and  C_20
REMARK   11  A    between atoms: C_21  and  N_22
REMARK                            x       y       z     vdW  Elec       q    Type
REMARK                         _______ _______ _______ _____ _____    ______ ____
ROOT
ATOM      1  C   UNL     1       4.691   3.938  18.500  0.00  0.00    +0.000 A 
ATOM      2  C   UNL     1       4.278   3.168  17.386  0.00  0.00    +0.000 A 
ATOM      3  C   UNL     1       3.167   2.151  17.418  0.00  0.00    +0.000 C 
ATOM      4  N   UNL     1       4.837   3.252  16.140  0.00  0.00    +0.000 NA
ATOM      5  C   UNL     1       5.830   4.153  16.033  0.00  0.00    +0.000 A 
ATOM      6  C   UNL     1       6.324   4.960  17.047  0.00  0.00    +0.000 A 
ATOM      7  C   UNL     1       7.347   5.706  16.420  0.00  0.00    +0.000 A 
ATOM      8  N   UNL     1       7.484   5.431  15.127  0.00  0.00    +0.000 NA
ATOM      9  N   UNL     1       6.572   4.455  14.917  0.00  0.00    +0.000 N 
ATOM     10  C   UNL     1       5.757   4.858  18.334  0.00  0.00    +0.000 A 
ENDROOT
BRANCH  10  11
ATOM     11  N   UNL     1       6.332   5.559  19.408  0.00  0.00    +0.000 N 
ATOM     12  H   UNL     1       7.245   5.966  19.236  0.00  0.00    +0.000 HD
ATOM     13  H   UNL     1       5.692   6.207  19.865  0.00  0.00    +0.000 HD
ENDBRANCH  10  11
BRANCH   1  14
ATOM     14  C   UNL     1       4.017   3.804  19.835  0.00  0.00    +0.000 C 
ATOM     15  O   UNL     1       4.073   2.811  20.539  0.00  0.00    +0.000 OA
BRANCH  14  16
ATOM     16  O   UNL     1       3.290   4.923  20.129  0.00  0.00    +0.000 OA
BRANCH  16  17
ATOM     17  C   UNL     1       2.076   4.735  20.880  0.00  0.00    +0.000 C 
BRANCH  17  19
ATOM     18  C   UNL     1       0.373   2.887  19.592  0.00  0.00    +0.000 C 
ATOM     19  C   UNL     1       1.160   3.740  20.187  0.00  0.00    +0.000 C 
ENDBRANCH  17  19
ENDBRANCH  16  17
ENDBRANCH  14  16
ENDBRANCH   1  14
BRANCH   9  20
ATOM     20  C   UNL     1       6.456   3.873  13.595  0.00  0.00    +0.000 C 
BRANCH  20  21
ATOM     21  C   UNL     1       5.019   3.806  13.064  0.00  0.00    +0.000 C 
BRANCH  21  22
ATOM     22  C   UNL     1       4.929   3.311  11.617  0.00  0.00    +0.000 C 
BRANCH  22  23
ATOM     23  C   UNL     1       3.469   3.244  11.165  0.00  0.00    +0.000 C 
ATOM     24  C   UNL     1       3.248   3.988   9.860  0.00  0.00    +0.000 C 
ENDBRANCH  22  23
ENDBRANCH  21  22
ENDBRANCH  20  21
ENDBRANCH   9  20
TORSDOF 9
ENDMDL
MODEL 6
REMARK VINA RESULT:      -6.3      2.830      5.058
REMARK  Name = 
REMARK  11 active torsions:
REMARK  status: ('A' for Active; 'I' for Inactive)
REMARK    1  A    between atoms: C_2  and  C_3
REMARK    2  A    between atoms: C_3  and  O_4
REMARK    3  A    between atoms: O_4  and  C_5
REMARK    4  A    between atoms: C_5  and  C_7
REMARK    5  A    between atoms: C_8  and  C_9
REMARK    6  A    between atoms: N_15  and  C_16
REMARK    7  A    between atoms: C_16  and  C_17
REMARK    8  A    between atoms: C_17  and  C_18
REMARK    9  A    between atoms: C_18  and  C_19
REMARK   10  A    between atoms: C_19  and  C_20
REMARK   11  A    between atoms: C_21  and  N_22
REMARK                            x       y       z     vdW  Elec       q    Type
REMARK                         _______ _______ _______ _____ _____    ______ ____
ROOT
ATOM      1  C   UNL     1       5.495   4.829  17.293  0.00  0.00    +0.000 A 
ATOM      2  C   UNL     1       5.469   6.208  17.617  0.00  0.00    +0.000 A 
ATOM      3  C   UNL     1       6.512   7.205  17.182  0.00  0.00    +0.000 C 
ATOM      4  N   UNL     1       4.493   6.807  18.366  0.00  0.00    +0.000 NA
ATOM      5  C   UNL     1       3.519   5.976  18.779  0.00  0.00    +0.000 A 
ATOM      6  C   UNL     1       3.435   4.615  18.530  0.00  0.00    +0.000 A 
ATOM      7  C   UNL     1       2.243   4.224  19.181  0.00  0.00    +0.000 A 
ATOM      8  N   UNL     1       1.606   5.232  19.767  0.00  0.00    +0.000 NA
ATOM      9  N   UNL     1       2.419   6.288  19.541  0.00  0.00    +0.000 N 
ATOM     10  C   UNL     1       4.452   3.999  17.773  0.00  0.00    +0.000 A 
ENDROOT
BRANCH  10  11
ATOM     11  N   UNL     1       4.465   2.601  17.627  0.00  0.00    +0.000 N 
ATOM     12  H   UNL     1       5.115   2.097  18.221  0.00  0.00    +0.000 HD
ATOM     13  H   UNL     1       3.537   2.180  17.616  0.00  0.00    +0.000 HD
ENDBRANCH  10  11
BRANCH   1  14
ATOM     14  C   UNL     1       6.591   4.246  16.448  0.00  0.00    +0.000 C 
ATOM     15  O   UNL     1       7.775   4.285  16.734  0.00  0.00    +0.000 OA
BRANCH  14  16
ATOM     16  O   UNL     1       6.088   3.715  15.294  0.00  0.00    +0.000 OA
BRANCH  16  17
ATOM     17  C   UNL     1       6.543   4.292  14.057  0.00  0.00    +0.000 C 
BRANCH  17  19
ATOM     18  C   UNL     1       5.536   2.851  11.846  0.00  0.00    +0.000 C 
ATOM     19  C   UNL     1       6.001   3.517  12.867  0.00  0.00    +0.000 C 
ENDBRANCH  17  19
ENDBRANCH  16  17
ENDBRANCH  14  16
ENDBRANCH   1  14
BRANCH   9  20
ATOM     20  C   UNL     1       2.052   7.585  20.074  0.00  0.00    +0.000 C 
BRANCH  20  21
ATOM     21  C   UNL     1       1.091   7.524  21.267  0.00  0.00    +0.000 C 
BRANCH  21  22
ATOM     22  C   UNL     1       0.162   8.737  21.361  0.00  0.00    +0.000 C 
BRANCH  22  23
ATOM     23  C   UNL     1       0.219   9.347  22.763  0.00  0.00    +0.000 C 
ATOM     24  C   UNL     1      -0.873  10.381  22.974  0.00  0.00    +0.000 C 
ENDBRANCH  22  23
ENDBRANCH  21  22
ENDBRANCH  20  21
ENDBRANCH   9  20
TORSDOF 9
ENDMDL
MODEL 7
REMARK VINA RESULT:      -6.3      2.597      7.196
REMARK  Name = 
REMARK  11 active torsions:
REMARK  status: ('A' for Active; 'I' for Inactive)
REMARK    1  A    between atoms: C_2  and  C_3
REMARK    2  A    between atoms: C_3  and  O_4
REMARK    3  A    between atoms: O_4  and  C_5
REMARK    4  A    between atoms: C_5  and  C_7
REMARK    5  A    between atoms: C_8  and  C_9
REMARK    6  A    between atoms: N_15  and  C_16
REMARK    7  A    between atoms: C_16  and  C_17
REMARK    8  A    between atoms: C_17  and  C_18
REMARK    9  A    between atoms: C_18  and  C_19
REMARK   10  A    between atoms: C_19  and  C_20
REMARK   11  A    between atoms: C_21  and  N_22
REMARK                            x       y       z     vdW  Elec       q    Type
REMARK                         _______ _______ _______ _____ _____    ______ ____
ROOT
ATOM      1  C   UNL     1       3.802   4.307  17.517  0.00  0.00    +0.000 A 
ATOM      2  C   UNL     1       3.656   5.598  18.082  0.00  0.00    +0.000 A 
ATOM      3  C   UNL     1       2.452   6.055  18.864  0.00  0.00    +0.000 C 
ATOM      4  N   UNL     1       4.592   6.591  17.987  0.00  0.00    +0.000 NA
ATOM      5  C   UNL     1       5.703   6.249  17.311  0.00  0.00    +0.000 A 
ATOM      6  C   UNL     1       5.960   5.024  16.713  0.00  0.00    +0.000 A 
ATOM      7  C   UNL     1       7.242   5.188  16.141  0.00  0.00    +0.000 A 
ATOM      8  N   UNL     1       7.773   6.385  16.369  0.00  0.00    +0.000 NA
ATOM      9  N   UNL     1       6.803   7.031  17.054  0.00  0.00    +0.000 N 
ATOM     10  C   UNL     1       4.986   4.009  16.798  0.00  0.00    +0.000 A 
ENDROOT
BRANCH  10  11
ATOM     11  N   UNL     1       5.161   2.811  16.083  0.00  0.00    +0.000 N 
ATOM     12  H   UNL     1       5.973   2.770  15.475  0.00  0.00    +0.000 HD
ATOM     13  H   UNL     1       5.054   1.973  16.652  0.00  0.00    +0.000 HD
ENDBRANCH  10  11
BRANCH   1  14
ATOM     14  C   UNL     1       2.738   3.259  17.679  0.00  0.00    +0.000 C 
ATOM     15  O   UNL     1       1.582   3.391  17.317  0.00  0.00    +0.000 OA
BRANCH  14  16
ATOM     16  O   UNL     1       3.227   2.164  18.333  0.00  0.00    +0.000 OA
BRANCH  16  17
ATOM     17  C   UNL     1       3.577   2.332  19.719  0.00  0.00    +0.000 C 
BRANCH  17  19
ATOM     18  C   UNL     1       1.300   2.987  21.257  0.00  0.00    +0.000 C 
ATOM     19  C   UNL     1       2.352   2.684  20.547  0.00  0.00    +0.000 C 
ENDBRANCH  17  19
ENDBRANCH  16  17
ENDBRANCH  14  16
ENDBRANCH   1  14
BRANCH   9  20
ATOM     20  C   UNL     1       7.022   8.406  17.455  0.00  0.00    +0.000 C 
BRANCH  20  21
ATOM     21  C   UNL     1       8.335   8.638  18.211  0.00  0.00    +0.000 C 
BRANCH  21  22
ATOM     22  C   UNL     1       8.778  10.104  18.225  0.00  0.00    +0.000 C 
BRANCH  22  23
ATOM     23  C   UNL     1       9.523  10.425  19.521  0.00  0.00    +0.000 C 
ATOM     24  C   UNL     1       9.937  11.885  19.588  0.00  0.00    +0.000 C 
ENDBRANCH  22  23
ENDBRANCH  21  22
ENDBRANCH  20  21
ENDBRANCH   9  20
TORSDOF 9
ENDMDL
MODEL 8
REMARK VINA RESULT:      -6.2      2.086      3.046
REMARK  Name = 
REMARK  11 active torsions:
REMARK  status: ('A' for Active; 'I' for Inactive)
REMARK    1  A    between atoms: C_2  and  C_3
REMARK    2  A    between atoms: C_3  and  O_4
REMARK    3  A    between atoms: O_4  and  C_5
REMARK    4  A    between atoms: C_5  and  C_7
REMARK    5  A    between atoms: C_8  and  C_9
REMARK    6  A    between atoms: N_15  and  C_16
REMARK    7  A    between atoms: C_16  and  C_17
REMARK    8  A    between atoms: C_17  and  C_18
REMARK    9  A    between atoms: C_18  and  C_19
REMARK   10  A    between atoms: C_19  and  C_20
REMARK   11  A    between atoms: C_21  and  N_22
REMARK                            x       y       z     vdW  Elec       q    Type
REMARK                         _______ _______ _______ _____ _____    ______ ____
ROOT
ATOM      1  C   UNL     1       6.269   5.619  17.449  0.00  0.00    +0.000 A 
ATOM      2  C   UNL     1       5.217   5.312  16.551  0.00  0.00    +0.000 A 
ATOM      3  C   UNL     1       5.033   5.959  15.203  0.00  0.00    +0.000 C 
ATOM      4  N   UNL     1       4.238   4.389  16.796  0.00  0.00    +0.000 NA
ATOM      5  C   UNL     1       4.347   3.760  17.980  0.00  0.00    +0.000 A 
ATOM      6  C   UNL     1       5.324   3.974  18.941  0.00  0.00    +0.000 A 
ATOM      7  C   UNL     1       4.984   3.077  19.977  0.00  0.00    +0.000 A 
ATOM      8  N   UNL     1       3.912   2.338  19.706  0.00  0.00    +0.000 NA
ATOM      9  N   UNL     1       3.517   2.795  18.497  0.00  0.00    +0.000 N 
ATOM     10  C   UNL     1       6.322   4.938  18.692  0.00  0.00    +0.000 A 
ENDROOT
BRANCH  10  11
ATOM     11  N   UNL     1       7.237   5.274  19.704  0.00  0.00    +0.000 N 
ATOM     12  H   UNL     1       7.135   4.773  20.581  0.00  0.00    +0.000 HD
ATOM     13  H   UNL     1       8.204   5.315  19.386  0.00  0.00    +0.000 HD
ENDBRANCH  10  11
BRANCH   1  14
ATOM     14  C   UNL     1       7.321   6.632  17.103  0.00  0.00    +0.000 C 
ATOM     15  O   UNL     1       8.029   6.578  16.112  0.00  0.00    +0.000 OA
BRANCH  14  16
ATOM     16  O   UNL     1       7.415   7.590  18.072  0.00  0.00    +0.000 OA
BRANCH  16  17
ATOM     17  C   UNL     1       7.695   8.933  17.638  0.00  0.00    +0.000 C 
BRANCH  17  19
ATOM     18  C   UNL     1       9.461  10.220  19.426  0.00  0.00    +0.000 C 
ATOM     19  C   UNL     1       8.646   9.626  18.600  0.00  0.00    +0.000 C 
ENDBRANCH  17  19
ENDBRANCH  16  17
ENDBRANCH  14  16
ENDBRANCH   1  14
BRANCH   9  20
ATOM     20  C   UNL     1       2.332   2.228  17.884  0.00  0.00    +0.000 C 
BRANCH  20  21
ATOM     21  C   UNL     1       1.136   2.095  18.834  0.00  0.00    +0.000 C 
BRANCH  21  22
ATOM     22  C   UNL     1       0.535   3.443  19.245  0.00  0.00    +0.000 C 
BRANCH  22  23
ATOM     23  C   UNL     1       1.023   3.842  20.639  0.00  0.00    +0.000 C 
ATOM     24  C   UNL     1       1.787   5.154  20.616  0.00  0.00    +0.000 C 
ENDBRANCH  22  23
ENDBRANCH  21  22
ENDBRANCH  20  21
ENDBRANCH   9  20
TORSDOF 9
ENDMDL
MODEL 9
REMARK VINA RESULT:      -6.2      1.932      3.168
REMARK  Name = 
REMARK  11 active torsions:
REMARK  status: ('A' for Active; 'I' for Inactive)
REMARK    1  A    between atoms: C_2  and  C_3
REMARK    2  A    between atoms: C_3  and  O_4
REMARK    3  A    between atoms: O_4  and  C_5
REMARK    4  A    between atoms: C_5  and  C_7
REMARK    5  A    between atoms: C_8  and  C_9
REMARK    6  A    between atoms: N_15  and  C_16
REMARK    7  A    between atoms: C_16  and  C_17
REMARK    8  A    between atoms: C_17  and  C_18
REMARK    9  A    between atoms: C_18  and  C_19
REMARK   10  A    between atoms: C_19  and  C_20
REMARK   11  A    between atoms: C_21  and  N_22
REMARK                            x       y       z     vdW  Elec       q    Type
REMARK                         _______ _______ _______ _____ _____    ______ ____
ROOT
ATOM      1  C   UNL     1       4.510   5.498  16.697  0.00  0.00    +0.000 A 
ATOM      2  C   UNL     1       3.546   6.118  17.529  0.00  0.00    +0.000 A 
ATOM      3  C   UNL     1       3.435   7.606  17.742  0.00  0.00    +0.000 C 
ATOM      4  N   UNL     1       2.593   5.443  18.242  0.00  0.00    +0.000 NA
ATOM      5  C   UNL     1       2.624   4.107  18.089  0.00  0.00    +0.000 A 
ATOM      6  C   UNL     1       3.516   3.387  17.310  0.00  0.00    +0.000 A 
ATOM      7  C   UNL     1       3.125   2.042  17.500  0.00  0.00    +0.000 A 
ATOM      8  N   UNL     1       2.070   1.908  18.298  0.00  0.00    +0.000 NA
ATOM      9  N   UNL     1       1.800   3.177  18.676  0.00  0.00    +0.000 N 
ATOM     10  C   UNL     1       4.507   4.085  16.590  0.00  0.00    +0.000 A 
ENDROOT
BRANCH  10  11
ATOM     11  N   UNL     1       5.508   3.371  15.908  0.00  0.00    +0.000 N 
ATOM     12  H   UNL     1       6.249   3.929  15.494  0.00  0.00    +0.000 HD
ATOM     13  H   UNL     1       5.863   2.567  16.424  0.00  0.00    +0.000 HD
ENDBRANCH  10  11
BRANCH   1  14
ATOM     14  C   UNL     1       5.514   6.307  15.928  0.00  0.00    +0.000 C 
ATOM     15  O   UNL     1       5.238   7.038  14.993  0.00  0.00    +0.000 OA
BRANCH  14  16
ATOM     16  O   UNL     1       6.781   6.073  16.382  0.00  0.00    +0.000 OA
BRANCH  16  17
ATOM     17  C   UNL     1       7.302   6.986  17.365  0.00  0.00    +0.000 C 
BRANCH  17  19
ATOM     18  C   UNL     1       7.970   5.627  19.748  0.00  0.00    +0.000 C 
ATOM     19  C   UNL     1       7.661   6.255  18.648  0.00  0.00    +0.000 C 
ENDBRANCH  17  19
ENDBRANCH  16  17
ENDBRANCH  14  16
ENDBRANCH   1  14
BRANCH   9  20
ATOM     20  C   UNL     1       0.706   3.420  19.594  0.00  0.00    +0.000 C 
BRANCH  20  21
ATOM     21  C   UNL     1       0.949   2.895  21.014  0.00  0.00    +0.000 C 
BRANCH  21  22
ATOM     22  C   UNL     1       2.317   3.287  21.580  0.00  0.00    +0.000 C 
BRANCH  22  23
ATOM     23  C   UNL     1       3.241   2.069  21.634  0.00  0.00    +0.000 C 
ATOM     24  C   UNL     1       4.468   2.253  20.757  0.00  0.00    +0.000 C 
ENDBRANCH  22  23
ENDBRANCH  21  22
ENDBRANCH  20  21
ENDBRANCH   9  20
TORSDOF 9
ENDMDL
