MODEL 1
REMARK VINA RESULT:      -7.5      0.000      0.000
REMARK  Name = 
REMARK  12 active torsions:
REMARK  status: ('A' for Active; 'I' for Inactive)
REMARK    1  A    between atoms: C_1  and  C_2
REMARK    2  A    between atoms: C_2  and  C_3
REMARK    3  A    between atoms: C_3  and  O_4
REMARK    4  A    between atoms: O_4  and  C_5
REMARK    5  A    between atoms: C_5  and  C_6
REMARK    6  A    between atoms: C_6  and  N_7
REMARK    7  A    between atoms: N_11  and  C_12
REMARK    8  A    between atoms: C_12  and  C_13
REMARK    9  A    between atoms: C_13  and  N_14
REMARK   10  A    between atoms: C_24  and  C_25
REMARK   11  A    between atoms: C_26  and  C_27
REMARK   12  A    between atoms: C_30  and  C_31
REMARK                            x       y       z     vdW  Elec       q    Type
REMARK                         _______ _______ _______ _____ _____    ______ ____
ROOT
ATOM      1  N   UNL     1       0.167  10.663  19.539  0.00  0.00    +0.000 N 
ATOM      2  C   UNL     1       1.073   9.649  19.277  0.00  0.00    +0.000 A 
ATOM      3  O   UNL     1       1.687   9.482  18.227  0.00  0.00    +0.000 OA
ATOM      4  C   UNL     1       1.284   8.589  20.381  0.00  0.00    +0.000 A 
ATOM      5  N   UNL     1       2.060   7.489  20.058  0.00  0.00    +0.000 N 
ATOM      6  N   UNL     1       0.721   8.704  21.548  0.00  0.00    +0.000 NA
ATOM      7  C   UNL     1      -0.078   9.823  21.795  0.00  0.00    +0.000 A 
ATOM      8  C   UNL     1      -0.608   9.973  23.073  0.00  0.00    +0.000 A 
ATOM      9  C   UNL     1      -1.432  11.056  23.362  0.00  0.00    +0.000 A 
ATOM     10  C   UNL     1      -1.704  11.969  22.353  0.00  0.00    +0.000 A 
ATOM     11  N   UNL     1      -1.191  11.844  21.105  0.00  0.00    +0.000 NA
ATOM     12  C   UNL     1      -0.388  10.791  20.835  0.00  0.00    +0.000 A 
ATOM     13  H   UNL     1       2.288   7.448  19.065  0.00  0.00    +0.000 HD
ENDROOT
BRANCH  10  14
ATOM     14  C   UNL     1      -2.600  13.095  22.534  0.00  0.00    +0.000 A 
ATOM     15  C   UNL     1      -2.452  14.250  23.359  0.00  0.00    +0.000 A 
ATOM     16  C   UNL     1      -1.331  14.647  24.246  0.00  0.00    +0.000 C 
ATOM     17  N   UNL     1      -3.512  15.061  23.255  0.00  0.00    +0.000 NA
ATOM     18  O   UNL     1      -4.378  14.441  22.384  0.00  0.00    +0.000 OA
ATOM     19  C   UNL     1      -3.845  13.265  21.960  0.00  0.00    +0.000 A 
ATOM     20  C   UNL     1      -4.705  12.486  21.046  0.00  0.00    +0.000 C 
ENDBRANCH  10  14
BRANCH   1  21
ATOM     21  C   UNL     1      -0.074  11.703  18.538  0.00  0.00    +0.000 C 
BRANCH  21  22
ATOM     22  C   UNL     1      -1.514  11.740  18.009  0.00  0.00    +0.000 C 
BRANCH  22  23
ATOM     23  O   UNL     1      -2.069  10.421  18.052  0.00  0.00    +0.000 OA
BRANCH  23  24
ATOM     24  C   UNL     1      -2.084   9.826  16.754  0.00  0.00    +0.000 C 
BRANCH  24  26
ATOM     25  C   UNL     1      -3.066  10.117  14.460  0.00  0.00    +0.000 C 
ATOM     26  C   UNL     1      -3.191  10.470  15.932  0.00  0.00    +0.000 C 
ENDBRANCH  24  26
ENDBRANCH  23  24
ENDBRANCH  22  23
ENDBRANCH  21  22
ENDBRANCH   1  21
BRANCH   5  27
ATOM     27  C   UNL     1       1.753   6.210  20.689  0.00  0.00    +0.000 C 
BRANCH  27  28
ATOM     28  C   UNL     1       2.671   5.087  20.177  0.00  0.00    +0.000 C 
BRANCH  28  29
ATOM     29  N   UNL     1       1.991   3.782  20.039  0.00  0.00    +0.000 NA
ATOM     30  C   UNL     1       2.932   2.661  20.268  0.00  0.00    +0.000 C 
ATOM     31  C   UNL     1       3.926   2.440  19.112  0.00  0.00    +0.000 C 
ATOM     32  O   UNL     1       3.253   2.265  17.859  0.00  0.00    +0.000 OA
ATOM     33  C   UNL     1       2.380   3.367  17.580  0.00  0.00    +0.000 C 
ATOM     34  C   UNL     1       1.364   3.568  18.715  0.00  0.00    +0.000 C 
ENDBRANCH  28  29
ENDBRANCH  27  28
ENDBRANCH   5  27
TORSDOF 9
ENDMDL
MODEL 2
REMARK VINA RESULT:      -7.4      1.018      1.381
REMARK  Name = 
REMARK  12 active torsions:
REMARK  status: ('A' for Active; 'I' for Inactive)
REMARK    1  A    between atoms: C_1  and  C_2
REMARK    2  A    between atoms: C_2  and  C_3
REMARK    3  A    between atoms: C_3  and  O_4
REMARK    4  A    between atoms: O_4  and  C_5
REMARK    5  A    between atoms: C_5  and  C_6
REMARK    6  A    between atoms: C_6  and  N_7
REMARK    7  A    between atoms: N_11  and  C_12
REMARK    8  A    between atoms: C_12  and  C_13
REMARK    9  A    between atoms: C_13  and  N_14
REMARK   10  A    between atoms: C_24  and  C_25
REMARK   11  A    between atoms: C_26  and  C_27
REMARK   12  A    between atoms: C_30  and  C_31
REMARK                            x       y       z     vdW  Elec       q    Type
REMARK                         _______ _______ _______ _____ _____    ______ ____
ROOT
ATOM      1  N   UNL     1       0.300  10.381  19.510  0.00  0.00    +0.000 N 
ATOM      2  C   UNL     1       1.189   9.347  19.270  0.00  0.00    +0.000 A 
ATOM      3  O   UNL     1       1.789   9.139  18.220  0.00  0.00    +0.000 OA
ATOM      4  C   UNL     1       1.398   8.319  20.405  0.00  0.00    +0.000 A 
ATOM      5  N   UNL     1       2.154   7.199  20.108  0.00  0.00    +0.000 N 
ATOM      6  N   UNL     1       0.849   8.478  21.573  0.00  0.00    +0.000 NA
ATOM      7  C   UNL     1       0.068   9.615  21.794  0.00  0.00    +0.000 A 
ATOM      8  C   UNL     1      -0.447   9.812  23.072  0.00  0.00    +0.000 A 
ATOM      9  C   UNL     1      -1.252  10.915  23.336  0.00  0.00    +0.000 A 
ATOM     10  C   UNL     1      -1.523  11.800  22.301  0.00  0.00    +0.000 A 
ATOM     11  N   UNL     1      -1.025  11.630  21.053  0.00  0.00    +0.000 NA
ATOM     12  C   UNL     1      -0.239  10.557  20.807  0.00  0.00    +0.000 A 
ATOM     13  H   UNL     1       2.372   7.124  19.115  0.00  0.00    +0.000 HD
ENDROOT
BRANCH  10  14
ATOM     14  C   UNL     1      -2.401  12.944  22.456  0.00  0.00    +0.000 A 
ATOM     15  C   UNL     1      -2.362  14.214  21.807  0.00  0.00    +0.000 A 
ATOM     16  C   UNL     1      -1.432  14.722  20.769  0.00  0.00    +0.000 C 
ATOM     17  N   UNL     1      -3.350  15.009  22.235  0.00  0.00    +0.000 NA
ATOM     18  O   UNL     1      -4.034  14.285  23.185  0.00  0.00    +0.000 OA
ATOM     19  C   UNL     1      -3.466  13.058  23.328  0.00  0.00    +0.000 A 
ATOM     20  C   UNL     1      -4.093  12.200  24.354  0.00  0.00    +0.000 C 
ENDBRANCH  10  14
BRANCH   1  21
ATOM     21  C   UNL     1       0.062  11.392  18.480  0.00  0.00    +0.000 C 
BRANCH  21  22
ATOM     22  C   UNL     1      -1.328  11.315  17.836  0.00  0.00    +0.000 C 
BRANCH  22  23
ATOM     23  O   UNL     1      -1.530  10.002  17.300  0.00  0.00    +0.000 OA
BRANCH  23  24
ATOM     24  C   UNL     1      -2.834   9.874  16.731  0.00  0.00    +0.000 C 
BRANCH  24  26
ATOM     25  C   UNL     1      -3.135  10.067  14.244  0.00  0.00    +0.000 C 
ATOM     26  C   UNL     1      -2.948  10.824  15.547  0.00  0.00    +0.000 C 
ENDBRANCH  24  26
ENDBRANCH  23  24
ENDBRANCH  22  23
ENDBRANCH  21  22
ENDBRANCH   1  21
BRANCH   5  27
ATOM     27  C   UNL     1       1.838   5.944  20.782  0.00  0.00    +0.000 C 
BRANCH  27  28
ATOM     28  C   UNL     1       2.711   4.786  20.271  0.00  0.00    +0.000 C 
BRANCH  28  29
ATOM     29  N   UNL     1       2.790   4.706  18.798  0.00  0.00    +0.000 NA
ATOM     30  C   UNL     1       1.546   4.143  18.224  0.00  0.00    +0.000 C 
ATOM     31  C   UNL     1       1.389   2.628  18.453  0.00  0.00    +0.000 C 
ATOM     32  O   UNL     1       2.524   1.897  17.970  0.00  0.00    +0.000 OA
ATOM     33  C   UNL     1       3.740   2.380  18.556  0.00  0.00    +0.000 C 
ATOM     34  C   UNL     1       3.917   3.884  18.300  0.00  0.00    +0.000 C 
ENDBRANCH  28  29
ENDBRANCH  27  28
ENDBRANCH   5  27
TORSDOF 9
ENDMDL
MODEL 3
REMARK VINA RESULT:      -7.4      3.195      5.351
REMARK  Name = 
REMARK  12 active torsions:
REMARK  status: ('A' for Active; 'I' for Inactive)
REMARK    1  A    between atoms: C_1  and  C_2
REMARK    2  A    between atoms: C_2  and  C_3
REMARK    3  A    between atoms: C_3  and  O_4
REMARK    4  A    between atoms: O_4  and  C_5
REMARK    5  A    between atoms: C_5  and  C_6
REMARK    6  A    between atoms: C_6  and  N_7
REMARK    7  A    between atoms: N_11  and  C_12
REMARK    8  A    between atoms: C_12  and  C_13
REMARK    9  A    between atoms: C_13  and  N_14
REMARK   10  A    between atoms: C_24  and  C_25
REMARK   11  A    between atoms: C_26  and  C_27
REMARK   12  A    between atoms: C_30  and  C_31
REMARK                            x       y       z     vdW  Elec       q    Type
REMARK                         _______ _______ _______ _____ _____    ______ ____
ROOT
ATOM      1  N   UNL     1       1.345   7.775  20.689  0.00  0.00    +0.000 N 
ATOM      2  C   UNL     1       1.763   6.473  20.473  0.00  0.00    +0.000 A 
ATOM      3  O   UNL     1       1.610   5.528  21.241  0.00  0.00    +0.000 OA
ATOM      4  C   UNL     1       2.552   6.192  19.174  0.00  0.00    +0.000 A 
ATOM      5  N   UNL     1       3.111   4.933  19.037  0.00  0.00    +0.000 N 
ATOM      6  N   UNL     1       2.722   7.113  18.271  0.00  0.00    +0.000 NA
ATOM      7  C   UNL     1       2.160   8.373  18.490  0.00  0.00    +0.000 A 
ATOM      8  C   UNL     1       2.281   9.323  17.481  0.00  0.00    +0.000 A 
ATOM      9  C   UNL     1       1.762  10.600  17.660  0.00  0.00    +0.000 A 
ATOM     10  C   UNL     1       1.129  10.895  18.860  0.00  0.00    +0.000 A 
ATOM     11  N   UNL     1       0.994   9.982  19.851  0.00  0.00    +0.000 NA
ATOM     12  C   UNL     1       1.497   8.741  19.665  0.00  0.00    +0.000 A 
ATOM     13  H   UNL     1       3.044   4.380  19.891  0.00  0.00    +0.000 HD
ENDROOT
BRANCH  10  14
ATOM     14  C   UNL     1       0.611  12.214  19.171  0.00  0.00    +0.000 A 
ATOM     15  C   UNL     1      -0.723  12.711  19.075  0.00  0.00    +0.000 A 
ATOM     16  C   UNL     1      -1.968  12.020  18.658  0.00  0.00    +0.000 C 
ATOM     17  N   UNL     1      -0.791  13.995  19.448  0.00  0.00    +0.000 NA
ATOM     18  O   UNL     1       0.496  14.365  19.768  0.00  0.00    +0.000 OA
ATOM     19  C   UNL     1       1.336  13.310  19.594  0.00  0.00    +0.000 A 
ATOM     20  C   UNL     1       2.758  13.598  19.871  0.00  0.00    +0.000 C 
ENDBRANCH  10  14
BRANCH   1  21
ATOM     21  C   UNL     1       0.587   8.107  21.896  0.00  0.00    +0.000 C 
BRANCH  21  22
ATOM     22  C   UNL     1       1.232   9.199  22.760  0.00  0.00    +0.000 C 
BRANCH  22  23
ATOM     23  O   UNL     1       0.278   9.668  23.720  0.00  0.00    +0.000 OA
BRANCH  23  24
ATOM     24  C   UNL     1      -0.935  10.073  23.085  0.00  0.00    +0.000 C 
BRANCH  24  26
ATOM     25  C   UNL     1      -2.186  12.199  22.608  0.00  0.00    +0.000 C 
ATOM     26  C   UNL     1      -0.820  11.541  22.698  0.00  0.00    +0.000 C 
ENDBRANCH  24  26
ENDBRANCH  23  24
ENDBRANCH  22  23
ENDBRANCH  21  22
ENDBRANCH   1  21
BRANCH   5  27
ATOM     27  C   UNL     1       4.359   4.801  18.294  0.00  0.00    +0.000 C 
BRANCH  27  28
ATOM     28  C   UNL     1       5.580   5.150  19.161  0.00  0.00    +0.000 C 
BRANCH  28  29
ATOM     29  N   UNL     1       6.868   4.732  18.569  0.00  0.00    +0.000 NA
ATOM     30  C   UNL     1       7.943   5.699  18.887  0.00  0.00    +0.000 C 
ATOM     31  C   UNL     1       7.837   7.023  18.105  0.00  0.00    +0.000 C 
ATOM     32  O   UNL     1       7.781   6.801  16.690  0.00  0.00    +0.000 OA
ATOM     33  C   UNL     1       6.708   5.915  16.345  0.00  0.00    +0.000 C 
ATOM     34  C   UNL     1       6.831   4.580  17.096  0.00  0.00    +0.000 C 
ENDBRANCH  28  29
ENDBRANCH  27  28
ENDBRANCH   5  27
TORSDOF 9
ENDMDL
MODEL 4
REMARK VINA RESULT:      -7.4      1.010      1.193
REMARK  Name = 
REMARK  12 active torsions:
REMARK  status: ('A' for Active; 'I' for Inactive)
REMARK    1  A    between atoms: C_1  and  C_2
REMARK    2  A    between atoms: C_2  and  C_3
REMARK    3  A    between atoms: C_3  and  O_4
REMARK    4  A    between atoms: O_4  and  C_5
REMARK    5  A    between atoms: C_5  and  C_6
REMARK    6  A    between atoms: C_6  and  N_7
REMARK    7  A    between atoms: N_11  and  C_12
REMARK    8  A    between atoms: C_12  and  C_13
REMARK    9  A    between atoms: C_13  and  N_14
REMARK   10  A    between atoms: C_24  and  C_25
REMARK   11  A    between atoms: C_26  and  C_27
REMARK   12  A    between atoms: C_30  and  C_31
REMARK                            x       y       z     vdW  Elec       q    Type
REMARK                         _______ _______ _______ _____ _____    ______ ____
ROOT
ATOM      1  N   UNL     1      -0.139  10.784  19.350  0.00  0.00    +0.000 N 
ATOM      2  C   UNL     1       0.796   9.822  19.009  0.00  0.00    +0.000 A 
ATOM      3  O   UNL     1       1.312   9.676  17.904  0.00  0.00    +0.000 OA
ATOM      4  C   UNL     1       1.181   8.795  20.097  0.00  0.00    +0.000 A 
ATOM      5  N   UNL     1       1.987   7.739  19.708  0.00  0.00    +0.000 N 
ATOM      6  N   UNL     1       0.731   8.895  21.313  0.00  0.00    +0.000 NA
ATOM      7  C   UNL     1      -0.106   9.967  21.628  0.00  0.00    +0.000 A 
ATOM      8  C   UNL     1      -0.515  10.106  22.951  0.00  0.00    +0.000 A 
ATOM      9  C   UNL     1      -1.370  11.141  23.311  0.00  0.00    +0.000 A 
ATOM     10  C   UNL     1      -1.797  12.020  22.325  0.00  0.00    +0.000 A 
ATOM     11  N   UNL     1      -1.404  11.907  21.033  0.00  0.00    +0.000 NA
ATOM     12  C   UNL     1      -0.569  10.900  20.694  0.00  0.00    +0.000 A 
ATOM     13  H   UNL     1       2.117   7.696  18.698  0.00  0.00    +0.000 HD
ENDROOT
BRANCH  10  14
ATOM     14  C   UNL     1      -2.738  13.094  22.584  0.00  0.00    +0.000 A 
ATOM     15  C   UNL     1      -2.602  14.237  23.426  0.00  0.00    +0.000 A 
ATOM     16  C   UNL     1      -1.453  14.675  24.256  0.00  0.00    +0.000 C 
ATOM     17  N   UNL     1      -3.707  14.993  23.402  0.00  0.00    +0.000 NA
ATOM     18  O   UNL     1      -4.590  14.346  22.568  0.00  0.00    +0.000 OA
ATOM     19  C   UNL     1      -4.021  13.209  22.087  0.00  0.00    +0.000 A 
ATOM     20  C   UNL     1      -4.893  12.405  21.205  0.00  0.00    +0.000 C 
ENDBRANCH  10  14
BRANCH   1  21
ATOM     21  C   UNL     1      -0.542  11.791  18.368  0.00  0.00    +0.000 C 
BRANCH  21  22
ATOM     22  C   UNL     1      -1.740  11.378  17.504  0.00  0.00    +0.000 C 
BRANCH  22  23
ATOM     23  O   UNL     1      -2.954  11.741  18.172  0.00  0.00    +0.000 OA
BRANCH  23  24
ATOM     24  C   UNL     1      -3.989  10.792  17.909  0.00  0.00    +0.000 C 
BRANCH  24  26
ATOM     25  C   UNL     1      -6.454  11.259  18.047  0.00  0.00    +0.000 C 
ATOM     26  C   UNL     1      -5.170  11.517  17.279  0.00  0.00    +0.000 C 
ENDBRANCH  24  26
ENDBRANCH  23  24
ENDBRANCH  22  23
ENDBRANCH  21  22
ENDBRANCH   1  21
BRANCH   5  27
ATOM     27  C   UNL     1       1.824   6.454  20.379  0.00  0.00    +0.000 C 
BRANCH  27  28
ATOM     28  C   UNL     1       2.283   5.284  19.492  0.00  0.00    +0.000 C 
BRANCH  28  29
ATOM     29  N   UNL     1       1.662   3.990  19.848  0.00  0.00    +0.000 NA
ATOM     30  C   UNL     1       2.589   3.153  20.645  0.00  0.00    +0.000 C 
ATOM     31  C   UNL     1       3.742   2.550  19.820  0.00  0.00    +0.000 C 
ATOM     32  O   UNL     1       3.258   1.808  18.694  0.00  0.00    +0.000 OA
ATOM     33  C   UNL     1       2.407   2.612  17.869  0.00  0.00    +0.000 C 
ATOM     34  C   UNL     1       1.235   3.187  18.680  0.00  0.00    +0.000 C 
ENDBRANCH  28  29
ENDBRANCH  27  28
ENDBRANCH   5  27
TORSDOF 9
ENDMDL
MODEL 5
REMARK VINA RESULT:      -7.3      1.067      1.531
REMARK  Name = 
REMARK  12 active torsions:
REMARK  status: ('A' for Active; 'I' for Inactive)
REMARK    1  A    between atoms: C_1  and  C_2
REMARK    2  A    between atoms: C_2  and  C_3
REMARK    3  A    between atoms: C_3  and  O_4
REMARK    4  A    between atoms: O_4  and  C_5
REMARK    5  A    between atoms: C_5  and  C_6
REMARK    6  A    between atoms: C_6  and  N_7
REMARK    7  A    between atoms: N_11  and  C_12
REMARK    8  A    between atoms: C_12  and  C_13
REMARK    9  A    between atoms: C_13  and  N_14
REMARK   10  A    between atoms: C_24  and  C_25
REMARK   11  A    between atoms: C_26  and  C_27
REMARK   12  A    between atoms: C_30  and  C_31
REMARK                            x       y       z     vdW  Elec       q    Type
REMARK                         _______ _______ _______ _____ _____    ______ ____
ROOT
ATOM      1  N   UNL     1       0.141  10.179  19.422  0.00  0.00    +0.000 N 
ATOM      2  C   UNL     1       1.053   9.165  19.185  0.00  0.00    +0.000 A 
ATOM      3  O   UNL     1       1.576   8.900  18.107  0.00  0.00    +0.000 OA
ATOM      4  C   UNL     1       1.399   8.236  20.371  0.00  0.00    +0.000 A 
ATOM      5  N   UNL     1       2.179   7.127  20.096  0.00  0.00    +0.000 N 
ATOM      6  N   UNL     1       0.939   8.463  21.566  0.00  0.00    +0.000 NA
ATOM      7  C   UNL     1       0.128   9.582  21.767  0.00  0.00    +0.000 A 
ATOM      8  C   UNL     1      -0.291   9.857  23.065  0.00  0.00    +0.000 A 
ATOM      9  C   UNL     1      -1.122  10.944  23.314  0.00  0.00    +0.000 A 
ATOM     10  C   UNL     1      -1.515  11.736  22.243  0.00  0.00    +0.000 A 
ATOM     11  N   UNL     1      -1.111  11.489  20.974  0.00  0.00    +0.000 NA
ATOM     12  C   UNL     1      -0.300  10.433  20.743  0.00  0.00    +0.000 A 
ATOM     13  H   UNL     1       2.320   6.985  19.096  0.00  0.00    +0.000 HD
ENDROOT
BRANCH  10  14
ATOM     14  C   UNL     1      -2.429  12.853  22.387  0.00  0.00    +0.000 A 
ATOM     15  C   UNL     1      -3.539  13.010  23.270  0.00  0.00    +0.000 A 
ATOM     16  C   UNL     1      -4.061  12.094  24.313  0.00  0.00    +0.000 C 
ATOM     17  N   UNL     1      -4.142  14.191  23.087  0.00  0.00    +0.000 NA
ATOM     18  O   UNL     1      -3.456  14.812  22.068  0.00  0.00    +0.000 OA
ATOM     19  C   UNL     1      -2.442  14.014  21.640  0.00  0.00    +0.000 A 
ATOM     20  C   UNL     1      -1.654  14.561  20.516  0.00  0.00    +0.000 C 
ENDBRANCH  10  14
BRANCH   1  21
ATOM     21  C   UNL     1      -0.225  11.098  18.343  0.00  0.00    +0.000 C 
BRANCH  21  22
ATOM     22  C   UNL     1      -1.382  10.604  17.466  0.00  0.00    +0.000 C 
BRANCH  22  23
ATOM     23  O   UNL     1      -2.455  11.552  17.520  0.00  0.00    +0.000 OA
BRANCH  23  24
ATOM     24  C   UNL     1      -3.489  11.212  16.596  0.00  0.00    +0.000 C 
BRANCH  24  26
ATOM     25  C   UNL     1      -3.384  10.133  14.329  0.00  0.00    +0.000 C 
ATOM     26  C   UNL     1      -3.057   9.985  15.805  0.00  0.00    +0.000 C 
ENDBRANCH  24  26
ENDBRANCH  23  24
ENDBRANCH  22  23
ENDBRANCH  21  22
ENDBRANCH   1  21
BRANCH   5  27
ATOM     27  C   UNL     1       1.975   5.917  20.884  0.00  0.00    +0.000 C 
BRANCH  27  28
ATOM     28  C   UNL     1       1.808   4.675  19.991  0.00  0.00    +0.000 C 
BRANCH  28  29
ATOM     29  N   UNL     1       2.761   4.623  18.863  0.00  0.00    +0.000 NA
ATOM     30  C   UNL     1       2.230   3.800  17.751  0.00  0.00    +0.000 C 
ATOM     31  C   UNL     1       2.247   2.287  18.038  0.00  0.00    +0.000 C 
ATOM     32  O   UNL     1       3.555   1.829  18.403  0.00  0.00    +0.000 OA
ATOM     33  C   UNL     1       4.070   2.567  19.519  0.00  0.00    +0.000 C 
ATOM     34  C   UNL     1       4.089   4.074  19.223  0.00  0.00    +0.000 C 
ENDBRANCH  28  29
ENDBRANCH  27  28
ENDBRANCH   5  27
TORSDOF 9
ENDMDL
MODEL 6
REMARK VINA RESULT:      -7.3      0.815      1.866
REMARK  Name = 
REMARK  12 active torsions:
REMARK  status: ('A' for Active; 'I' for Inactive)
REMARK    1  A    between atoms: C_1  and  C_2
REMARK    2  A    between atoms: C_2  and  C_3
REMARK    3  A    between atoms: C_3  and  O_4
REMARK    4  A    between atoms: O_4  and  C_5
REMARK    5  A    between atoms: C_5  and  C_6
REMARK    6  A    between atoms: C_6  and  N_7
REMARK    7  A    between atoms: N_11  and  C_12
REMARK    8  A    between atoms: C_12  and  C_13
REMARK    9  A    between atoms: C_13  and  N_14
REMARK   10  A    between atoms: C_24  and  C_25
REMARK   11  A    between atoms: C_26  and  C_27
REMARK   12  A    between atoms: C_30  and  C_31
REMARK                            x       y       z     vdW  Elec       q    Type
REMARK                         _______ _______ _______ _____ _____    ______ ____
ROOT
ATOM      1  N   UNL     1       0.287  10.444  19.507  0.00  0.00    +0.000 N 
ATOM      2  C   UNL     1       1.184   9.415  19.279  0.00  0.00    +0.000 A 
ATOM      3  O   UNL     1       1.808   9.216  18.241  0.00  0.00    +0.000 OA
ATOM      4  C   UNL     1       1.372   8.380  20.412  0.00  0.00    +0.000 A 
ATOM      5  N   UNL     1       2.139   7.265  20.124  0.00  0.00    +0.000 N 
ATOM      6  N   UNL     1       0.797   8.530  21.569  0.00  0.00    +0.000 NA
ATOM      7  C   UNL     1       0.008   9.662  21.780  0.00  0.00    +0.000 A 
ATOM      8  C   UNL     1      -0.535   9.850  23.047  0.00  0.00    +0.000 A 
ATOM      9  C   UNL     1      -1.350  10.947  23.301  0.00  0.00    +0.000 A 
ATOM     10  C   UNL     1      -1.601  11.838  22.267  0.00  0.00    +0.000 A 
ATOM     11  N   UNL     1      -1.076  11.678  21.028  0.00  0.00    +0.000 NA
ATOM     12  C   UNL     1      -0.281  10.610  20.793  0.00  0.00    +0.000 A 
ATOM     13  H   UNL     1       2.378   7.197  19.135  0.00  0.00    +0.000 HD
ENDROOT
BRANCH  10  14
ATOM     14  C   UNL     1      -2.487  12.978  22.410  0.00  0.00    +0.000 A 
ATOM     15  C   UNL     1      -3.719  13.259  21.748  0.00  0.00    +0.000 A 
ATOM     16  C   UNL     1      -4.464  12.459  20.746  0.00  0.00    +0.000 C 
ATOM     17  N   UNL     1      -4.233  14.428  22.153  0.00  0.00    +0.000 NA
ATOM     18  O   UNL     1      -3.336  14.940  23.063  0.00  0.00    +0.000 OA
ATOM     19  C   UNL     1      -2.289  14.086  23.211  0.00  0.00    +0.000 A 
ATOM     20  C   UNL     1      -1.237  14.549  24.139  0.00  0.00    +0.000 C 
ENDBRANCH  10  14
BRANCH   1  21
ATOM     21  C   UNL     1       0.067  11.462  18.478  0.00  0.00    +0.000 C 
BRANCH  21  22
ATOM     22  C   UNL     1      -1.335  11.433  17.858  0.00  0.00    +0.000 C 
BRANCH  22  23
ATOM     23  O   UNL     1      -1.791  10.077  17.779  0.00  0.00    +0.000 OA
BRANCH  23  24
ATOM     24  C   UNL     1      -2.760   9.919  16.742  0.00  0.00    +0.000 C 
BRANCH  24  26
ATOM     25  C   UNL     1      -4.921  11.060  17.320  0.00  0.00    +0.000 C 
ATOM     26  C   UNL     1      -3.574  11.199  16.632  0.00  0.00    +0.000 C 
ENDBRANCH  24  26
ENDBRANCH  23  24
ENDBRANCH  22  23
ENDBRANCH  21  22
ENDBRANCH   1  21
BRANCH   5  27
ATOM     27  C   UNL     1       1.812   6.005  20.782  0.00  0.00    +0.000 C 
BRANCH  27  28
ATOM     28  C   UNL     1       1.700   4.847  19.776  0.00  0.00    +0.000 C 
BRANCH  28  29
ATOM     29  N   UNL     1       2.828   4.777  18.823  0.00  0.00    +0.000 NA
ATOM     30  C   UNL     1       2.461   4.002  17.615  0.00  0.00    +0.000 C 
ATOM     31  C   UNL     1       2.369   2.484  17.857  0.00  0.00    +0.000 C 
ATOM     32  O   UNL     1       3.578   1.962  18.424  0.00  0.00    +0.000 OA
ATOM     33  C   UNL     1       3.925   2.652  19.631  0.00  0.00    +0.000 C 
ATOM     34  C   UNL     1       4.053   4.164  19.386  0.00  0.00    +0.000 C 
ENDBRANCH  28  29
ENDBRANCH  27  28
ENDBRANCH   5  27
TORSDOF 9
ENDMDL
MODEL 7
REMARK VINA RESULT:      -7.3      3.601      6.977
REMARK  Name = 
REMARK  12 active torsions:
REMARK  status: ('A' for Active; 'I' for Inactive)
REMARK    1  A    between atoms: C_1  and  C_2
REMARK    2  A    between atoms: C_2  and  C_3
REMARK    3  A    between atoms: C_3  and  O_4
REMARK    4  A    between atoms: O_4  and  C_5
REMARK    5  A    between atoms: C_5  and  C_6
REMARK    6  A    between atoms: C_6  and  N_7
REMARK    7  A    between atoms: N_11  and  C_12
REMARK    8  A    between atoms: C_12  and  C_13
REMARK    9  A    between atoms: C_13  and  N_14
REMARK   10  A    between atoms: C_24  and  C_25
REMARK   11  A    between atoms: C_26  and  C_27
REMARK   12  A    between atoms: C_30  and  C_31
REMARK                            x       y       z     vdW  Elec       q    Type
REMARK                         _______ _______ _______ _____ _____    ______ ____
ROOT
ATOM      1  N   UNL     1       3.309   5.311  19.970  0.00  0.00    +0.000 N 
ATOM      2  C   UNL     1       4.219   4.434  19.405  0.00  0.00    +0.000 A 
ATOM      3  O   UNL     1       4.522   3.327  19.841  0.00  0.00    +0.000 OA
ATOM      4  C   UNL     1       4.975   4.915  18.146  0.00  0.00    +0.000 A 
ATOM      5  N   UNL     1       5.999   4.110  17.681  0.00  0.00    +0.000 N 
ATOM      6  N   UNL     1       4.689   6.050  17.577  0.00  0.00    +0.000 NA
ATOM      7  C   UNL     1       3.666   6.830  18.120  0.00  0.00    +0.000 A 
ATOM      8  C   UNL     1       3.318   8.001  17.455  0.00  0.00    +0.000 A 
ATOM      9  C   UNL     1       2.325   8.826  17.970  0.00  0.00    +0.000 A 
ATOM     10  C   UNL     1       1.699   8.451  19.151  0.00  0.00    +0.000 A 
ATOM     11  N   UNL     1       2.018   7.311  19.809  0.00  0.00    +0.000 NA
ATOM     12  C   UNL     1       2.982   6.513  19.298  0.00  0.00    +0.000 A 
ATOM     13  H   UNL     1       6.222   3.349  18.321  0.00  0.00    +0.000 HD
ENDROOT
BRANCH  10  14
ATOM     14  C   UNL     1       0.696   9.272  19.803  0.00  0.00    +0.000 A 
ATOM     15  C   UNL     1      -0.378  10.018  19.232  0.00  0.00    +0.000 A 
ATOM     16  C   UNL     1      -0.797  10.149  17.815  0.00  0.00    +0.000 C 
ATOM     17  N   UNL     1      -1.081  10.658  20.175  0.00  0.00    +0.000 NA
ATOM     18  O   UNL     1      -0.466  10.362  21.371  0.00  0.00    +0.000 OA
ATOM     19  C   UNL     1       0.600   9.546  21.153  0.00  0.00    +0.000 A 
ATOM     20  C   UNL     1       1.367   9.190  22.364  0.00  0.00    +0.000 C 
ENDBRANCH  10  14
BRANCH   1  21
ATOM     21  C   UNL     1       2.555   4.914  21.160  0.00  0.00    +0.000 C 
BRANCH  21  22
ATOM     22  C   UNL     1       1.632   3.708  20.943  0.00  0.00    +0.000 C 
BRANCH  22  23
ATOM     23  O   UNL     1       0.802   3.946  19.800  0.00  0.00    +0.000 OA
BRANCH  23  24
ATOM     24  C   UNL     1       0.467   2.722  19.144  0.00  0.00    +0.000 C 
BRANCH  24  26
ATOM     25  C   UNL     1       2.354   2.135  17.592  0.00  0.00    +0.000 C 
ATOM     26  C   UNL     1       1.735   1.901  18.959  0.00  0.00    +0.000 C 
ENDBRANCH  24  26
ENDBRANCH  23  24
ENDBRANCH  22  23
ENDBRANCH  21  22
ENDBRANCH   1  21
BRANCH   5  27
ATOM     27  C   UNL     1       7.141   4.742  17.029  0.00  0.00    +0.000 C 
BRANCH  27  28
ATOM     28  C   UNL     1       7.308   4.262  15.577  0.00  0.00    +0.000 C 
BRANCH  28  29
ATOM     29  N   UNL     1       6.777   5.209  14.574  0.00  0.00    +0.000 NA
ATOM     30  C   UNL     1       5.372   4.893  14.230  0.00  0.00    +0.000 C 
ATOM     31  C   UNL     1       5.217   3.636  13.352  0.00  0.00    +0.000 C 
ATOM     32  O   UNL     1       6.006   3.722  12.158  0.00  0.00    +0.000 OA
ATOM     33  C   UNL     1       7.384   3.965  12.463  0.00  0.00    +0.000 C 
ATOM     34  C   UNL     1       7.546   5.238  13.309  0.00  0.00    +0.000 C 
ENDBRANCH  28  29
ENDBRANCH  27  28
ENDBRANCH   5  27
TORSDOF 9
ENDMDL
MODEL 8
REMARK VINA RESULT:      -7.3      0.737      1.594
REMARK  Name = 
REMARK  12 active torsions:
REMARK  status: ('A' for Active; 'I' for Inactive)
REMARK    1  A    between atoms: C_1  and  C_2
REMARK    2  A    between atoms: C_2  and  C_3
REMARK    3  A    between atoms: C_3  and  O_4
REMARK    4  A    between atoms: O_4  and  C_5
REMARK    5  A    between atoms: C_5  and  C_6
REMARK    6  A    between atoms: C_6  and  N_7
REMARK    7  A    between atoms: N_11  and  C_12
REMARK    8  A    between atoms: C_12  and  C_13
REMARK    9  A    between atoms: C_13  and  N_14
REMARK   10  A    between atoms: C_24  and  C_25
REMARK   11  A    between atoms: C_26  and  C_27
REMARK   12  A    between atoms: C_30  and  C_31
REMARK                            x       y       z     vdW  Elec       q    Type
REMARK                         _______ _______ _______ _____ _____    ______ ____
ROOT
ATOM      1  N   UNL     1      -0.050  10.918  19.539  0.00  0.00    +0.000 N 
ATOM      2  C   UNL     1       0.872   9.938  19.212  0.00  0.00    +0.000 A 
ATOM      3  O   UNL     1       1.457   9.826  18.138  0.00  0.00    +0.000 OA
ATOM      4  C   UNL     1       1.145   8.845  20.269  0.00  0.00    +0.000 A 
ATOM      5  N   UNL     1       1.937   7.778  19.882  0.00  0.00    +0.000 N 
ATOM      6  N   UNL     1       0.616   8.903  21.456  0.00  0.00    +0.000 NA
ATOM      7  C   UNL     1      -0.202   9.990  21.769  0.00  0.00    +0.000 A 
ATOM      8  C   UNL     1      -0.696  10.080  23.067  0.00  0.00    +0.000 A 
ATOM      9  C   UNL     1      -1.537  11.129  23.421  0.00  0.00    +0.000 A 
ATOM     10  C   UNL     1      -1.864  12.071  22.455  0.00  0.00    +0.000 A 
ATOM     11  N   UNL     1      -1.388  12.005  21.189  0.00  0.00    +0.000 NA
ATOM     12  C   UNL     1      -0.567  10.984  20.855  0.00  0.00    +0.000 A 
ATOM     13  H   UNL     1       2.136   7.780  18.882  0.00  0.00    +0.000 HD
ENDROOT
BRANCH  10  14
ATOM     14  C   UNL     1      -2.782  13.166  22.705  0.00  0.00    +0.000 A 
ATOM     15  C   UNL     1      -4.084  13.400  22.169  0.00  0.00    +0.000 A 
ATOM     16  C   UNL     1      -4.885  12.581  21.226  0.00  0.00    +0.000 C 
ATOM     17  N   UNL     1      -4.608  14.537  22.644  0.00  0.00    +0.000 NA
ATOM     18  O   UNL     1      -3.652  15.076  23.475  0.00  0.00    +0.000 OA
ATOM     19  C   UNL     1      -2.558  14.268  23.506  0.00  0.00    +0.000 A 
ATOM     20  C   UNL     1      -1.444  14.765  24.339  0.00  0.00    +0.000 C 
ENDBRANCH  10  14
BRANCH   1  21
ATOM     21  C   UNL     1      -0.349  11.986  18.585  0.00  0.00    +0.000 C 
BRANCH  21  22
ATOM     22  C   UNL     1      -1.817  12.038  18.142  0.00  0.00    +0.000 C 
BRANCH  22  23
ATOM     23  O   UNL     1      -1.960  11.344  16.897  0.00  0.00    +0.000 OA
BRANCH  23  24
ATOM     24  C   UNL     1      -2.456  10.020  17.100  0.00  0.00    +0.000 C 
BRANCH  24  26
ATOM     25  C   UNL     1      -3.301  10.505  14.784  0.00  0.00    +0.000 C 
ATOM     26  C   UNL     1      -2.841   9.428  15.751  0.00  0.00    +0.000 C 
ENDBRANCH  24  26
ENDBRANCH  23  24
ENDBRANCH  22  23
ENDBRANCH  21  22
ENDBRANCH   1  21
BRANCH   5  27
ATOM     27  C   UNL     1       1.684   6.470  20.474  0.00  0.00    +0.000 C 
BRANCH  27  28
ATOM     28  C   UNL     1       2.568   5.378  19.848  0.00  0.00    +0.000 C 
BRANCH  28  29
ATOM     29  N   UNL     1       2.478   4.074  20.536  0.00  0.00    +0.000 NA
ATOM     30  C   UNL     1       3.506   3.132  20.036  0.00  0.00    +0.000 C 
ATOM     31  C   UNL     1       3.210   2.583  18.627  0.00  0.00    +0.000 C 
ATOM     32  O   UNL     1       1.913   1.976  18.555  0.00  0.00    +0.000 OA
ATOM     33  C   UNL     1       0.890   2.886  18.975  0.00  0.00    +0.000 C 
ATOM     34  C   UNL     1       1.163   3.408  20.394  0.00  0.00    +0.000 C 
ENDBRANCH  28  29
ENDBRANCH  27  28
ENDBRANCH   5  27
TORSDOF 9
ENDMDL
MODEL 9
REMARK VINA RESULT:      -7.3      1.173      2.027
REMARK  Name = 
REMARK  12 active torsions:
REMARK  status: ('A' for Active; 'I' for Inactive)
REMARK    1  A    between atoms: C_1  and  C_2
REMARK    2  A    between atoms: C_2  and  C_3
REMARK    3  A    between atoms: C_3  and  O_4
REMARK    4  A    between atoms: O_4  and  C_5
REMARK    5  A    between atoms: C_5  and  C_6
REMARK    6  A    between atoms: C_6  and  N_7
REMARK    7  A    between atoms: N_11  and  C_12
REMARK    8  A    between atoms: C_12  and  C_13
REMARK    9  A    between atoms: C_13  and  N_14
REMARK   10  A    between atoms: C_24  and  C_25
REMARK   11  A    between atoms: C_26  and  C_27
REMARK   12  A    between atoms: C_30  and  C_31
REMARK                            x       y       z     vdW  Elec       q    Type
REMARK                         _______ _______ _______ _____ _____    ______ ____
ROOT
ATOM      1  N   UNL     1      -0.263  10.784  19.308  0.00  0.00    +0.000 N 
ATOM      2  C   UNL     1       0.687   9.847  18.937  0.00  0.00    +0.000 A 
ATOM      3  O   UNL     1       1.154   9.699  17.811  0.00  0.00    +0.000 OA
ATOM      4  C   UNL     1       1.156   8.851  20.021  0.00  0.00    +0.000 A 
ATOM      5  N   UNL     1       1.977   7.815  19.611  0.00  0.00    +0.000 N 
ATOM      6  N   UNL     1       0.760   8.956  21.255  0.00  0.00    +0.000 NA
ATOM      7  C   UNL     1      -0.097  10.006  21.594  0.00  0.00    +0.000 A 
ATOM      8  C   UNL     1      -0.448  10.154  22.932  0.00  0.00    +0.000 A 
ATOM      9  C   UNL     1      -1.319  11.167  23.316  0.00  0.00    +0.000 A 
ATOM     10  C   UNL     1      -1.821  12.015  22.338  0.00  0.00    +0.000 A 
ATOM     11  N   UNL     1      -1.485  11.893  21.032  0.00  0.00    +0.000 NA
ATOM     12  C   UNL     1      -0.633  10.908  20.669  0.00  0.00    +0.000 A 
ATOM     13  H   UNL     1       2.061   7.760  18.596  0.00  0.00    +0.000 HD
ENDROOT
BRANCH  10  14
ATOM     14  C   UNL     1      -2.784  13.061  22.625  0.00  0.00    +0.000 A 
ATOM     15  C   UNL     1      -4.109  13.237  22.126  0.00  0.00    +0.000 A 
ATOM     16  C   UNL     1      -4.894  12.391  21.194  0.00  0.00    +0.000 C 
ATOM     17  N   UNL     1      -4.674  14.342  22.628  0.00  0.00    +0.000 NA
ATOM     18  O   UNL     1      -3.724  14.918  23.440  0.00  0.00    +0.000 OA
ATOM     19  C   UNL     1      -2.592  14.164  23.433  0.00  0.00    +0.000 A 
ATOM     20  C   UNL     1      -1.482  14.705  24.243  0.00  0.00    +0.000 C 
ENDBRANCH  10  14
BRANCH   1  21
ATOM     21  C   UNL     1      -0.745  11.761  18.331  0.00  0.00    +0.000 C 
BRANCH  21  22
ATOM     22  C   UNL     1      -1.947  11.282  17.507  0.00  0.00    +0.000 C 
BRANCH  22  23
ATOM     23  O   UNL     1      -3.151  11.812  18.073  0.00  0.00    +0.000 OA
BRANCH  23  24
ATOM     24  C   UNL     1      -4.279  11.529  17.243  0.00  0.00    +0.000 C 
BRANCH  24  26
ATOM     25  C   UNL     1      -6.639  11.349  18.084  0.00  0.00    +0.000 C 
ATOM     26  C   UNL     1      -5.272  10.689  18.034  0.00  0.00    +0.000 C 
ENDBRANCH  24  26
ENDBRANCH  23  24
ENDBRANCH  22  23
ENDBRANCH  21  22
ENDBRANCH   1  21
BRANCH   5  27
ATOM     27  C   UNL     1       1.888   6.537  20.308  0.00  0.00    +0.000 C 
BRANCH  27  28
ATOM     28  C   UNL     1       2.659   5.429  19.570  0.00  0.00    +0.000 C 
BRANCH  28  29
ATOM     29  N   UNL     1       1.810   4.597  18.693  0.00  0.00    +0.000 NA
ATOM     30  C   UNL     1       1.095   3.557  19.469  0.00  0.00    +0.000 C 
ATOM     31  C   UNL     1       2.002   2.405  19.942  0.00  0.00    +0.000 C 
ATOM     32  O   UNL     1       2.709   1.802  18.850  0.00  0.00    +0.000 OA
ATOM     33  C   UNL     1       3.461   2.777  18.117  0.00  0.00    +0.000 C 
ATOM     34  C   UNL     1       2.553   3.910  17.612  0.00  0.00    +0.000 C 
ENDBRANCH  28  29
ENDBRANCH  27  28
ENDBRANCH   5  27
TORSDOF 9
ENDMDL
