MODEL 1
REMARK VINA RESULT:      -7.6      0.000      0.000
REMARK  Name = 
REMARK  12 active torsions:
REMARK  status: ('A' for Active; 'I' for Inactive)
REMARK    1  A    between atoms: C_1  and  O_2
REMARK    2  A    between atoms: O_2  and  C_3
REMARK    3  A    between atoms: C_3  and  C_4
REMARK    4  A    between atoms: C_4  and  O_5
REMARK    5  A    between atoms: O_5  and  C_6
REMARK    6  A    between atoms: C_8  and  O_9
REMARK    7  A    between atoms: C_10  and  C_11
REMARK    8  A    between atoms: C_17  and  C_18
REMARK    9  A    between atoms: C_18  and  C_19
REMARK   10  A    between atoms: C_19  and  C_20
REMARK   11  A    between atoms: N_25  and  C_26
REMARK   12  A    between atoms: C_29  and  C_30
REMARK                            x       y       z     vdW  Elec       q    Type
REMARK                         _______ _______ _______ _____ _____    ______ ____
ROOT
ATOM      1  C   UNL     1       3.920   4.165  17.396  0.00  0.00    +0.000 A 
ATOM      2  C   UNL     1       3.827   2.788  17.677  0.00  0.00    +0.000 A 
ATOM      3  C   UNL     1       3.092   2.325  18.766  0.00  0.00    +0.000 A 
ATOM      4  C   UNL     1       2.442   3.225  19.597  0.00  0.00    +0.000 A 
ATOM      5  C   UNL     1       2.529   4.598  19.309  0.00  0.00    +0.000 A 
ATOM      6  O   UNL     1       1.857   5.464  20.183  0.00  0.00    +0.000 OA
ATOM      7  C   UNL     1       1.841   6.831  20.057  0.00  0.00    +0.000 A 
ATOM      8  O   UNL     1       1.238   7.512  20.877  0.00  0.00    +0.000 OA
ATOM      9  C   UNL     1       2.552   7.406  18.881  0.00  0.00    +0.000 A 
ATOM     10  C   UNL     1       3.219   6.602  18.013  0.00  0.00    +0.000 A 
ATOM     11  C   UNL     1       3.929   7.154  16.796  0.00  0.00    +0.000 C 
ATOM     12  C   UNL     1       3.247   5.115  18.213  0.00  0.00    +0.000 A 
ENDROOT
BRANCH   3  13
ATOM     13  O   UNL     1       3.021   0.981  19.006  0.00  0.00    +0.000 OA
ATOM     14  H   UNL     1       3.475   0.765  19.840  0.00  0.00    +0.000 HD
ENDBRANCH   3  13
BRANCH   4  15
ATOM     15  C   UNL     1       1.672   2.691  20.753  0.00  0.00    +0.000 C 
ATOM     16  O   UNL     1       2.166   2.392  21.832  0.00  0.00    +0.000 OA
ENDBRANCH   4  15
BRANCH   1  17
ATOM     17  O   UNL     1       4.652   4.625  16.328  0.00  0.00    +0.000 OA
BRANCH  17  18
ATOM     18  C   UNL     1       5.793   3.874  15.911  0.00  0.00    +0.000 C 
BRANCH  18  19
ATOM     19  C   UNL     1       7.033   4.757  15.944  0.00  0.00    +0.000 C 
BRANCH  19  21
ATOM     20  C   UNL     1       7.491   5.309  18.190  0.00  0.00    +0.000 C 
ATOM     21  O   UNL     1       7.785   4.429  17.113  0.00  0.00    +0.000 OA
ENDBRANCH  19  21
ENDBRANCH  18  19
ENDBRANCH  17  18
ENDBRANCH   1  17
BRANCH   9  22
ATOM     22  C   UNL     1       2.453   8.926  18.725  0.00  0.00    +0.000 C 
BRANCH  22  23
ATOM     23  C   UNL     1       1.237   9.553  18.027  0.00  0.00    +0.000 C 
BRANCH  23  24
ATOM     24  C   UNL     1       0.413  10.415  18.967  0.00  0.00    +0.000 C 
ATOM     25  O   UNL     1      -0.659  10.015  19.425  0.00  0.00    +0.000 OA
ATOM     26  N   UNL     1       0.981  11.622  19.368  0.00  0.00    +0.000 N 
ATOM     27  C   UNL     1       0.199  12.418  20.314  0.00  0.00    +0.000 C 
ATOM     28  C   UNL     1       1.026  13.518  20.999  0.00  0.00    +0.000 C 
ATOM     29  N   UNL     1       1.804  14.373  20.078  0.00  0.00    +0.000 NA
ATOM     30  C   UNL     1       0.930  15.249  19.298  0.00  0.00    +0.000 C 
ATOM     31  C   UNL     1       2.626  13.513  19.206  0.00  0.00    +0.000 C 
ATOM     32  C   UNL     1       1.867  12.386  18.482  0.00  0.00    +0.000 C 
ENDBRANCH  23  24
ENDBRANCH  22  23
ENDBRANCH   9  22
TORSDOF 9
ENDMDL
MODEL 2
REMARK VINA RESULT:      -7.5      3.762      9.494
REMARK  Name = 
REMARK  12 active torsions:
REMARK  status: ('A' for Active; 'I' for Inactive)
REMARK    1  A    between atoms: C_1  and  O_2
REMARK    2  A    between atoms: O_2  and  C_3
REMARK    3  A    between atoms: C_3  and  C_4
REMARK    4  A    between atoms: C_4  and  O_5
REMARK    5  A    between atoms: O_5  and  C_6
REMARK    6  A    between atoms: C_8  and  O_9
REMARK    7  A    between atoms: C_10  and  C_11
REMARK    8  A    between atoms: C_17  and  C_18
REMARK    9  A    between atoms: C_18  and  C_19
REMARK   10  A    between atoms: C_19  and  C_20
REMARK   11  A    between atoms: N_25  and  C_26
REMARK   12  A    between atoms: C_29  and  C_30
REMARK                            x       y       z     vdW  Elec       q    Type
REMARK                         _______ _______ _______ _____ _____    ______ ____
ROOT
ATOM      1  C   UNL     1      -2.200  12.067  19.715  0.00  0.00    +0.000 A 
ATOM      2  C   UNL     1      -3.237  12.948  20.080  0.00  0.00    +0.000 A 
ATOM      3  C   UNL     1      -3.574  13.146  21.416  0.00  0.00    +0.000 A 
ATOM      4  C   UNL     1      -2.889  12.468  22.413  0.00  0.00    +0.000 A 
ATOM      5  C   UNL     1      -1.848  11.597  22.047  0.00  0.00    +0.000 A 
ATOM      6  O   UNL     1      -1.191  10.933  23.092  0.00  0.00    +0.000 OA
ATOM      7  C   UNL     1      -0.160  10.044  22.917  0.00  0.00    +0.000 A 
ATOM      8  O   UNL     1       0.346   9.499  23.890  0.00  0.00    +0.000 OA
ATOM      9  C   UNL     1       0.306   9.821  21.520  0.00  0.00    +0.000 A 
ATOM     10  C   UNL     1      -0.307  10.441  20.478  0.00  0.00    +0.000 A 
ATOM     11  C   UNL     1       0.159  10.254  19.050  0.00  0.00    +0.000 C 
ATOM     12  C   UNL     1      -1.460  11.373  20.712  0.00  0.00    +0.000 A 
ENDROOT
BRANCH   3  13
ATOM     13  O   UNL     1      -4.584  14.011  21.733  0.00  0.00    +0.000 OA
ATOM     14  H   UNL     1      -4.497  14.832  21.218  0.00  0.00    +0.000 HD
ENDBRANCH   3  13
BRANCH   4  15
ATOM     15  C   UNL     1      -3.282  12.703  23.828  0.00  0.00    +0.000 C 
ATOM     16  O   UNL     1      -4.234  12.165  24.378  0.00  0.00    +0.000 OA
ENDBRANCH   4  15
BRANCH   1  17
ATOM     17  O   UNL     1      -1.872  11.863  18.396  0.00  0.00    +0.000 OA
BRANCH  17  18
ATOM     18  C   UNL     1      -2.906  11.483  17.489  0.00  0.00    +0.000 C 
BRANCH  18  19
ATOM     19  C   UNL     1      -3.026   9.965  17.446  0.00  0.00    +0.000 C 
BRANCH  19  21
ATOM     20  C   UNL     1      -2.930  10.657  15.194  0.00  0.00    +0.000 C 
ATOM     21  O   UNL     1      -3.136   9.564  16.079  0.00  0.00    +0.000 OA
ENDBRANCH  19  21
ENDBRANCH  18  19
ENDBRANCH  17  18
ENDBRANCH   1  17
BRANCH   9  22
ATOM     22  C   UNL     1       1.506   8.883  21.363  0.00  0.00    +0.000 C 
BRANCH  22  23
ATOM     23  C   UNL     1       1.287   7.381  21.128  0.00  0.00    +0.000 C 
BRANCH  23  24
ATOM     24  C   UNL     1       2.136   6.845  19.989  0.00  0.00    +0.000 C 
ATOM     25  O   UNL     1       2.507   7.579  19.070  0.00  0.00    +0.000 OA
ATOM     26  N   UNL     1       2.560   5.523  20.094  0.00  0.00    +0.000 N 
ATOM     27  C   UNL     1       3.419   5.036  19.015  0.00  0.00    +0.000 C 
ATOM     28  C   UNL     1       4.150   3.732  19.374  0.00  0.00    +0.000 C 
ATOM     29  N   UNL     1       3.283   2.661  19.907  0.00  0.00    +0.000 NA
ATOM     30  C   UNL     1       2.413   2.112  18.867  0.00  0.00    +0.000 C 
ATOM     31  C   UNL     1       2.502   3.196  21.038  0.00  0.00    +0.000 C 
ATOM     32  C   UNL     1       1.738   4.503  20.756  0.00  0.00    +0.000 C 
ENDBRANCH  23  24
ENDBRANCH  22  23
ENDBRANCH   9  22
TORSDOF 9
ENDMDL
MODEL 3
REMARK VINA RESULT:      -7.4      2.441      4.659
REMARK  Name = 
REMARK  12 active torsions:
REMARK  status: ('A' for Active; 'I' for Inactive)
REMARK    1  A    between atoms: C_1  and  O_2
REMARK    2  A    between atoms: O_2  and  C_3
REMARK    3  A    between atoms: C_3  and  C_4
REMARK    4  A    between atoms: C_4  and  O_5
REMARK    5  A    between atoms: O_5  and  C_6
REMARK    6  A    between atoms: C_8  and  O_9
REMARK    7  A    between atoms: C_10  and  C_11
REMARK    8  A    between atoms: C_17  and  C_18
REMARK    9  A    between atoms: C_18  and  C_19
REMARK   10  A    between atoms: C_19  and  C_20
REMARK   11  A    between atoms: N_25  and  C_26
REMARK   12  A    between atoms: C_29  and  C_30
REMARK                            x       y       z     vdW  Elec       q    Type
REMARK                         _______ _______ _______ _____ _____    ______ ____
ROOT
ATOM      1  C   UNL     1       3.252   5.218  19.939  0.00  0.00    +0.000 A 
ATOM      2  C   UNL     1       4.260   4.439  19.337  0.00  0.00    +0.000 A 
ATOM      3  C   UNL     1       4.882   4.854  18.163  0.00  0.00    +0.000 A 
ATOM      4  C   UNL     1       4.510   6.049  17.564  0.00  0.00    +0.000 A 
ATOM      5  C   UNL     1       3.511   6.828  18.173  0.00  0.00    +0.000 A 
ATOM      6  O   UNL     1       3.169   8.023  17.525  0.00  0.00    +0.000 OA
ATOM      7  C   UNL     1       2.213   8.900  17.974  0.00  0.00    +0.000 A 
ATOM      8  O   UNL     1       1.969   9.916  17.334  0.00  0.00    +0.000 OA
ATOM      9  C   UNL     1       1.540   8.562  19.259  0.00  0.00    +0.000 A 
ATOM     10  C   UNL     1       1.840   7.411  19.916  0.00  0.00    +0.000 A 
ATOM     11  C   UNL     1       1.192   7.052  21.236  0.00  0.00    +0.000 C 
ATOM     12  C   UNL     1       2.862   6.459  19.367  0.00  0.00    +0.000 A 
ENDROOT
BRANCH   3  13
ATOM     13  O   UNL     1       5.858   4.074  17.607  0.00  0.00    +0.000 OA
ATOM     14  H   UNL     1       6.527   4.632  17.172  0.00  0.00    +0.000 HD
ENDBRANCH   3  13
BRANCH   4  15
ATOM     15  C   UNL     1       5.194   6.454  16.308  0.00  0.00    +0.000 C 
ATOM     16  O   UNL     1       6.404   6.607  16.198  0.00  0.00    +0.000 OA
ENDBRANCH   4  15
BRANCH   1  17
ATOM     17  O   UNL     1       2.630   4.805  21.093  0.00  0.00    +0.000 OA
BRANCH  17  18
ATOM     18  C   UNL     1       2.322   3.419  21.242  0.00  0.00    +0.000 C 
BRANCH  18  19
ATOM     19  C   UNL     1       1.054   3.085  20.466  0.00  0.00    +0.000 C 
BRANCH  19  21
ATOM     20  C   UNL     1       1.591   2.388  18.279  0.00  0.00    +0.000 C 
ATOM     21  O   UNL     1       1.331   1.973  19.613  0.00  0.00    +0.000 OA
ENDBRANCH  19  21
ENDBRANCH  18  19
ENDBRANCH  17  18
ENDBRANCH   1  17
BRANCH   9  22
ATOM     22  C   UNL     1       0.534   9.596  19.773  0.00  0.00    +0.000 C 
BRANCH  22  23
ATOM     23  C   UNL     1       0.997  10.728  20.702  0.00  0.00    +0.000 C 
BRANCH  23  24
ATOM     24  C   UNL     1       0.114  10.863  21.930  0.00  0.00    +0.000 C 
ATOM     25  O   UNL     1       0.316  10.183  22.939  0.00  0.00    +0.000 OA
ATOM     26  N   UNL     1      -0.855  11.862  21.897  0.00  0.00    +0.000 N 
ATOM     27  C   UNL     1      -1.663  12.015  23.106  0.00  0.00    +0.000 C 
ATOM     28  C   UNL     1      -2.428  13.348  23.151  0.00  0.00    +0.000 C 
ATOM     29  N   UNL     1      -3.203  13.660  21.933  0.00  0.00    +0.000 NA
ATOM     30  C   UNL     1      -4.364  12.779  21.800  0.00  0.00    +0.000 C 
ATOM     31  C   UNL     1      -2.314  13.563  20.760  0.00  0.00    +0.000 C 
ATOM     32  C   UNL     1      -1.513  12.252  20.644  0.00  0.00    +0.000 C 
ENDBRANCH  23  24
ENDBRANCH  22  23
ENDBRANCH   9  22
TORSDOF 9
ENDMDL
MODEL 4
REMARK VINA RESULT:      -7.2      2.269      2.968
REMARK  Name = 
REMARK  12 active torsions:
REMARK  status: ('A' for Active; 'I' for Inactive)
REMARK    1  A    between atoms: C_1  and  O_2
REMARK    2  A    between atoms: O_2  and  C_3
REMARK    3  A    between atoms: C_3  and  C_4
REMARK    4  A    between atoms: C_4  and  O_5
REMARK    5  A    between atoms: O_5  and  C_6
REMARK    6  A    between atoms: C_8  and  O_9
REMARK    7  A    between atoms: C_10  and  C_11
REMARK    8  A    between atoms: C_17  and  C_18
REMARK    9  A    between atoms: C_18  and  C_19
REMARK   10  A    between atoms: C_19  and  C_20
REMARK   11  A    between atoms: N_25  and  C_26
REMARK   12  A    between atoms: C_29  and  C_30
REMARK                            x       y       z     vdW  Elec       q    Type
REMARK                         _______ _______ _______ _____ _____    ______ ____
ROOT
ATOM      1  C   UNL     1       4.109   4.759  17.993  0.00  0.00    +0.000 A 
ATOM      2  C   UNL     1       4.278   3.439  18.453  0.00  0.00    +0.000 A 
ATOM      3  C   UNL     1       3.667   3.003  19.626  0.00  0.00    +0.000 A 
ATOM      4  C   UNL     1       2.881   3.876  20.365  0.00  0.00    +0.000 A 
ATOM      5  C   UNL     1       2.707   5.190  19.898  0.00  0.00    +0.000 A 
ATOM      6  O   UNL     1       1.908   6.032  20.684  0.00  0.00    +0.000 OA
ATOM      7  C   UNL     1       1.637   7.344  20.384  0.00  0.00    +0.000 A 
ATOM      8  O   UNL     1       0.938   8.010  21.137  0.00  0.00    +0.000 OA
ATOM      9  C   UNL     1       2.202   7.873  19.111  0.00  0.00    +0.000 A 
ATOM     10  C   UNL     1       2.986   7.091  18.323  0.00  0.00    +0.000 A 
ATOM     11  C   UNL     1       3.554   7.592  17.013  0.00  0.00    +0.000 C 
ATOM     12  C   UNL     1       3.292   5.674  18.712  0.00  0.00    +0.000 A 
ENDROOT
BRANCH   3  13
ATOM     13  O   UNL     1       3.850   1.714  20.041  0.00  0.00    +0.000 OA
ATOM     14  H   UNL     1       4.735   1.401  19.783  0.00  0.00    +0.000 HD
ENDBRANCH   3  13
BRANCH   4  15
ATOM     15  C   UNL     1       2.250   3.374  21.615  0.00  0.00    +0.000 C 
ATOM     16  O   UNL     1       1.361   2.534  21.650  0.00  0.00    +0.000 OA
ENDBRANCH   4  15
BRANCH   1  17
ATOM     17  O   UNL     1       4.720   5.194  16.841  0.00  0.00    +0.000 OA
BRANCH  17  18
ATOM     18  C   UNL     1       6.039   4.731  16.553  0.00  0.00    +0.000 C 
BRANCH  18  19
ATOM     19  C   UNL     1       7.061   5.595  17.281  0.00  0.00    +0.000 C 
BRANCH  19  21
ATOM     20  C   UNL     1       7.881   5.663  19.490  0.00  0.00    +0.000 C 
ATOM     21  O   UNL     1       7.593   4.838  18.369  0.00  0.00    +0.000 OA
ENDBRANCH  19  21
ENDBRANCH  18  19
ENDBRANCH  17  18
ENDBRANCH   1  17
BRANCH   9  22
ATOM     22  C   UNL     1       1.821   9.315  18.765  0.00  0.00    +0.000 C 
BRANCH  22  23
ATOM     23  C   UNL     1       0.508   9.611  18.026  0.00  0.00    +0.000 C 
BRANCH  23  24
ATOM     24  C   UNL     1      -0.462  10.415  18.872  0.00  0.00    +0.000 C 
ATOM     25  O   UNL     1      -0.143  10.831  19.988  0.00  0.00    +0.000 OA
ATOM     26  N   UNL     1      -1.678  10.749  18.282  0.00  0.00    +0.000 N 
ATOM     27  C   UNL     1      -2.582  11.567  19.089  0.00  0.00    +0.000 C 
ATOM     28  C   UNL     1      -3.708  12.210  18.263  0.00  0.00    +0.000 C 
ATOM     29  N   UNL     1      -4.450  11.275  17.393  0.00  0.00    +0.000 NA
ATOM     30  C   UNL     1      -5.284  10.365  18.177  0.00  0.00    +0.000 C 
ATOM     31  C   UNL     1      -3.488  10.537  16.552  0.00  0.00    +0.000 C 
ATOM     32  C   UNL     1      -2.329   9.862  17.309  0.00  0.00    +0.000 C 
ENDBRANCH  23  24
ENDBRANCH  22  23
ENDBRANCH   9  22
TORSDOF 9
ENDMDL
MODEL 5
REMARK VINA RESULT:      -7.2      2.276      4.630
REMARK  Name = 
REMARK  12 active torsions:
REMARK  status: ('A' for Active; 'I' for Inactive)
REMARK    1  A    between atoms: C_1  and  O_2
REMARK    2  A    between atoms: O_2  and  C_3
REMARK    3  A    between atoms: C_3  and  C_4
REMARK    4  A    between atoms: C_4  and  O_5
REMARK    5  A    between atoms: O_5  and  C_6
REMARK    6  A    between atoms: C_8  and  O_9
REMARK    7  A    between atoms: C_10  and  C_11
REMARK    8  A    between atoms: C_17  and  C_18
REMARK    9  A    between atoms: C_18  and  C_19
REMARK   10  A    between atoms: C_19  and  C_20
REMARK   11  A    between atoms: N_25  and  C_26
REMARK   12  A    between atoms: C_29  and  C_30
REMARK                            x       y       z     vdW  Elec       q    Type
REMARK                         _______ _______ _______ _____ _____    ______ ____
ROOT
ATOM      1  C   UNL     1       2.999   5.289  19.880  0.00  0.00    +0.000 A 
ATOM      2  C   UNL     1       3.903   4.408  19.255  0.00  0.00    +0.000 A 
ATOM      3  C   UNL     1       4.554   4.765  18.077  0.00  0.00    +0.000 A 
ATOM      4  C   UNL     1       4.312   6.002  17.497  0.00  0.00    +0.000 A 
ATOM      5  C   UNL     1       3.416   6.881  18.128  0.00  0.00    +0.000 A 
ATOM      6  O   UNL     1       3.204   8.116  17.498  0.00  0.00    +0.000 OA
ATOM      7  C   UNL     1       2.360   9.090  17.971  0.00  0.00    +0.000 A 
ATOM      8  O   UNL     1       2.225  10.135  17.346  0.00  0.00    +0.000 OA
ATOM      9  C   UNL     1       1.670   8.815  19.262  0.00  0.00    +0.000 A 
ATOM     10  C   UNL     1       1.845   7.629  19.902  0.00  0.00    +0.000 A 
ATOM     11  C   UNL     1       1.178   7.329  21.227  0.00  0.00    +0.000 C 
ATOM     12  C   UNL     1       2.745   6.574  19.327  0.00  0.00    +0.000 A 
ENDROOT
BRANCH   3  13
ATOM     13  O   UNL     1       5.428   3.887  17.499  0.00  0.00    +0.000 OA
ATOM     14  H   UNL     1       5.201   3.756  16.561  0.00  0.00    +0.000 HD
ENDBRANCH   3  13
BRANCH   4  15
ATOM     15  C   UNL     1       5.022   6.343  16.235  0.00  0.00    +0.000 C 
ATOM     16  O   UNL     1       5.214   5.557  15.316  0.00  0.00    +0.000 OA
ENDBRANCH   4  15
BRANCH   1  17
ATOM     17  O   UNL     1       2.348   4.935  21.038  0.00  0.00    +0.000 OA
BRANCH  17  18
ATOM     18  C   UNL     1       2.446   3.584  21.488  0.00  0.00    +0.000 C 
BRANCH  18  19
ATOM     19  C   UNL     1       1.201   2.810  21.073  0.00  0.00    +0.000 C 
BRANCH  19  21
ATOM     20  C   UNL     1       0.800   2.436  18.780  0.00  0.00    +0.000 C 
ATOM     21  O   UNL     1       1.526   2.019  19.929  0.00  0.00    +0.000 OA
ENDBRANCH  19  21
ENDBRANCH  18  19
ENDBRANCH  17  18
ENDBRANCH   1  17
BRANCH   9  22
ATOM     22  C   UNL     1       0.795   9.949  19.802  0.00  0.00    +0.000 C 
BRANCH  22  23
ATOM     23  C   UNL     1      -0.669  10.075  19.354  0.00  0.00    +0.000 C 
BRANCH  23  24
ATOM     24  C   UNL     1      -1.167  11.508  19.406  0.00  0.00    +0.000 C 
ATOM     25  O   UNL     1      -1.200  12.209  18.393  0.00  0.00    +0.000 OA
ATOM     26  N   UNL     1      -1.684  11.946  20.622  0.00  0.00    +0.000 N 
ATOM     27  C   UNL     1      -2.208  13.312  20.644  0.00  0.00    +0.000 C 
ATOM     28  C   UNL     1      -3.093  13.595  21.869  0.00  0.00    +0.000 C 
ATOM     29  N   UNL     1      -2.493  13.220  23.166  0.00  0.00    +0.000 NA
ATOM     30  C   UNL     1      -1.387  14.110  23.520  0.00  0.00    +0.000 C 
ATOM     31  C   UNL     1      -2.057  11.813  23.104  0.00  0.00    +0.000 C 
ATOM     32  C   UNL     1      -1.163  11.450  21.902  0.00  0.00    +0.000 C 
ENDBRANCH  23  24
ENDBRANCH  22  23
ENDBRANCH   9  22
TORSDOF 9
ENDMDL
MODEL 6
REMARK VINA RESULT:      -7.2      0.827      1.309
REMARK  Name = 
REMARK  12 active torsions:
REMARK  status: ('A' for Active; 'I' for Inactive)
REMARK    1  A    between atoms: C_1  and  O_2
REMARK    2  A    between atoms: O_2  and  C_3
REMARK    3  A    between atoms: C_3  and  C_4
REMARK    4  A    between atoms: C_4  and  O_5
REMARK    5  A    between atoms: O_5  and  C_6
REMARK    6  A    between atoms: C_8  and  O_9
REMARK    7  A    between atoms: C_10  and  C_11
REMARK    8  A    between atoms: C_17  and  C_18
REMARK    9  A    between atoms: C_18  and  C_19
REMARK   10  A    between atoms: C_19  and  C_20
REMARK   11  A    between atoms: N_25  and  C_26
REMARK   12  A    between atoms: C_29  and  C_30
REMARK                            x       y       z     vdW  Elec       q    Type
REMARK                         _______ _______ _______ _____ _____    ______ ____
ROOT
ATOM      1  C   UNL     1       3.797   4.143  17.460  0.00  0.00    +0.000 A 
ATOM      2  C   UNL     1       3.671   2.771  17.750  0.00  0.00    +0.000 A 
ATOM      3  C   UNL     1       2.927   2.333  18.843  0.00  0.00    +0.000 A 
ATOM      4  C   UNL     1       2.300   3.254  19.670  0.00  0.00    +0.000 A 
ATOM      5  C   UNL     1       2.421   4.622  19.373  0.00  0.00    +0.000 A 
ATOM      6  O   UNL     1       1.772   5.511  20.243  0.00  0.00    +0.000 OA
ATOM      7  C   UNL     1       1.789   6.876  20.107  0.00  0.00    +0.000 A 
ATOM      8  O   UNL     1       1.205   7.577  20.925  0.00  0.00    +0.000 OA
ATOM      9  C   UNL     1       2.512   7.427  18.927  0.00  0.00    +0.000 A 
ATOM     10  C   UNL     1       3.157   6.600  18.063  0.00  0.00    +0.000 A 
ATOM     11  C   UNL     1       3.879   7.127  16.841  0.00  0.00    +0.000 C 
ATOM     12  C   UNL     1       3.148   5.114  18.272  0.00  0.00    +0.000 A 
ENDROOT
BRANCH   3  13
ATOM     13  O   UNL     1       2.823   0.993  19.092  0.00  0.00    +0.000 OA
ATOM     14  H   UNL     1       1.974   0.797  19.526  0.00  0.00    +0.000 HD
ENDBRANCH   3  13
BRANCH   4  15
ATOM     15  C   UNL     1       1.520   2.747  20.830  0.00  0.00    +0.000 C 
ATOM     16  O   UNL     1       2.015   2.379  21.888  0.00  0.00    +0.000 OA
ENDBRANCH   4  15
BRANCH   1  17
ATOM     17  O   UNL     1       4.538   4.578  16.387  0.00  0.00    +0.000 OA
BRANCH  17  18
ATOM     18  C   UNL     1       5.865   4.076  16.229  0.00  0.00    +0.000 C 
BRANCH  18  19
ATOM     19  C   UNL     1       6.411   4.479  14.866  0.00  0.00    +0.000 C 
BRANCH  19  21
ATOM     20  C   UNL     1       6.069   3.525  12.737  0.00  0.00    +0.000 C 
ATOM     21  O   UNL     1       5.451   4.114  13.873  0.00  0.00    +0.000 OA
ENDBRANCH  19  21
ENDBRANCH  18  19
ENDBRANCH  17  18
ENDBRANCH   1  17
BRANCH   9  22
ATOM     22  C   UNL     1       2.450   8.948  18.761  0.00  0.00    +0.000 C 
BRANCH  22  23
ATOM     23  C   UNL     1       1.262   9.597  18.036  0.00  0.00    +0.000 C 
BRANCH  23  24
ATOM     24  C   UNL     1       0.413  10.447  18.966  0.00  0.00    +0.000 C 
ATOM     25  O   UNL     1      -0.665  10.036  19.400  0.00  0.00    +0.000 OA
ATOM     26  N   UNL     1       0.964  11.655  19.385  0.00  0.00    +0.000 N 
ATOM     27  C   UNL     1       0.158  12.438  20.321  0.00  0.00    +0.000 C 
ATOM     28  C   UNL     1       0.963  13.541  21.029  0.00  0.00    +0.000 C 
ATOM     29  N   UNL     1       1.752  14.407  20.129  0.00  0.00    +0.000 NA
ATOM     30  C   UNL     1       0.886  15.282  19.338  0.00  0.00    +0.000 C 
ATOM     31  C   UNL     1       2.598  13.560  19.268  0.00  0.00    +0.000 C 
ATOM     32  C   UNL     1       1.861  12.431  18.521  0.00  0.00    +0.000 C 
ENDBRANCH  23  24
ENDBRANCH  22  23
ENDBRANCH   9  22
TORSDOF 9
ENDMDL
MODEL 7
REMARK VINA RESULT:      -7.2      2.354      3.106
REMARK  Name = 
REMARK  12 active torsions:
REMARK  status: ('A' for Active; 'I' for Inactive)
REMARK    1  A    between atoms: C_1  and  O_2
REMARK    2  A    between atoms: O_2  and  C_3
REMARK    3  A    between atoms: C_3  and  C_4
REMARK    4  A    between atoms: C_4  and  O_5
REMARK    5  A    between atoms: O_5  and  C_6
REMARK    6  A    between atoms: C_8  and  O_9
REMARK    7  A    between atoms: C_10  and  C_11
REMARK    8  A    between atoms: C_17  and  C_18
REMARK    9  A    between atoms: C_18  and  C_19
REMARK   10  A    between atoms: C_19  and  C_20
REMARK   11  A    between atoms: N_25  and  C_26
REMARK   12  A    between atoms: C_29  and  C_30
REMARK                            x       y       z     vdW  Elec       q    Type
REMARK                         _______ _______ _______ _____ _____    ______ ____
ROOT
ATOM      1  C   UNL     1       3.970   4.879  17.950  0.00  0.00    +0.000 A 
ATOM      2  C   UNL     1       4.167   3.545  18.357  0.00  0.00    +0.000 A 
ATOM      3  C   UNL     1       3.594   3.059  19.530  0.00  0.00    +0.000 A 
ATOM      4  C   UNL     1       2.821   3.895  20.322  0.00  0.00    +0.000 A 
ATOM      5  C   UNL     1       2.619   5.223  19.909  0.00  0.00    +0.000 A 
ATOM      6  O   UNL     1       1.834   6.026  20.748  0.00  0.00    +0.000 OA
ATOM      7  C   UNL     1       1.540   7.345  20.504  0.00  0.00    +0.000 A 
ATOM      8  O   UNL     1       0.856   7.975  21.301  0.00  0.00    +0.000 OA
ATOM      9  C   UNL     1       2.062   7.927  19.236  0.00  0.00    +0.000 A 
ATOM     10  C   UNL     1       2.831   7.183  18.398  0.00  0.00    +0.000 A 
ATOM     11  C   UNL     1       3.355   7.738  17.091  0.00  0.00    +0.000 C 
ATOM     12  C   UNL     1       3.163   5.757  18.725  0.00  0.00    +0.000 A 
ENDROOT
BRANCH   3  13
ATOM     13  O   UNL     1       3.804   1.758  19.891  0.00  0.00    +0.000 OA
ATOM     14  H   UNL     1       4.661   1.669  20.344  0.00  0.00    +0.000 HD
ENDBRANCH   3  13
BRANCH   4  15
ATOM     15  C   UNL     1       2.232   3.341  21.570  0.00  0.00    +0.000 C 
ATOM     16  O   UNL     1       1.103   2.877  21.655  0.00  0.00    +0.000 OA
ENDBRANCH   4  15
BRANCH   1  17
ATOM     17  O   UNL     1       4.541   5.362  16.797  0.00  0.00    +0.000 OA
BRANCH  17  18
ATOM     18  C   UNL     1       5.688   4.692  16.273  0.00  0.00    +0.000 C 
BRANCH  18  19
ATOM     19  C   UNL     1       6.878   5.642  16.252  0.00  0.00    +0.000 C 
BRANCH  19  21
ATOM     20  C   UNL     1       6.884   4.636  14.120  0.00  0.00    +0.000 C 
ATOM     21  O   UNL     1       7.633   5.386  15.067  0.00  0.00    +0.000 OA
ENDBRANCH  19  21
ENDBRANCH  18  19
ENDBRANCH  17  18
ENDBRANCH   1  17
BRANCH   9  22
ATOM     22  C   UNL     1       1.656   9.376  18.954  0.00  0.00    +0.000 C 
BRANCH  22  23
ATOM     23  C   UNL     1       0.356   9.679  18.194  0.00  0.00    +0.000 C 
BRANCH  23  24
ATOM     24  C   UNL     1      -0.631  10.472  19.032  0.00  0.00    +0.000 C 
ATOM     25  O   UNL     1      -0.328  10.887  20.153  0.00  0.00    +0.000 OA
ATOM     26  N   UNL     1      -1.843  10.798  18.429  0.00  0.00    +0.000 N 
ATOM     27  C   UNL     1      -2.763  11.606  19.229  0.00  0.00    +0.000 C 
ATOM     28  C   UNL     1      -3.885  12.242  18.391  0.00  0.00    +0.000 C 
ATOM     29  N   UNL     1      -4.608  11.304  17.509  0.00  0.00    +0.000 NA
ATOM     30  C   UNL     1      -5.444  10.384  18.281  0.00  0.00    +0.000 C 
ATOM     31  C   UNL     1      -3.631  10.577  16.677  0.00  0.00    +0.000 C 
ATOM     32  C   UNL     1      -2.474   9.909  17.446  0.00  0.00    +0.000 C 
ENDBRANCH  23  24
ENDBRANCH  22  23
ENDBRANCH   9  22
TORSDOF 9
ENDMDL
MODEL 8
REMARK VINA RESULT:      -7.2      2.084      2.666
REMARK  Name = 
REMARK  12 active torsions:
REMARK  status: ('A' for Active; 'I' for Inactive)
REMARK    1  A    between atoms: C_1  and  O_2
REMARK    2  A    between atoms: O_2  and  C_3
REMARK    3  A    between atoms: C_3  and  C_4
REMARK    4  A    between atoms: C_4  and  O_5
REMARK    5  A    between atoms: O_5  and  C_6
REMARK    6  A    between atoms: C_8  and  O_9
REMARK    7  A    between atoms: C_10  and  C_11
REMARK    8  A    between atoms: C_17  and  C_18
REMARK    9  A    between atoms: C_18  and  C_19
REMARK   10  A    between atoms: C_19  and  C_20
REMARK   11  A    between atoms: N_25  and  C_26
REMARK   12  A    between atoms: C_29  and  C_30
REMARK                            x       y       z     vdW  Elec       q    Type
REMARK                         _______ _______ _______ _____ _____    ______ ____
ROOT
ATOM      1  C   UNL     1       3.603   5.747  18.113  0.00  0.00    +0.000 A 
ATOM      2  C   UNL     1       3.906   4.397  18.379  0.00  0.00    +0.000 A 
ATOM      3  C   UNL     1       3.397   3.756  19.506  0.00  0.00    +0.000 A 
ATOM      4  C   UNL     1       2.583   4.448  20.390  0.00  0.00    +0.000 A 
ATOM      5  C   UNL     1       2.276   5.792  20.117  0.00  0.00    +0.000 A 
ATOM      6  O   UNL     1       1.454   6.447  21.045  0.00  0.00    +0.000 OA
ATOM      7  C   UNL     1       1.059   7.757  20.940  0.00  0.00    +0.000 A 
ATOM      8  O   UNL     1       0.350   8.252  21.807  0.00  0.00    +0.000 OA
ATOM      9  C   UNL     1       1.508   8.500  19.730  0.00  0.00    +0.000 A 
ATOM     10  C   UNL     1       2.310   7.904  18.808  0.00  0.00    +0.000 A 
ATOM     11  C   UNL     1       2.762   8.624  17.556  0.00  0.00    +0.000 C 
ATOM     12  C   UNL     1       2.753   6.481  18.985  0.00  0.00    +0.000 A 
ENDROOT
BRANCH   3  13
ATOM     13  O   UNL     1       3.709   2.444  19.730  0.00  0.00    +0.000 OA
ATOM     14  H   UNL     1       4.098   2.050  18.930  0.00  0.00    +0.000 HD
ENDBRANCH   3  13
BRANCH   4  15
ATOM     15  C   UNL     1       2.065   3.730  21.585  0.00  0.00    +0.000 C 
ATOM     16  O   UNL     1       1.397   2.705  21.539  0.00  0.00    +0.000 OA
ENDBRANCH   4  15
BRANCH   1  17
ATOM     17  O   UNL     1       4.111   6.384  17.006  0.00  0.00    +0.000 OA
BRANCH  17  18
ATOM     18  C   UNL     1       5.381   5.969  16.505  0.00  0.00    +0.000 C 
BRANCH  18  19
ATOM     19  C   UNL     1       6.485   6.810  17.132  0.00  0.00    +0.000 C 
BRANCH  19  21
ATOM     20  C   UNL     1       7.448   4.676  17.410  0.00  0.00    +0.000 C 
ATOM     21  O   UNL     1       7.264   5.965  17.980  0.00  0.00    +0.000 OA
ENDBRANCH  19  21
ENDBRANCH  18  19
ENDBRANCH  17  18
ENDBRANCH   1  17
BRANCH   9  22
ATOM     22  C   UNL     1       0.991   9.936  19.602  0.00  0.00    +0.000 C 
BRANCH  22  23
ATOM     23  C   UNL     1      -0.504  10.199  19.366  0.00  0.00    +0.000 C 
BRANCH  23  24
ATOM     24  C   UNL     1      -0.848  11.676  19.441  0.00  0.00    +0.000 C 
ATOM     25  O   UNL     1      -0.680  12.421  18.472  0.00  0.00    +0.000 OA
ATOM     26  N   UNL     1      -1.460  12.117  20.611  0.00  0.00    +0.000 N 
ATOM     27  C   UNL     1      -1.832  13.531  20.650  0.00  0.00    +0.000 C 
ATOM     28  C   UNL     1      -2.825  13.859  21.777  0.00  0.00    +0.000 C 
ATOM     29  N   UNL     1      -2.433  13.361  23.112  0.00  0.00    +0.000 NA
ATOM     30  C   UNL     1      -1.289  14.103  23.643  0.00  0.00    +0.000 C 
ATOM     31  C   UNL     1      -2.145  11.918  23.020  0.00  0.00    +0.000 C 
ATOM     32  C   UNL     1      -1.156  11.509  21.912  0.00  0.00    +0.000 C 
ENDBRANCH  23  24
ENDBRANCH  22  23
ENDBRANCH   9  22
TORSDOF 9
ENDMDL
MODEL 9
REMARK VINA RESULT:      -7.1      1.755      4.198
REMARK  Name = 
REMARK  12 active torsions:
REMARK  status: ('A' for Active; 'I' for Inactive)
REMARK    1  A    between atoms: C_1  and  O_2
REMARK    2  A    between atoms: O_2  and  C_3
REMARK    3  A    between atoms: C_3  and  C_4
REMARK    4  A    between atoms: C_4  and  O_5
REMARK    5  A    between atoms: O_5  and  C_6
REMARK    6  A    between atoms: C_8  and  O_9
REMARK    7  A    between atoms: C_10  and  C_11
REMARK    8  A    between atoms: C_17  and  C_18
REMARK    9  A    between atoms: C_18  and  C_19
REMARK   10  A    between atoms: C_19  and  C_20
REMARK   11  A    between atoms: N_25  and  C_26
REMARK   12  A    between atoms: C_29  and  C_30
REMARK                            x       y       z     vdW  Elec       q    Type
REMARK                         _______ _______ _______ _____ _____    ______ ____
ROOT
ATOM      1  C   UNL     1       3.342   5.209  19.853  0.00  0.00    +0.000 A 
ATOM      2  C   UNL     1       4.346   4.440  19.231  0.00  0.00    +0.000 A 
ATOM      3  C   UNL     1       4.947   4.867  18.049  0.00  0.00    +0.000 A 
ATOM      4  C   UNL     1       4.556   6.062  17.463  0.00  0.00    +0.000 A 
ATOM      5  C   UNL     1       3.561   6.830  18.091  0.00  0.00    +0.000 A 
ATOM      6  O   UNL     1       3.200   8.026  17.455  0.00  0.00    +0.000 OA
ATOM      7  C   UNL     1       2.245   8.893  17.923  0.00  0.00    +0.000 A 
ATOM      8  O   UNL     1       1.983   9.910  17.293  0.00  0.00    +0.000 OA
ATOM      9  C   UNL     1       1.595   8.544  19.217  0.00  0.00    +0.000 A 
ATOM     10  C   UNL     1       1.913   7.391  19.863  0.00  0.00    +0.000 A 
ATOM     11  C   UNL     1       1.289   7.021  21.191  0.00  0.00    +0.000 C 
ATOM     12  C   UNL     1       2.933   6.450  19.293  0.00  0.00    +0.000 A 
ENDROOT
BRANCH   3  13
ATOM     13  O   UNL     1       5.920   4.097  17.475  0.00  0.00    +0.000 OA
ATOM     14  H   UNL     1       5.524   3.313  17.057  0.00  0.00    +0.000 HD
ENDBRANCH   3  13
BRANCH   4  15
ATOM     15  C   UNL     1       5.218   6.479  16.198  0.00  0.00    +0.000 C 
ATOM     16  O   UNL     1       6.420   6.680  16.082  0.00  0.00    +0.000 OA
ENDBRANCH   4  15
BRANCH   1  17
ATOM     17  O   UNL     1       2.740   4.785  21.014  0.00  0.00    +0.000 OA
BRANCH  17  18
ATOM     18  C   UNL     1       2.353   3.415  21.120  0.00  0.00    +0.000 C 
BRANCH  18  19
ATOM     19  C   UNL     1       0.900   3.254  20.693  0.00  0.00    +0.000 C 
BRANCH  19  21
ATOM     20  C   UNL     1       1.610   2.019  18.815  0.00  0.00    +0.000 C 
ATOM     21  O   UNL     1       0.861   3.138  19.270  0.00  0.00    +0.000 OA
ENDBRANCH  19  21
ENDBRANCH  18  19
ENDBRANCH  17  18
ENDBRANCH   1  17
BRANCH   9  22
ATOM     22  C   UNL     1       0.589   9.567  19.752  0.00  0.00    +0.000 C 
BRANCH  22  23
ATOM     23  C   UNL     1       1.073  10.932  20.262  0.00  0.00    +0.000 C 
BRANCH  23  24
ATOM     24  C   UNL     1       0.459  12.087  19.492  0.00  0.00    +0.000 C 
ATOM     25  O   UNL     1      -0.621  11.964  18.910  0.00  0.00    +0.000 OA
ATOM     26  N   UNL     1       1.119  13.311  19.570  0.00  0.00    +0.000 N 
ATOM     27  C   UNL     1       0.488  14.427  18.866  0.00  0.00    +0.000 C 
ATOM     28  C   UNL     1       1.038  15.796  19.299  0.00  0.00    +0.000 C 
ATOM     29  N   UNL     1       2.511  15.905  19.286  0.00  0.00    +0.000 NA
ATOM     30  C   UNL     1       3.034  15.914  17.920  0.00  0.00    +0.000 C 
ATOM     31  C   UNL     1       3.080  14.797  20.076  0.00  0.00    +0.000 C 
ATOM     32  C   UNL     1       2.579  13.390  19.699  0.00  0.00    +0.000 C 
ENDBRANCH  23  24
ENDBRANCH  22  23
ENDBRANCH   9  22
TORSDOF 9
ENDMDL
