MODEL 1
REMARK VINA RESULT:      -8.1      0.000      0.000
REMARK  Name = 
REMARK  3 active torsions:
REMARK  status: ('A' for Active; 'I' for Inactive)
REMARK    1  A    between atoms: N_12  and  C_13
REMARK    2  A    between atoms: C_13  and  C_14
REMARK    3  A    between atoms: C_14  and  N_15
REMARK                            x       y       z     vdW  Elec       q    Type
REMARK                         _______ _______ _______ _____ _____    ______ ____
ROOT
ATOM      1  O   UNL     1       8.283   4.061  17.708  0.00  0.00    +0.000 OA
ATOM      2  C   UNL     1       7.583   4.571  16.848  0.00  0.00    +0.000 C 
ATOM      3  N   UNL     1       7.540   4.141  15.547  0.00  0.00    +0.000 N 
ATOM      4  C   UNL     1       6.656   4.942  14.733  0.00  0.00    +0.000 C 
ATOM      5  C   UNL     1       7.416   5.716  13.658  0.00  0.00    +0.000 C 
ATOM      6  C   UNL     1       7.895   4.791  12.544  0.00  0.00    +0.000 C 
ATOM      7  C   UNL     1       6.749   3.956  11.974  0.00  0.00    +0.000 C 
ATOM      8  C   UNL     1       5.988   3.190  13.056  0.00  0.00    +0.000 C 
ATOM      9  C   UNL     1       5.503   4.121  14.162  0.00  0.00    +0.000 C 
ATOM     10  C   UNL     1       6.134   5.915  15.790  0.00  0.00    +0.000 C 
ATOM     11  O   UNL     1       5.311   6.793  15.564  0.00  0.00    +0.000 OA
ATOM     12  N   UNL     1       6.721   5.620  16.989  0.00  0.00    +0.000 N 
ATOM     13  H   UNL     1       8.114   3.367  15.238  0.00  0.00    +0.000 HD
ENDROOT
BRANCH  12  14
ATOM     14  C   UNL     1       6.552   6.329  18.245  0.00  0.00    +0.000 C 
BRANCH  14  15
ATOM     15  C   UNL     1       6.086   5.462  19.422  0.00  0.00    +0.000 C 
BRANCH  15  16
ATOM     16  N   UNL     1       4.798   4.832  19.212  0.00  0.00    +0.000 N 
ATOM     17  C   UNL     1       3.683   5.452  18.721  0.00  0.00    +0.000 C 
ATOM     18  O   UNL     1       3.510   6.604  18.380  0.00  0.00    +0.000 OA
ATOM     19  C   UNL     1       2.644   4.431  18.651  0.00  0.00    +0.000 A 
ATOM     20  C   UNL     1       1.348   4.525  18.190  0.00  0.00    +0.000 A 
ATOM     21  C   UNL     1       0.578   3.363  18.232  0.00  0.00    +0.000 A 
ATOM     22  C   UNL     1       1.117   2.156  18.729  0.00  0.00    +0.000 A 
ATOM     23  C   UNL     1       2.437   2.088  19.187  0.00  0.00    +0.000 A 
ATOM     24  C   UNL     1       3.178   3.249  19.131  0.00  0.00    +0.000 A 
ATOM     25  C   UNL     1       4.563   3.515  19.491  0.00  0.00    +0.000 C 
ATOM     26  O   UNL     1       5.333   2.673  19.931  0.00  0.00    +0.000 OA
ENDBRANCH  15  16
ENDBRANCH  14  15
ENDBRANCH  12  14
TORSDOF 3
ENDMDL
MODEL 2
REMARK VINA RESULT:      -8.0      0.047      1.752
REMARK  Name = 
REMARK  3 active torsions:
REMARK  status: ('A' for Active; 'I' for Inactive)
REMARK    1  A    between atoms: N_12  and  C_13
REMARK    2  A    between atoms: C_13  and  C_14
REMARK    3  A    between atoms: C_14  and  N_15
REMARK                            x       y       z     vdW  Elec       q    Type
REMARK                         _______ _______ _______ _____ _____    ______ ____
ROOT
ATOM      1  O   UNL     1       8.250   4.051  17.706  0.00  0.00    +0.000 OA
ATOM      2  C   UNL     1       7.558   4.567  16.843  0.00  0.00    +0.000 C 
ATOM      3  N   UNL     1       7.516   4.135  15.543  0.00  0.00    +0.000 N 
ATOM      4  C   UNL     1       6.642   4.943  14.725  0.00  0.00    +0.000 C 
ATOM      5  C   UNL     1       7.412   5.709  13.651  0.00  0.00    +0.000 C 
ATOM      6  C   UNL     1       7.887   4.779  12.541  0.00  0.00    +0.000 C 
ATOM      7  C   UNL     1       6.735   3.954  11.967  0.00  0.00    +0.000 C 
ATOM      8  C   UNL     1       5.964   3.195  13.047  0.00  0.00    +0.000 C 
ATOM      9  C   UNL     1       5.483   4.131  14.150  0.00  0.00    +0.000 C 
ATOM     10  C   UNL     1       6.124   5.921  15.779  0.00  0.00    +0.000 C 
ATOM     11  O   UNL     1       5.309   6.806  15.549  0.00  0.00    +0.000 OA
ATOM     12  N   UNL     1       6.705   5.622  16.981  0.00  0.00    +0.000 N 
ATOM     13  H   UNL     1       8.085   3.357  15.236  0.00  0.00    +0.000 HD
ENDROOT
BRANCH  12  14
ATOM     14  C   UNL     1       6.537   6.334  18.235  0.00  0.00    +0.000 C 
BRANCH  14  15
ATOM     15  C   UNL     1       6.071   5.471  19.414  0.00  0.00    +0.000 C 
BRANCH  15  16
ATOM     16  N   UNL     1       4.816   4.783  19.177  0.00  0.00    +0.000 N 
ATOM     17  C   UNL     1       4.574   3.464  19.444  0.00  0.00    +0.000 C 
ATOM     18  O   UNL     1       5.303   2.607  19.899  0.00  0.00    +0.000 OA
ATOM     19  C   UNL     1       3.182   3.223  19.080  0.00  0.00    +0.000 A 
ATOM     20  C   UNL     1       2.432   2.072  19.191  0.00  0.00    +0.000 A 
ATOM     21  C   UNL     1       1.103   2.143  18.771  0.00  0.00    +0.000 A 
ATOM     22  C   UNL     1       0.571   3.345  18.256  0.00  0.00    +0.000 A 
ATOM     23  C   UNL     1       1.355   4.500  18.159  0.00  0.00    +0.000 A 
ATOM     24  C   UNL     1       2.662   4.405  18.586  0.00  0.00    +0.000 A 
ATOM     25  C   UNL     1       3.720   5.403  18.650  0.00  0.00    +0.000 C 
ATOM     26  O   UNL     1       3.586   6.569  18.307  0.00  0.00    +0.000 OA
ENDBRANCH  15  16
ENDBRANCH  14  15
ENDBRANCH  12  14
TORSDOF 3
ENDMDL
MODEL 3
REMARK VINA RESULT:      -7.8      0.849      1.926
REMARK  Name = 
REMARK  3 active torsions:
REMARK  status: ('A' for Active; 'I' for Inactive)
REMARK    1  A    between atoms: N_12  and  C_13
REMARK    2  A    between atoms: C_13  and  C_14
REMARK    3  A    between atoms: C_14  and  N_15
REMARK                            x       y       z     vdW  Elec       q    Type
REMARK                         _______ _______ _______ _____ _____    ______ ____
ROOT
ATOM      1  O   UNL     1       4.507   7.361  16.271  0.00  0.00    +0.000 OA
ATOM      2  C   UNL     1       5.356   6.513  16.050  0.00  0.00    +0.000 C 
ATOM      3  N   UNL     1       5.565   5.948  14.819  0.00  0.00    +0.000 N 
ATOM      4  C   UNL     1       6.607   4.949  14.843  0.00  0.00    +0.000 C 
ATOM      5  C   UNL     1       6.064   3.551  14.553  0.00  0.00    +0.000 C 
ATOM      6  C   UNL     1       5.700   3.393  13.082  0.00  0.00    +0.000 C 
ATOM      7  C   UNL     1       6.865   3.776  12.169  0.00  0.00    +0.000 C 
ATOM      8  C   UNL     1       7.408   5.173  12.469  0.00  0.00    +0.000 C 
ATOM      9  C   UNL     1       7.780   5.322  13.940  0.00  0.00    +0.000 C 
ATOM     10  C   UNL     1       7.026   5.040  16.310  0.00  0.00    +0.000 C 
ATOM     11  O   UNL     1       7.925   4.375  16.808  0.00  0.00    +0.000 OA
ATOM     12  N   UNL     1       6.250   5.979  16.932  0.00  0.00    +0.000 N 
ATOM     13  H   UNL     1       4.996   6.211  14.024  0.00  0.00    +0.000 HD
ENDROOT
BRANCH  12  14
ATOM     14  C   UNL     1       6.274   6.344  18.338  0.00  0.00    +0.000 C 
BRANCH  14  15
ATOM     15  C   UNL     1       6.114   5.172  19.315  0.00  0.00    +0.000 C 
BRANCH  15  16
ATOM     16  N   UNL     1       4.788   4.585  19.315  0.00  0.00    +0.000 N 
ATOM     17  C   UNL     1       3.613   5.283  19.269  0.00  0.00    +0.000 C 
ATOM     18  O   UNL     1       3.410   6.479  19.235  0.00  0.00    +0.000 OA
ATOM     19  C   UNL     1       2.547   4.288  19.255  0.00  0.00    +0.000 A 
ATOM     20  C   UNL     1       1.182   4.463  19.173  0.00  0.00    +0.000 A 
ATOM     21  C   UNL     1       0.398   3.310  19.164  0.00  0.00    +0.000 A 
ATOM     22  C   UNL     1       0.992   2.031  19.240  0.00  0.00    +0.000 A 
ATOM     23  C   UNL     1       2.381   1.882  19.318  0.00  0.00    +0.000 A 
ATOM     24  C   UNL     1       3.133   3.038  19.320  0.00  0.00    +0.000 A 
ATOM     25  C   UNL     1       4.575   3.237  19.359  0.00  0.00    +0.000 C 
ATOM     26  O   UNL     1       5.394   2.330  19.399  0.00  0.00    +0.000 OA
ENDBRANCH  15  16
ENDBRANCH  14  15
ENDBRANCH  12  14
TORSDOF 3
ENDMDL
MODEL 4
REMARK VINA RESULT:      -7.6      0.980      2.609
REMARK  Name = 
REMARK  3 active torsions:
REMARK  status: ('A' for Active; 'I' for Inactive)
REMARK    1  A    between atoms: N_12  and  C_13
REMARK    2  A    between atoms: C_13  and  C_14
REMARK    3  A    between atoms: C_14  and  N_15
REMARK                            x       y       z     vdW  Elec       q    Type
REMARK                         _______ _______ _______ _____ _____    ______ ____
ROOT
ATOM      1  O   UNL     1       4.803   7.450  15.913  0.00  0.00    +0.000 OA
ATOM      2  C   UNL     1       5.571   6.527  15.694  0.00  0.00    +0.000 C 
ATOM      3  N   UNL     1       5.710   5.927  14.471  0.00  0.00    +0.000 N 
ATOM      4  C   UNL     1       6.661   4.840  14.497  0.00  0.00    +0.000 C 
ATOM      5  C   UNL     1       5.993   3.490  14.240  0.00  0.00    +0.000 C 
ATOM      6  C   UNL     1       5.592   3.341  12.777  0.00  0.00    +0.000 C 
ATOM      7  C   UNL     1       6.770   3.605  11.841  0.00  0.00    +0.000 C 
ATOM      8  C   UNL     1       7.439   4.954  12.107  0.00  0.00    +0.000 C 
ATOM      9  C   UNL     1       7.847   5.094  13.570  0.00  0.00    +0.000 C 
ATOM     10  C   UNL     1       7.110   4.918  15.956  0.00  0.00    +0.000 C 
ATOM     11  O   UNL     1       7.956   4.185  16.452  0.00  0.00    +0.000 OA
ATOM     12  N   UNL     1       6.429   5.932  16.573  0.00  0.00    +0.000 N 
ATOM     13  H   UNL     1       5.153   6.226  13.680  0.00  0.00    +0.000 HD
ENDROOT
BRANCH  12  14
ATOM     14  C   UNL     1       6.508   6.316  17.971  0.00  0.00    +0.000 C 
BRANCH  14  15
ATOM     15  C   UNL     1       5.159   6.602  18.643  0.00  0.00    +0.000 C 
BRANCH  15  16
ATOM     16  N   UNL     1       4.268   5.459  18.678  0.00  0.00    +0.000 N 
ATOM     17  C   UNL     1       4.624   4.188  19.037  0.00  0.00    +0.000 C 
ATOM     18  O   UNL     1       5.699   3.739  19.374  0.00  0.00    +0.000 OA
ATOM     19  C   UNL     1       3.408   3.386  18.957  0.00  0.00    +0.000 A 
ATOM     20  C   UNL     1       3.213   2.054  19.254  0.00  0.00    +0.000 A 
ATOM     21  C   UNL     1       1.920   1.556  19.096  0.00  0.00    +0.000 A 
ATOM     22  C   UNL     1       0.873   2.391  18.649  0.00  0.00    +0.000 A 
ATOM     23  C   UNL     1       1.098   3.742  18.359  0.00  0.00    +0.000 A 
ATOM     24  C   UNL     1       2.383   4.210  18.528  0.00  0.00    +0.000 A 
ATOM     25  C   UNL     1       2.944   5.541  18.350  0.00  0.00    +0.000 C 
ATOM     26  O   UNL     1       2.299   6.518  17.995  0.00  0.00    +0.000 OA
ENDBRANCH  15  16
ENDBRANCH  14  15
ENDBRANCH  12  14
TORSDOF 3
ENDMDL
MODEL 5
REMARK VINA RESULT:      -7.5      5.906      7.881
REMARK  Name = 
REMARK  3 active torsions:
REMARK  status: ('A' for Active; 'I' for Inactive)
REMARK    1  A    between atoms: N_12  and  C_13
REMARK    2  A    between atoms: C_13  and  C_14
REMARK    3  A    between atoms: C_14  and  N_15
REMARK                            x       y       z     vdW  Elec       q    Type
REMARK                         _______ _______ _______ _____ _____    ______ ____
ROOT
ATOM      1  O   UNL     1       2.440   8.579  18.087  0.00  0.00    +0.000 OA
ATOM      2  C   UNL     1       2.457   7.500  18.659  0.00  0.00    +0.000 C 
ATOM      3  N   UNL     1       2.795   6.321  18.049  0.00  0.00    +0.000 N 
ATOM      4  C   UNL     1       2.699   5.193  18.945  0.00  0.00    +0.000 C 
ATOM      5  C   UNL     1       1.600   4.220  18.522  0.00  0.00    +0.000 C 
ATOM      6  C   UNL     1       2.005   3.430  17.283  0.00  0.00    +0.000 C 
ATOM      7  C   UNL     1       3.360   2.747  17.469  0.00  0.00    +0.000 C 
ATOM      8  C   UNL     1       4.454   3.724  17.899  0.00  0.00    +0.000 C 
ATOM      9  C   UNL     1       4.047   4.504  19.144  0.00  0.00    +0.000 C 
ATOM     10  C   UNL     1       2.282   5.909  20.228  0.00  0.00    +0.000 C 
ATOM     11  O   UNL     1       2.100   5.345  21.299  0.00  0.00    +0.000 OA
ATOM     12  N   UNL     1       2.173   7.248  19.969  0.00  0.00    +0.000 N 
ATOM     13  H   UNL     1       3.039   6.296  17.067  0.00  0.00    +0.000 HD
ENDROOT
BRANCH  12  14
ATOM     14  C   UNL     1       1.746   8.286  20.891  0.00  0.00    +0.000 C 
BRANCH  14  15
ATOM     15  C   UNL     1       0.234   8.350  21.143  0.00  0.00    +0.000 C 
BRANCH  15  16
ATOM     16  N   UNL     1      -0.285   9.699  21.260  0.00  0.00    +0.000 N 
ATOM     17  C   UNL     1      -0.762  10.456  20.226  0.00  0.00    +0.000 C 
ATOM     18  O   UNL     1      -0.847  10.206  19.042  0.00  0.00    +0.000 OA
ATOM     19  C   UNL     1      -1.202  11.717  20.813  0.00  0.00    +0.000 A 
ATOM     20  C   UNL     1      -1.796  12.806  20.212  0.00  0.00    +0.000 A 
ATOM     21  C   UNL     1      -2.127  13.880  21.039  0.00  0.00    +0.000 A 
ATOM     22  C   UNL     1      -1.855  13.836  22.424  0.00  0.00    +0.000 A 
ATOM     23  C   UNL     1      -1.255  12.715  23.009  0.00  0.00    +0.000 A 
ATOM     24  C   UNL     1      -0.943  11.666  22.170  0.00  0.00    +0.000 A 
ATOM     25  C   UNL     1      -0.351  10.366  22.450  0.00  0.00    +0.000 C 
ATOM     26  O   UNL     1      -0.020   9.986  23.564  0.00  0.00    +0.000 OA
ENDBRANCH  15  16
ENDBRANCH  14  15
ENDBRANCH  12  14
TORSDOF 3
ENDMDL
MODEL 6
REMARK VINA RESULT:      -7.5      5.356      6.997
REMARK  Name = 
REMARK  3 active torsions:
REMARK  status: ('A' for Active; 'I' for Inactive)
REMARK    1  A    between atoms: N_12  and  C_13
REMARK    2  A    between atoms: C_13  and  C_14
REMARK    3  A    between atoms: C_14  and  N_15
REMARK                            x       y       z     vdW  Elec       q    Type
REMARK                         _______ _______ _______ _____ _____    ______ ____
ROOT
ATOM      1  O   UNL     1       2.181   4.345  21.568  0.00  0.00    +0.000 OA
ATOM      2  C   UNL     1       2.563   4.942  20.574  0.00  0.00    +0.000 C 
ATOM      3  N   UNL     1       3.507   4.453  19.709  0.00  0.00    +0.000 N 
ATOM      4  C   UNL     1       3.799   5.376  18.638  0.00  0.00    +0.000 C 
ATOM      5  C   UNL     1       5.232   5.900  18.711  0.00  0.00    +0.000 C 
ATOM      6  C   UNL     1       6.235   4.827  18.301  0.00  0.00    +0.000 C 
ATOM      7  C   UNL     1       5.893   4.229  16.937  0.00  0.00    +0.000 C 
ATOM      8  C   UNL     1       4.456   3.713  16.868  0.00  0.00    +0.000 C 
ATOM      9  C   UNL     1       3.456   4.793  17.269  0.00  0.00    +0.000 C 
ATOM     10  C   UNL     1       2.826   6.502  18.986  0.00  0.00    +0.000 C 
ATOM     11  O   UNL     1       2.694   7.522  18.323  0.00  0.00    +0.000 OA
ATOM     12  N   UNL     1       2.145   6.159  20.122  0.00  0.00    +0.000 N 
ATOM     13  H   UNL     1       3.946   3.556  19.873  0.00  0.00    +0.000 HD
ENDROOT
BRANCH  12  14
ATOM     14  C   UNL     1       1.166   6.963  20.832  0.00  0.00    +0.000 C 
BRANCH  14  15
ATOM     15  C   UNL     1       1.703   8.279  21.410  0.00  0.00    +0.000 C 
BRANCH  15  16
ATOM     16  N   UNL     1       0.728   9.352  21.429  0.00  0.00    +0.000 N 
ATOM     17  C   UNL     1       0.216   9.977  20.325  0.00  0.00    +0.000 C 
ATOM     18  O   UNL     1       0.448   9.806  19.147  0.00  0.00    +0.000 OA
ATOM     19  C   UNL     1      -0.744  10.958  20.820  0.00  0.00    +0.000 A 
ATOM     20  C   UNL     1      -1.561  11.818  20.119  0.00  0.00    +0.000 A 
ATOM     21  C   UNL     1      -2.400  12.643  20.869  0.00  0.00    +0.000 A 
ATOM     22  C   UNL     1      -2.394  12.588  22.280  0.00  0.00    +0.000 A 
ATOM     23  C   UNL     1      -1.557  11.701  22.966  0.00  0.00    +0.000 A 
ATOM     24  C   UNL     1      -0.743  10.894  22.201  0.00  0.00    +0.000 A 
ATOM     25  C   UNL     1       0.207   9.860  22.585  0.00  0.00    +0.000 C 
ATOM     26  O   UNL     1       0.437   9.532  23.741  0.00  0.00    +0.000 OA
ENDBRANCH  15  16
ENDBRANCH  14  15
ENDBRANCH  12  14
TORSDOF 3
ENDMDL
MODEL 7
REMARK VINA RESULT:      -7.5      5.384      7.130
REMARK  Name = 
REMARK  3 active torsions:
REMARK  status: ('A' for Active; 'I' for Inactive)
REMARK    1  A    between atoms: N_12  and  C_13
REMARK    2  A    between atoms: C_13  and  C_14
REMARK    3  A    between atoms: C_14  and  N_15
REMARK                            x       y       z     vdW  Elec       q    Type
REMARK                         _______ _______ _______ _____ _____    ______ ____
ROOT
ATOM      1  O   UNL     1       2.038   4.270  21.553  0.00  0.00    +0.000 OA
ATOM      2  C   UNL     1       2.474   4.891  20.597  0.00  0.00    +0.000 C 
ATOM      3  N   UNL     1       3.421   4.399  19.738  0.00  0.00    +0.000 N 
ATOM      4  C   UNL     1       3.784   5.352  18.716  0.00  0.00    +0.000 C 
ATOM      5  C   UNL     1       5.235   5.810  18.852  0.00  0.00    +0.000 C 
ATOM      6  C   UNL     1       6.204   4.712  18.424  0.00  0.00    +0.000 C 
ATOM      7  C   UNL     1       5.877   4.187  17.026  0.00  0.00    +0.000 C 
ATOM      8  C   UNL     1       4.422   3.738  16.895  0.00  0.00    +0.000 C 
ATOM      9  C   UNL     1       3.457   4.842  17.315  0.00  0.00    +0.000 C 
ATOM     10  C   UNL     1       2.849   6.504  19.086  0.00  0.00    +0.000 C 
ATOM     11  O   UNL     1       2.780   7.556  18.464  0.00  0.00    +0.000 OA
ATOM     12  N   UNL     1       2.121   6.144  20.186  0.00  0.00    +0.000 N 
ATOM     13  H   UNL     1       3.817   3.477  19.875  0.00  0.00    +0.000 HD
ENDROOT
BRANCH  12  14
ATOM     14  C   UNL     1       1.157   6.959  20.903  0.00  0.00    +0.000 C 
BRANCH  14  15
ATOM     15  C   UNL     1       1.695   8.301  21.415  0.00  0.00    +0.000 C 
BRANCH  15  16
ATOM     16  N   UNL     1       0.693   9.347  21.482  0.00  0.00    +0.000 N 
ATOM     17  C   UNL     1       0.142   9.844  22.631  0.00  0.00    +0.000 C 
ATOM     18  O   UNL     1       0.335   9.542  23.790  0.00  0.00    +0.000 OA
ATOM     19  C   UNL     1      -0.784  10.893  22.219  0.00  0.00    +0.000 A 
ATOM     20  C   UNL     1      -1.562  11.731  22.990  0.00  0.00    +0.000 A 
ATOM     21  C   UNL     1      -2.350  12.661  22.312  0.00  0.00    +0.000 A 
ATOM     22  C   UNL     1      -2.342  12.723  20.901  0.00  0.00    +0.000 A 
ATOM     23  C   UNL     1      -1.539  11.863  20.143  0.00  0.00    +0.000 A 
ATOM     24  C   UNL     1      -0.766  10.957  20.838  0.00  0.00    +0.000 A 
ATOM     25  C   UNL     1       0.185   9.959  20.371  0.00  0.00    +0.000 C 
ATOM     26  O   UNL     1       0.458   9.766  19.195  0.00  0.00    +0.000 OA
ENDBRANCH  15  16
ENDBRANCH  14  15
ENDBRANCH  12  14
TORSDOF 3
ENDMDL
MODEL 8
REMARK VINA RESULT:      -7.5      5.927      8.006
REMARK  Name = 
REMARK  3 active torsions:
REMARK  status: ('A' for Active; 'I' for Inactive)
REMARK    1  A    between atoms: N_12  and  C_13
REMARK    2  A    between atoms: C_13  and  C_14
REMARK    3  A    between atoms: C_14  and  N_15
REMARK                            x       y       z     vdW  Elec       q    Type
REMARK                         _______ _______ _______ _____ _____    ______ ____
ROOT
ATOM      1  O   UNL     1       2.159   8.702  18.401  0.00  0.00    +0.000 OA
ATOM      2  C   UNL     1       2.292   7.590  18.887  0.00  0.00    +0.000 C 
ATOM      3  N   UNL     1       2.737   6.502  18.184  0.00  0.00    +0.000 N 
ATOM      4  C   UNL     1       2.768   5.304  18.990  0.00  0.00    +0.000 C 
ATOM      5  C   UNL     1       1.764   4.261  18.500  0.00  0.00    +0.000 C 
ATOM      6  C   UNL     1       2.229   3.613  17.200  0.00  0.00    +0.000 C 
ATOM      7  C   UNL     1       3.647   3.057  17.324  0.00  0.00    +0.000 C 
ATOM      8  C   UNL     1       4.645   4.103  17.821  0.00  0.00    +0.000 C 
ATOM      9  C   UNL     1       4.180   4.741  19.126  0.00  0.00    +0.000 C 
ATOM     10  C   UNL     1       2.299   5.874  20.328  0.00  0.00    +0.000 C 
ATOM     11  O   UNL     1       2.190   5.213  21.353  0.00  0.00    +0.000 OA
ATOM     12  N   UNL     1       2.053   7.211  20.175  0.00  0.00    +0.000 N 
ATOM     13  H   UNL     1       2.968   6.577  17.201  0.00  0.00    +0.000 HD
ENDROOT
BRANCH  12  14
ATOM     14  C   UNL     1       1.539   8.127  21.178  0.00  0.00    +0.000 C 
BRANCH  14  15
ATOM     15  C   UNL     1       0.023   8.355  21.131  0.00  0.00    +0.000 C 
BRANCH  15  16
ATOM     16  N   UNL     1      -0.364   9.749  21.239  0.00  0.00    +0.000 N 
ATOM     17  C   UNL     1      -0.397  10.474  22.398  0.00  0.00    +0.000 C 
ATOM     18  O   UNL     1      -0.144  10.146  23.538  0.00  0.00    +0.000 OA
ATOM     19  C   UNL     1      -0.809  11.823  22.024  0.00  0.00    +0.000 A 
ATOM     20  C   UNL     1      -0.958  12.945  22.809  0.00  0.00    +0.000 A 
ATOM     21  C   UNL     1      -1.354  14.118  22.165  0.00  0.00    +0.000 A 
ATOM     22  C   UNL     1      -1.590  14.133  20.773  0.00  0.00    +0.000 A 
ATOM     23  C   UNL     1      -1.426  12.979  19.998  0.00  0.00    +0.000 A 
ATOM     24  C   UNL     1      -1.029  11.836  20.659  0.00  0.00    +0.000 A 
ATOM     25  C   UNL     1      -0.742  10.498  20.161  0.00  0.00    +0.000 C 
ATOM     26  O   UNL     1      -0.817  10.171  18.985  0.00  0.00    +0.000 OA
ENDBRANCH  15  16
ENDBRANCH  14  15
ENDBRANCH  12  14
TORSDOF 3
ENDMDL
MODEL 9
REMARK VINA RESULT:      -7.5      1.626      6.310
REMARK  Name = 
REMARK  3 active torsions:
REMARK  status: ('A' for Active; 'I' for Inactive)
REMARK    1  A    between atoms: N_12  and  C_13
REMARK    2  A    between atoms: C_13  and  C_14
REMARK    3  A    between atoms: C_14  and  N_15
REMARK                            x       y       z     vdW  Elec       q    Type
REMARK                         _______ _______ _______ _____ _____    ______ ____
ROOT
ATOM      1  O   UNL     1       3.959   7.069  16.765  0.00  0.00    +0.000 OA
ATOM      2  C   UNL     1       4.002   6.143  17.560  0.00  0.00    +0.000 C 
ATOM      3  N   UNL     1       2.889   5.543  18.088  0.00  0.00    +0.000 N 
ATOM      4  C   UNL     1       3.224   4.498  19.027  0.00  0.00    +0.000 C 
ATOM      5  C   UNL     1       2.783   4.846  20.448  0.00  0.00    +0.000 C 
ATOM      6  C   UNL     1       1.269   4.742  20.598  0.00  0.00    +0.000 C 
ATOM      7  C   UNL     1       0.749   3.383  20.133  0.00  0.00    +0.000 C 
ATOM      8  C   UNL     1       1.199   3.038  18.714  0.00  0.00    +0.000 C 
ATOM      9  C   UNL     1       2.715   3.133  18.571  0.00  0.00    +0.000 C 
ATOM     10  C   UNL     1       4.749   4.544  18.940  0.00  0.00    +0.000 C 
ATOM     11  O   UNL     1       5.493   3.797  19.563  0.00  0.00    +0.000 OA
ATOM     12  N   UNL     1       5.111   5.525  18.058  0.00  0.00    +0.000 N 
ATOM     13  H   UNL     1       1.961   5.862  17.842  0.00  0.00    +0.000 HD
ENDROOT
BRANCH  12  14
ATOM     14  C   UNL     1       6.459   5.944  17.720  0.00  0.00    +0.000 C 
BRANCH  14  15
ATOM     15  C   UNL     1       7.328   4.866  17.059  0.00  0.00    +0.000 C 
BRANCH  15  16
ATOM     16  N   UNL     1       6.971   4.588  15.681  0.00  0.00    +0.000 N 
ATOM     17  C   UNL     1       7.608   5.093  14.581  0.00  0.00    +0.000 C 
ATOM     18  O   UNL     1       8.551   5.852  14.498  0.00  0.00    +0.000 OA
ATOM     19  C   UNL     1       6.933   4.522  13.421  0.00  0.00    +0.000 A 
ATOM     20  C   UNL     1       7.210   4.676  12.079  0.00  0.00    +0.000 A 
ATOM     21  C   UNL     1       6.393   3.986  11.184  0.00  0.00    +0.000 A 
ATOM     22  C   UNL     1       5.334   3.176  11.649  0.00  0.00    +0.000 A 
ATOM     23  C   UNL     1       5.078   3.034  13.017  0.00  0.00    +0.000 A 
ATOM     24  C   UNL     1       5.903   3.722  13.880  0.00  0.00    +0.000 A 
ATOM     25  C   UNL     1       5.933   3.771  15.335  0.00  0.00    +0.000 C 
ATOM     26  O   UNL     1       5.165   3.154  16.060  0.00  0.00    +0.000 OA
ENDBRANCH  15  16
ENDBRANCH  14  15
ENDBRANCH  12  14
TORSDOF 3
ENDMDL
