MODEL 1
REMARK VINA RESULT:      -6.5      0.000      0.000
REMARK  Name = 
REMARK  10 active torsions:
REMARK  status: ('A' for Active; 'I' for Inactive)
REMARK    1  A    between atoms: C_1  and  O_2
REMARK    2  A    between atoms: O_2  and  C_3
REMARK    3  A    between atoms: C_9  and  C_10
REMARK    4  A    between atoms: C_13  and  S_14
REMARK    5  A    between atoms: S_14  and  C_15
REMARK    6  A    between atoms: C_15  and  C_16
REMARK    7  A    between atoms: N_18  and  C_19
REMARK    8  A    between atoms: N_18  and  C_20
REMARK    9  A    between atoms: C_20  and  C_21
REMARK   10  A    between atoms: C_21  and  C_22
REMARK                            x       y       z     vdW  Elec       q    Type
REMARK                         _______ _______ _______ _____ _____    ______ ____
ROOT
ATOM      1  C   UNL     1       2.651   6.968  18.484  0.00  0.00    +0.000 A 
ATOM      2  N   UNL     1       2.198   8.069  17.857  0.00  0.00    +0.000 NA
ATOM      3  N   UNL     1       1.650   8.753  18.867  0.00  0.00    +0.000 N 
ATOM      4  C   UNL     1       1.719   8.057  20.028  0.00  0.00    +0.000 A 
ATOM      5  N   UNL     1       2.358   6.933  19.835  0.00  0.00    +0.000 NA
ATOM      6  H   UNL     1       1.255   9.667  18.692  0.00  0.00    +0.000 HD
ENDROOT
BRANCH   1  13
ATOM      7  C   UNL     1       2.772   4.574  17.732  0.00  0.00    +0.000 A 
ATOM      8  C   UNL     1       3.492   3.545  17.109  0.00  0.00    +0.000 A 
ATOM      9  C   UNL     1       4.757   3.793  16.571  0.00  0.00    +0.000 A 
ATOM     10  C   UNL     1       5.304   5.071  16.642  0.00  0.00    +0.000 A 
ATOM     11 CL   UNL     1       6.851   5.373  15.956  0.00  0.00    +0.000 Cl
ATOM     12  C   UNL     1       4.602   6.104  17.261  0.00  0.00    +0.000 A 
ATOM     13  C   UNL     1       3.332   5.865  17.817  0.00  0.00    +0.000 A 
BRANCH   7  15
ATOM     14  C   UNL     1       1.280   3.424  19.182  0.00  0.00    +0.000 C 
ATOM     15  O   UNL     1       1.485   4.406  18.175  0.00  0.00    +0.000 OA
ENDBRANCH   7  15
ENDBRANCH   1  13
BRANCH   4  16
ATOM     16  S   UNL     1       1.084   8.653  21.515  0.00  0.00    +0.000 S 
BRANCH  16  17
ATOM     17  C   UNL     1       0.512  10.310  21.040  0.00  0.00    +0.000 C 
BRANCH  17  18
ATOM     18  C   UNL     1      -0.207  11.001  22.197  0.00  0.00    +0.000 C 
ATOM     19  O   UNL     1      -0.245  10.446  23.300  0.00  0.00    +0.000 OA
ATOM     20  N   UNL     1      -0.847  12.220  22.006  0.00  0.00    +0.000 N 
ATOM     21  C   UNL     1      -0.951  12.948  20.745  0.00  0.00    +0.000 C 
BRANCH  20  22
ATOM     22  C   UNL     1      -1.530  12.829  23.165  0.00  0.00    +0.000 C 
BRANCH  22  23
ATOM     23  C   UNL     1      -3.007  13.176  22.946  0.00  0.00    +0.000 C 
BRANCH  23  24
ATOM     24  C   UNL     1      -3.881  12.549  24.021  0.00  0.00    +0.000 C 
ATOM     25  N   UNL     1      -4.605  12.029  24.912  0.00  0.00    +0.000 NA
ENDBRANCH  23  24
ENDBRANCH  22  23
ENDBRANCH  20  22
ENDBRANCH  17  18
ENDBRANCH  16  17
ENDBRANCH   4  16
TORSDOF 8
ENDMDL
MODEL 2
REMARK VINA RESULT:      -6.4      3.019      3.305
REMARK  Name = 
REMARK  10 active torsions:
REMARK  status: ('A' for Active; 'I' for Inactive)
REMARK    1  A    between atoms: C_1  and  O_2
REMARK    2  A    between atoms: O_2  and  C_3
REMARK    3  A    between atoms: C_9  and  C_10
REMARK    4  A    between atoms: C_13  and  S_14
REMARK    5  A    between atoms: S_14  and  C_15
REMARK    6  A    between atoms: C_15  and  C_16
REMARK    7  A    between atoms: N_18  and  C_19
REMARK    8  A    between atoms: N_18  and  C_20
REMARK    9  A    between atoms: C_20  and  C_21
REMARK   10  A    between atoms: C_21  and  C_22
REMARK                            x       y       z     vdW  Elec       q    Type
REMARK                         _______ _______ _______ _____ _____    ______ ____
ROOT
ATOM      1  C   UNL     1       2.656   7.019  18.511  0.00  0.00    +0.000 A 
ATOM      2  N   UNL     1       2.262   7.009  19.798  0.00  0.00    +0.000 NA
ATOM      3  N   UNL     1       1.671   8.203  19.912  0.00  0.00    +0.000 N 
ATOM      4  C   UNL     1       1.769   8.913  18.762  0.00  0.00    +0.000 A 
ATOM      5  N   UNL     1       2.367   8.197  17.846  0.00  0.00    +0.000 NA
ATOM      6  H   UNL     1       1.234   8.460  20.787  0.00  0.00    +0.000 HD
ENDROOT
BRANCH   1  13
ATOM      7  C   UNL     1       2.848   4.631  17.753  0.00  0.00    +0.000 A 
ATOM      8  C   UNL     1       3.609   3.619  17.154  0.00  0.00    +0.000 A 
ATOM      9  C   UNL     1       4.888   3.891  16.664  0.00  0.00    +0.000 A 
ATOM     10  C   UNL     1       5.410   5.178  16.762  0.00  0.00    +0.000 A 
ATOM     11 CL   UNL     1       6.976   5.511  16.136  0.00  0.00    +0.000 Cl
ATOM     12  C   UNL     1       4.667   6.195  17.358  0.00  0.00    +0.000 A 
ATOM     13  C   UNL     1       3.381   5.931  17.866  0.00  0.00    +0.000 A 
BRANCH   7  15
ATOM     14  C   UNL     1       1.242   3.187  18.747  0.00  0.00    +0.000 C 
ATOM     15  O   UNL     1       1.547   4.439  18.146  0.00  0.00    +0.000 OA
ENDBRANCH   7  15
ENDBRANCH   1  13
BRANCH   4  16
ATOM     16  S   UNL     1       1.125  10.503  18.586  0.00  0.00    +0.000 S 
BRANCH  16  17
ATOM     17  C   UNL     1      -0.505  10.334  19.367  0.00  0.00    +0.000 C 
BRANCH  17  18
ATOM     18  C   UNL     1      -1.627  10.429  18.334  0.00  0.00    +0.000 C 
ATOM     19  O   UNL     1      -1.563   9.741  17.311  0.00  0.00    +0.000 OA
ATOM     20  N   UNL     1      -2.688  11.308  18.520  0.00  0.00    +0.000 N 
ATOM     21  C   UNL     1      -2.851  12.235  19.637  0.00  0.00    +0.000 C 
BRANCH  20  22
ATOM     22  C   UNL     1      -3.733  11.357  17.479  0.00  0.00    +0.000 C 
BRANCH  22  23
ATOM     23  C   UNL     1      -5.053  12.009  17.907  0.00  0.00    +0.000 C 
BRANCH  23  24
ATOM     24  C   UNL     1      -6.037  10.968  18.416  0.00  0.00    +0.000 C 
ATOM     25  N   UNL     1      -6.853  10.104  18.838  0.00  0.00    +0.000 NA
ENDBRANCH  23  24
ENDBRANCH  22  23
ENDBRANCH  20  22
ENDBRANCH  17  18
ENDBRANCH  16  17
ENDBRANCH   4  16
TORSDOF 8
ENDMDL
MODEL 3
REMARK VINA RESULT:      -6.4      7.678      9.069
REMARK  Name = 
REMARK  10 active torsions:
REMARK  status: ('A' for Active; 'I' for Inactive)
REMARK    1  A    between atoms: C_1  and  O_2
REMARK    2  A    between atoms: O_2  and  C_3
REMARK    3  A    between atoms: C_9  and  C_10
REMARK    4  A    between atoms: C_13  and  S_14
REMARK    5  A    between atoms: S_14  and  C_15
REMARK    6  A    between atoms: C_15  and  C_16
REMARK    7  A    between atoms: N_18  and  C_19
REMARK    8  A    between atoms: N_18  and  C_20
REMARK    9  A    between atoms: C_20  and  C_21
REMARK   10  A    between atoms: C_21  and  C_22
REMARK                            x       y       z     vdW  Elec       q    Type
REMARK                         _______ _______ _______ _____ _____    ______ ____
ROOT
ATOM      1  C   UNL     1       7.054   6.674  17.876  0.00  0.00    +0.000 A 
ATOM      2  N   UNL     1       7.987   6.475  18.826  0.00  0.00    +0.000 NA
ATOM      3  N   UNL     1       8.578   7.674  18.884  0.00  0.00    +0.000 N 
ATOM      4  C   UNL     1       8.060   8.523  17.964  0.00  0.00    +0.000 A 
ATOM      5  N   UNL     1       7.085   7.940  17.318  0.00  0.00    +0.000 NA
ATOM      6  H   UNL     1       9.311   7.834  19.561  0.00  0.00    +0.000 HD
ENDROOT
BRANCH   1  13
ATOM      7  C   UNL     1       6.233   5.065  16.130  0.00  0.00    +0.000 A 
ATOM      8  C   UNL     1       5.290   4.111  15.724  0.00  0.00    +0.000 A 
ATOM      9  C   UNL     1       4.249   3.738  16.578  0.00  0.00    +0.000 A 
ATOM     10  C   UNL     1       4.153   4.307  17.845  0.00  0.00    +0.000 A 
ATOM     11 CL   UNL     1       2.882   3.824  18.899  0.00  0.00    +0.000 Cl
ATOM     12  C   UNL     1       5.081   5.257  18.263  0.00  0.00    +0.000 A 
ATOM     13  C   UNL     1       6.127   5.651  17.408  0.00  0.00    +0.000 A 
BRANCH   7  15
ATOM     14  C   UNL     1       7.303   4.979  14.009  0.00  0.00    +0.000 C 
ATOM     15  O   UNL     1       7.333   5.379  15.372  0.00  0.00    +0.000 OA
ENDBRANCH   7  15
ENDBRANCH   1  13
BRANCH   4  16
ATOM     16  S   UNL     1       8.618  10.142  17.767  0.00  0.00    +0.000 S 
BRANCH  16  17
ATOM     17  C   UNL     1       9.494  10.428  19.333  0.00  0.00    +0.000 C 
BRANCH  17  18
ATOM     18  C   UNL     1      10.539  11.533  19.189  0.00  0.00    +0.000 C 
ATOM     19  O   UNL     1      11.310  11.511  18.224  0.00  0.00    +0.000 OA
ATOM     20  N   UNL     1      10.651  12.531  20.150  0.00  0.00    +0.000 N 
ATOM     21  C   UNL     1       9.864  12.637  21.376  0.00  0.00    +0.000 C 
BRANCH  20  22
ATOM     22  C   UNL     1      11.688  13.563  19.954  0.00  0.00    +0.000 C 
BRANCH  22  23
ATOM     23  C   UNL     1      11.199  15.012  20.067  0.00  0.00    +0.000 C 
BRANCH  23  24
ATOM     24  C   UNL     1      10.605  15.492  18.752  0.00  0.00    +0.000 C 
ATOM     25  N   UNL     1      10.112  15.889  17.662  0.00  0.00    +0.000 NA
ENDBRANCH  23  24
ENDBRANCH  22  23
ENDBRANCH  20  22
ENDBRANCH  17  18
ENDBRANCH  16  17
ENDBRANCH   4  16
TORSDOF 8
ENDMDL
MODEL 4
REMARK VINA RESULT:      -6.4      3.114      4.171
REMARK  Name = 
REMARK  10 active torsions:
REMARK  status: ('A' for Active; 'I' for Inactive)
REMARK    1  A    between atoms: C_1  and  O_2
REMARK    2  A    between atoms: O_2  and  C_3
REMARK    3  A    between atoms: C_9  and  C_10
REMARK    4  A    between atoms: C_13  and  S_14
REMARK    5  A    between atoms: S_14  and  C_15
REMARK    6  A    between atoms: C_15  and  C_16
REMARK    7  A    between atoms: N_18  and  C_19
REMARK    8  A    between atoms: N_18  and  C_20
REMARK    9  A    between atoms: C_20  and  C_21
REMARK   10  A    between atoms: C_21  and  C_22
REMARK                            x       y       z     vdW  Elec       q    Type
REMARK                         _______ _______ _______ _____ _____    ______ ____
ROOT
ATOM      1  C   UNL     1       4.015   4.318  18.332  0.00  0.00    +0.000 A 
ATOM      2  N   UNL     1       3.503   3.186  18.850  0.00  0.00    +0.000 NA
ATOM      3  N   UNL     1       2.562   3.663  19.672  0.00  0.00    +0.000 N 
ATOM      4  C   UNL     1       2.563   5.018  19.688  0.00  0.00    +0.000 A 
ATOM      5  N   UNL     1       3.451   5.473  18.843  0.00  0.00    +0.000 NA
ATOM      6  H   UNL     1       1.973   3.018  20.180  0.00  0.00    +0.000 HD
ENDROOT
BRANCH   1  13
ATOM      7  C   UNL     1       6.438   4.632  17.748  0.00  0.00    +0.000 A 
ATOM      8  C   UNL     1       7.440   4.694  16.770  0.00  0.00    +0.000 A 
ATOM      9  C   UNL     1       7.129   4.482  15.425  0.00  0.00    +0.000 A 
ATOM     10  C   UNL     1       5.819   4.198  15.052  0.00  0.00    +0.000 A 
ATOM     11 CL   UNL     1       5.449   3.915  13.396  0.00  0.00    +0.000 Cl
ATOM     12  C   UNL     1       4.811   4.136  16.011  0.00  0.00    +0.000 A 
ATOM     13  C   UNL     1       5.109   4.359  17.369  0.00  0.00    +0.000 A 
BRANCH   7  15
ATOM     14  C   UNL     1       7.655   5.713  19.482  0.00  0.00    +0.000 C 
ATOM     15  O   UNL     1       6.714   4.722  19.089  0.00  0.00    +0.000 OA
ENDBRANCH   7  15
ENDBRANCH   1  13
BRANCH   4  16
ATOM     16  S   UNL     1       1.483   5.943  20.662  0.00  0.00    +0.000 S 
BRANCH  16  17
ATOM     17  C   UNL     1       2.080   7.634  20.378  0.00  0.00    +0.000 C 
BRANCH  17  18
ATOM     18  C   UNL     1       0.959   8.656  20.560  0.00  0.00    +0.000 C 
ATOM     19  O   UNL     1       0.339   8.685  21.629  0.00  0.00    +0.000 OA
ATOM     20  N   UNL     1       0.609   9.516  19.526  0.00  0.00    +0.000 N 
ATOM     21  C   UNL     1       1.198   9.538  18.190  0.00  0.00    +0.000 C 
BRANCH  20  22
ATOM     22  C   UNL     1      -0.490  10.472  19.767  0.00  0.00    +0.000 C 
BRANCH  22  23
ATOM     23  C   UNL     1      -0.164  11.937  19.450  0.00  0.00    +0.000 C 
BRANCH  23  24
ATOM     24  C   UNL     1       0.876  12.486  20.414  0.00  0.00    +0.000 C 
ATOM     25  N   UNL     1       1.738  12.941  21.213  0.00  0.00    +0.000 NA
ENDBRANCH  23  24
ENDBRANCH  22  23
ENDBRANCH  20  22
ENDBRANCH  17  18
ENDBRANCH  16  17
ENDBRANCH   4  16
TORSDOF 8
ENDMDL
MODEL 5
REMARK VINA RESULT:      -6.4      7.170      9.103
REMARK  Name = 
REMARK  10 active torsions:
REMARK  status: ('A' for Active; 'I' for Inactive)
REMARK    1  A    between atoms: C_1  and  O_2
REMARK    2  A    between atoms: O_2  and  C_3
REMARK    3  A    between atoms: C_9  and  C_10
REMARK    4  A    between atoms: C_13  and  S_14
REMARK    5  A    between atoms: S_14  and  C_15
REMARK    6  A    between atoms: C_15  and  C_16
REMARK    7  A    between atoms: N_18  and  C_19
REMARK    8  A    between atoms: N_18  and  C_20
REMARK    9  A    between atoms: C_20  and  C_21
REMARK   10  A    between atoms: C_21  and  C_22
REMARK                            x       y       z     vdW  Elec       q    Type
REMARK                         _______ _______ _______ _____ _____    ______ ____
ROOT
ATOM      1  C   UNL     1       7.293   6.733  17.734  0.00  0.00    +0.000 A 
ATOM      2  N   UNL     1       8.074   6.496  18.804  0.00  0.00    +0.000 NA
ATOM      3  N   UNL     1       8.624   7.697  19.012  0.00  0.00    +0.000 N 
ATOM      4  C   UNL     1       8.234   8.588  18.069  0.00  0.00    +0.000 A 
ATOM      5  N   UNL     1       7.380   8.027  17.253  0.00  0.00    +0.000 NA
ATOM      6  H   UNL     1       9.244   7.831  19.800  0.00  0.00    +0.000 HD
ENDROOT
BRANCH   1  13
ATOM      7  C   UNL     1       5.397   5.084  17.735  0.00  0.00    +0.000 A 
ATOM      8  C   UNL     1       4.664   4.096  17.064  0.00  0.00    +0.000 A 
ATOM      9  C   UNL     1       4.987   3.746  15.750  0.00  0.00    +0.000 A 
ATOM     10  C   UNL     1       6.036   4.388  15.099  0.00  0.00    +0.000 A 
ATOM     11 CL   UNL     1       6.412   3.967  13.474  0.00  0.00    +0.000 Cl
ATOM     12  C   UNL     1       6.776   5.370  15.753  0.00  0.00    +0.000 A 
ATOM     13  C   UNL     1       6.469   5.724  17.080  0.00  0.00    +0.000 A 
BRANCH   7  15
ATOM     14  C   UNL     1       3.675   5.846  19.186  0.00  0.00    +0.000 C 
ATOM     15  O   UNL     1       5.048   5.539  18.981  0.00  0.00    +0.000 OA
ENDBRANCH   7  15
ENDBRANCH   1  13
BRANCH   4  16
ATOM     16  S   UNL     1       8.780  10.223  18.041  0.00  0.00    +0.000 S 
BRANCH  16  17
ATOM     17  C   UNL     1       9.404  10.436  19.734  0.00  0.00    +0.000 C 
BRANCH  17  18
ATOM     18  C   UNL     1       9.741  11.898  20.020  0.00  0.00    +0.000 C 
ATOM     19  O   UNL     1       8.850  12.654  20.422  0.00  0.00    +0.000 OA
ATOM     20  N   UNL     1      11.023  12.386  19.793  0.00  0.00    +0.000 N 
ATOM     21  C   UNL     1      12.147  11.630  19.247  0.00  0.00    +0.000 C 
BRANCH  20  22
ATOM     22  C   UNL     1      11.278  13.811  20.082  0.00  0.00    +0.000 C 
BRANCH  22  23
ATOM     23  C   UNL     1      12.158  14.539  19.059  0.00  0.00    +0.000 C 
BRANCH  23  24
ATOM     24  C   UNL     1      12.254  16.023  19.379  0.00  0.00    +0.000 C 
ATOM     25  N   UNL     1      12.333  17.253  19.644  0.00  0.00    +0.000 NA
ENDBRANCH  23  24
ENDBRANCH  22  23
ENDBRANCH  20  22
ENDBRANCH  17  18
ENDBRANCH  16  17
ENDBRANCH   4  16
TORSDOF 8
ENDMDL
MODEL 6
REMARK VINA RESULT:      -6.3      3.926      9.127
REMARK  Name = 
REMARK  10 active torsions:
REMARK  status: ('A' for Active; 'I' for Inactive)
REMARK    1  A    between atoms: C_1  and  O_2
REMARK    2  A    between atoms: O_2  and  C_3
REMARK    3  A    between atoms: C_9  and  C_10
REMARK    4  A    between atoms: C_13  and  S_14
REMARK    5  A    between atoms: S_14  and  C_15
REMARK    6  A    between atoms: C_15  and  C_16
REMARK    7  A    between atoms: N_18  and  C_19
REMARK    8  A    between atoms: N_18  and  C_20
REMARK    9  A    between atoms: C_20  and  C_21
REMARK   10  A    between atoms: C_21  and  C_22
REMARK                            x       y       z     vdW  Elec       q    Type
REMARK                         _______ _______ _______ _____ _____    ______ ____
ROOT
ATOM      1  C   UNL     1       1.228   9.744  18.821  0.00  0.00    +0.000 A 
ATOM      2  N   UNL     1       1.875   9.629  17.646  0.00  0.00    +0.000 NA
ATOM      3  N   UNL     1       2.426   8.416  17.755  0.00  0.00    +0.000 N 
ATOM      4  C   UNL     1       2.170   7.865  18.966  0.00  0.00    +0.000 A 
ATOM      5  N   UNL     1       1.403   8.661  19.664  0.00  0.00    +0.000 NA
ATOM      6  H   UNL     1       2.953   8.038  16.979  0.00  0.00    +0.000 HD
ENDROOT
BRANCH   1  13
ATOM      7  C   UNL     1      -0.878  11.112  18.835  0.00  0.00    +0.000 A 
ATOM      8  C   UNL     1      -1.552  12.277  19.226  0.00  0.00    +0.000 A 
ATOM      9  C   UNL     1      -0.905  13.241  20.003  0.00  0.00    +0.000 A 
ATOM     10  C   UNL     1       0.414  13.041  20.401  0.00  0.00    +0.000 A 
ATOM     11 CL   UNL     1       1.196  14.221  21.377  0.00  0.00    +0.000 Cl
ATOM     12  C   UNL     1       1.098  11.890  20.018  0.00  0.00    +0.000 A 
ATOM     13  C   UNL     1       0.461  10.916  19.226  0.00  0.00    +0.000 A 
BRANCH   7  15
ATOM     14  C   UNL     1      -2.152  10.425  16.948  0.00  0.00    +0.000 C 
ATOM     15  O   UNL     1      -1.506  10.089  18.169  0.00  0.00    +0.000 OA
ENDBRANCH   7  15
ENDBRANCH   1  13
BRANCH   4  16
ATOM     16  S   UNL     1       2.756   6.312  19.431  0.00  0.00    +0.000 S 
BRANCH  16  17
ATOM     17  C   UNL     1       2.679   5.400  17.862  0.00  0.00    +0.000 C 
BRANCH  17  18
ATOM     18  C   UNL     1       3.957   4.597  17.625  0.00  0.00    +0.000 C 
ATOM     19  O   UNL     1       4.086   3.495  18.168  0.00  0.00    +0.000 OA
ATOM     20  N   UNL     1       4.983   5.114  16.842  0.00  0.00    +0.000 N 
ATOM     21  C   UNL     1       5.001   6.429  16.208  0.00  0.00    +0.000 C 
BRANCH  20  22
ATOM     22  C   UNL     1       6.194   4.289  16.661  0.00  0.00    +0.000 C 
BRANCH  22  23
ATOM     23  C   UNL     1       7.501   4.931  17.143  0.00  0.00    +0.000 C 
BRANCH  23  24
ATOM     24  C   UNL     1       7.455   5.204  18.639  0.00  0.00    +0.000 C 
ATOM     25  N   UNL     1       7.417   5.431  19.878  0.00  0.00    +0.000 NA
ENDBRANCH  23  24
ENDBRANCH  22  23
ENDBRANCH  20  22
ENDBRANCH  17  18
ENDBRANCH  16  17
ENDBRANCH   4  16
TORSDOF 8
ENDMDL
MODEL 7
REMARK VINA RESULT:      -6.3      6.895      8.447
REMARK  Name = 
REMARK  10 active torsions:
REMARK  status: ('A' for Active; 'I' for Inactive)
REMARK    1  A    between atoms: C_1  and  O_2
REMARK    2  A    between atoms: O_2  and  C_3
REMARK    3  A    between atoms: C_9  and  C_10
REMARK    4  A    between atoms: C_13  and  S_14
REMARK    5  A    between atoms: S_14  and  C_15
REMARK    6  A    between atoms: C_15  and  C_16
REMARK    7  A    between atoms: N_18  and  C_19
REMARK    8  A    between atoms: N_18  and  C_20
REMARK    9  A    between atoms: C_20  and  C_21
REMARK   10  A    between atoms: C_21  and  C_22
REMARK                            x       y       z     vdW  Elec       q    Type
REMARK                         _______ _______ _______ _____ _____    ______ ____
ROOT
ATOM      1  C   UNL     1       7.235   6.733  17.754  0.00  0.00    +0.000 A 
ATOM      2  N   UNL     1       8.058   6.502  18.794  0.00  0.00    +0.000 NA
ATOM      3  N   UNL     1       8.609   7.707  18.979  0.00  0.00    +0.000 N 
ATOM      4  C   UNL     1       8.179   8.593  18.049  0.00  0.00    +0.000 A 
ATOM      5  N   UNL     1       7.298   8.026  17.267  0.00  0.00    +0.000 NA
ATOM      6  H   UNL     1       9.257   7.845  19.743  0.00  0.00    +0.000 HD
ENDROOT
BRANCH   1  13
ATOM      7  C   UNL     1       5.304   5.128  17.805  0.00  0.00    +0.000 A 
ATOM      8  C   UNL     1       4.553   4.131  17.167  0.00  0.00    +0.000 A 
ATOM      9  C   UNL     1       4.874   3.724  15.870  0.00  0.00    +0.000 A 
ATOM     10  C   UNL     1       5.941   4.318  15.201  0.00  0.00    +0.000 A 
ATOM     11 CL   UNL     1       6.316   3.828  13.595  0.00  0.00    +0.000 Cl
ATOM     12  C   UNL     1       6.699   5.307  15.822  0.00  0.00    +0.000 A 
ATOM     13  C   UNL     1       6.393   5.718  17.133  0.00  0.00    +0.000 A 
BRANCH   7  15
ATOM     14  C   UNL     1       3.686   5.259  19.543  0.00  0.00    +0.000 C 
ATOM     15  O   UNL     1       4.958   5.637  19.031  0.00  0.00    +0.000 OA
ENDBRANCH   7  15
ENDBRANCH   1  13
BRANCH   4  16
ATOM     16  S   UNL     1       8.715  10.231  17.998  0.00  0.00    +0.000 S 
BRANCH  16  17
ATOM     17  C   UNL     1       9.475  10.425  19.636  0.00  0.00    +0.000 C 
BRANCH  17  18
ATOM     18  C   UNL     1      10.415  11.629  19.672  0.00  0.00    +0.000 C 
ATOM     19  O   UNL     1      11.477  11.583  19.042  0.00  0.00    +0.000 OA
ATOM     20  N   UNL     1      10.103  12.749  20.434  0.00  0.00    +0.000 N 
ATOM     21  C   UNL     1       8.928  12.908  21.287  0.00  0.00    +0.000 C 
BRANCH  20  22
ATOM     22  C   UNL     1      11.059  13.873  20.430  0.00  0.00    +0.000 C 
BRANCH  22  23
ATOM     23  C   UNL     1      10.827  14.927  19.341  0.00  0.00    +0.000 C 
BRANCH  23  24
ATOM     24  C   UNL     1       9.529  14.664  18.594  0.00  0.00    +0.000 C 
ATOM     25  N   UNL     1       8.453  14.445  17.975  0.00  0.00    +0.000 NA
ENDBRANCH  23  24
ENDBRANCH  22  23
ENDBRANCH  20  22
ENDBRANCH  17  18
ENDBRANCH  16  17
ENDBRANCH   4  16
TORSDOF 8
ENDMDL
MODEL 8
REMARK VINA RESULT:      -6.3      2.662      3.437
REMARK  Name = 
REMARK  10 active torsions:
REMARK  status: ('A' for Active; 'I' for Inactive)
REMARK    1  A    between atoms: C_1  and  O_2
REMARK    2  A    between atoms: O_2  and  C_3
REMARK    3  A    between atoms: C_9  and  C_10
REMARK    4  A    between atoms: C_13  and  S_14
REMARK    5  A    between atoms: S_14  and  C_15
REMARK    6  A    between atoms: C_15  and  C_16
REMARK    7  A    between atoms: N_18  and  C_19
REMARK    8  A    between atoms: N_18  and  C_20
REMARK    9  A    between atoms: C_20  and  C_21
REMARK   10  A    between atoms: C_21  and  C_22
REMARK                            x       y       z     vdW  Elec       q    Type
REMARK                         _______ _______ _______ _____ _____    ______ ____
ROOT
ATOM      1  C   UNL     1       3.020   5.900  19.328  0.00  0.00    +0.000 A 
ATOM      2  N   UNL     1       2.728   5.139  20.399  0.00  0.00    +0.000 NA
ATOM      3  N   UNL     1       1.875   5.924  21.067  0.00  0.00    +0.000 N 
ATOM      4  C   UNL     1       1.720   7.120  20.451  0.00  0.00    +0.000 A 
ATOM      5  N   UNL     1       2.411   7.142  19.340  0.00  0.00    +0.000 NA
ATOM      6  H   UNL     1       1.449   5.583  21.918  0.00  0.00    +0.000 HD
ENDROOT
BRANCH   1  13
ATOM      7  C   UNL     1       3.663   4.445  17.383  0.00  0.00    +0.000 A 
ATOM      8  C   UNL     1       4.605   4.092  16.407  0.00  0.00    +0.000 A 
ATOM      9  C   UNL     1       5.812   4.787  16.305  0.00  0.00    +0.000 A 
ATOM     10  C   UNL     1       6.080   5.845  17.169  0.00  0.00    +0.000 A 
ATOM     11 CL   UNL     1       7.558   6.710  17.021  0.00  0.00    +0.000 Cl
ATOM     12  C   UNL     1       5.156   6.206  18.147  0.00  0.00    +0.000 A 
ATOM     13  C   UNL     1       3.941   5.507  18.268  0.00  0.00    +0.000 A 
BRANCH   7  15
ATOM     14  C   UNL     1       2.377   2.488  17.792  0.00  0.00    +0.000 C 
ATOM     15  O   UNL     1       2.421   3.867  17.449  0.00  0.00    +0.000 OA
ENDBRANCH   7  15
ENDBRANCH   1  13
BRANCH   4  16
ATOM     16  S   UNL     1       0.702   8.367  21.068  0.00  0.00    +0.000 S 
BRANCH  16  17
ATOM     17  C   UNL     1       1.238   9.802  20.094  0.00  0.00    +0.000 C 
BRANCH  17  18
ATOM     18  C   UNL     1       0.299  10.054  18.915  0.00  0.00    +0.000 C 
ATOM     19  O   UNL     1       0.541   9.521  17.827  0.00  0.00    +0.000 OA
ATOM     20  N   UNL     1      -0.793  10.904  19.049  0.00  0.00    +0.000 N 
ATOM     21  C   UNL     1      -1.152  11.661  20.246  0.00  0.00    +0.000 C 
BRANCH  20  22
ATOM     22  C   UNL     1      -1.655  11.110  17.869  0.00  0.00    +0.000 C 
BRANCH  22  23
ATOM     23  C   UNL     1      -2.921  10.246  17.823  0.00  0.00    +0.000 C 
BRANCH  23  24
ATOM     24  C   UNL     1      -4.117  11.054  17.345  0.00  0.00    +0.000 C 
ATOM     25  N   UNL     1      -5.108  11.724  16.949  0.00  0.00    +0.000 NA
ENDBRANCH  23  24
ENDBRANCH  22  23
ENDBRANCH  20  22
ENDBRANCH  17  18
ENDBRANCH  16  17
ENDBRANCH   4  16
TORSDOF 8
ENDMDL
MODEL 9
REMARK VINA RESULT:      -6.3      7.378      9.185
REMARK  Name = 
REMARK  10 active torsions:
REMARK  status: ('A' for Active; 'I' for Inactive)
REMARK    1  A    between atoms: C_1  and  O_2
REMARK    2  A    between atoms: O_2  and  C_3
REMARK    3  A    between atoms: C_9  and  C_10
REMARK    4  A    between atoms: C_13  and  S_14
REMARK    5  A    between atoms: S_14  and  C_15
REMARK    6  A    between atoms: C_15  and  C_16
REMARK    7  A    between atoms: N_18  and  C_19
REMARK    8  A    between atoms: N_18  and  C_20
REMARK    9  A    between atoms: C_20  and  C_21
REMARK   10  A    between atoms: C_21  and  C_22
REMARK                            x       y       z     vdW  Elec       q    Type
REMARK                         _______ _______ _______ _____ _____    ______ ____
ROOT
ATOM      1  C   UNL     1       6.971   6.565  18.072  0.00  0.00    +0.000 A 
ATOM      2  N   UNL     1       7.969   6.358  18.950  0.00  0.00    +0.000 NA
ATOM      3  N   UNL     1       8.585   7.545  18.950  0.00  0.00    +0.000 N 
ATOM      4  C   UNL     1       8.014   8.396  18.063  0.00  0.00    +0.000 A 
ATOM      5  N   UNL     1       6.981   7.825  17.500  0.00  0.00    +0.000 NA
ATOM      6  H   UNL     1       9.371   7.698  19.566  0.00  0.00    +0.000 HD
ENDROOT
BRANCH   1  13
ATOM      7  C   UNL     1       6.149   4.751  16.541  0.00  0.00    +0.000 A 
ATOM      8  C   UNL     1       5.155   3.822  16.205  0.00  0.00    +0.000 A 
ATOM      9  C   UNL     1       4.014   3.687  17.000  0.00  0.00    +0.000 A 
ATOM     10  C   UNL     1       3.866   4.472  18.140  0.00  0.00    +0.000 A 
ATOM     11 CL   UNL     1       2.470   4.283  19.126  0.00  0.00    +0.000 Cl
ATOM     12  C   UNL     1       4.843   5.402  18.487  0.00  0.00    +0.000 A 
ATOM     13  C   UNL     1       5.992   5.556  17.688  0.00  0.00    +0.000 A 
BRANCH   7  15
ATOM     14  C   UNL     1       7.247   4.918  14.439  0.00  0.00    +0.000 C 
ATOM     15  O   UNL     1       7.334   4.840  15.856  0.00  0.00    +0.000 OA
ENDBRANCH   7  15
ENDBRANCH   1  13
BRANCH   4  16
ATOM     16  S   UNL     1       8.584  10.002  17.806  0.00  0.00    +0.000 S 
BRANCH  16  17
ATOM     17  C   UNL     1       9.299  10.408  19.425  0.00  0.00    +0.000 C 
BRANCH  17  18
ATOM     18  C   UNL     1       9.677  11.886  19.509  0.00  0.00    +0.000 C 
ATOM     19  O   UNL     1       8.850  12.695  19.942  0.00  0.00    +0.000 OA
ATOM     20  N   UNL     1      10.920  12.325  19.068  0.00  0.00    +0.000 N 
ATOM     21  C   UNL     1      11.959  11.496  18.463  0.00  0.00    +0.000 C 
BRANCH  20  22
ATOM     22  C   UNL     1      11.217  13.767  19.169  0.00  0.00    +0.000 C 
BRANCH  22  23
ATOM     23  C   UNL     1      11.833  14.399  17.915  0.00  0.00    +0.000 C 
BRANCH  23  24
ATOM     24  C   UNL     1      11.043  15.621  17.475  0.00  0.00    +0.000 C 
ATOM     25  N   UNL     1      10.388  16.634  17.110  0.00  0.00    +0.000 NA
ENDBRANCH  23  24
ENDBRANCH  22  23
ENDBRANCH  20  22
ENDBRANCH  17  18
ENDBRANCH  16  17
ENDBRANCH   4  16
TORSDOF 8
ENDMDL
