MODEL 1
REMARK VINA RESULT:      -7.0      0.000      0.000
REMARK  Name = 
REMARK  5 active torsions:
REMARK  status: ('A' for Active; 'I' for Inactive)
REMARK    1  A    between atoms: O_1  and  C_2
REMARK    2  A    between atoms: C_2  and  C_3
REMARK    3  A    between atoms: C_3  and  C_4
REMARK    4  A    between atoms: N_6  and  C_7
REMARK    5  A    between atoms: C_13  and  N_14
REMARK                            x       y       z     vdW  Elec       q    Type
REMARK                         _______ _______ _______ _____ _____    ______ ____
ROOT
ATOM      1  C   UNL     1       2.410   5.048  18.603  0.00  0.00    +0.000 C 
ATOM      2  C   UNL     1       2.169   6.367  17.853  0.00  0.00    +0.000 C 
ATOM      3  C   UNL     1       2.420   7.607  18.711  0.00  0.00    +0.000 C 
ATOM      4  N   UNL     1       1.700   7.446  19.969  0.00  0.00    +0.000 N 
ATOM      5  C   UNL     1       1.111   8.506  20.637  0.00  0.00    +0.000 A 
ATOM      6  C   UNL     1       1.344   9.826  20.287  0.00  0.00    +0.000 A 
ATOM      7  C   UNL     1       0.688  10.839  20.966  0.00  0.00    +0.000 A 
ATOM      8  N   UNL     1      -0.169  10.546  21.954  0.00  0.00    +0.000 NA
ATOM      9  C   UNL     1      -0.356   9.250  22.222  0.00  0.00    +0.000 A 
ATOM     10  N   UNL     1       0.246   8.222  21.622  0.00  0.00    +0.000 NA
ATOM     11  C   UNL     1       2.112   6.307  20.786  0.00  0.00    +0.000 C 
ATOM     12  C   UNL     1       1.806   5.032  20.012  0.00  0.00    +0.000 C 
ENDROOT
BRANCH   7  13
ATOM     13  N   UNL     1       0.893  12.160  20.648  0.00  0.00    +0.000 N 
ATOM     14  C   UNL     1       0.140  13.217  21.329  0.00  0.00    +0.000 C 
ATOM     15  C   UNL     1      -0.505  14.155  20.302  0.00  0.00    +0.000 C 
ATOM     16  O   UNL     1       0.463  14.662  19.364  0.00  0.00    +0.000 OA
ATOM     17  C   UNL     1       1.071  13.575  18.650  0.00  0.00    +0.000 C 
ATOM     18  C   UNL     1       1.806  12.613  19.598  0.00  0.00    +0.000 C 
ENDBRANCH   7  13
BRANCH   1  21
ATOM     19  C   UNL     1       5.957   4.703  18.393  0.00  0.00    +0.000 A 
ATOM     20  C   UNL     1       4.803   5.203  17.833  0.00  0.00    +0.000 A 
ATOM     21  N   UNL     1       3.808   4.647  18.584  0.00  0.00    +0.000 N 
ATOM     22  N   UNL     1       4.306   3.765  19.466  0.00  0.00    +0.000 NA
ATOM     23  N   UNL     1       5.627   3.804  19.372  0.00  0.00    +0.000 NA
BRANCH  19  24
ATOM     24  C   UNL     1       7.367   5.041  18.098  0.00  0.00    +0.000 C 
BRANCH  24  25
ATOM     25  C   UNL     1       7.951   6.031  19.094  0.00  0.00    +0.000 C 
BRANCH  25  26
ATOM     26  O   UNL     1       7.930   5.451  20.396  0.00  0.00    +0.000 OA
ATOM     27  H   UNL     1       7.074   5.002  20.491  0.00  0.00    +0.000 HD
ENDBRANCH  25  26
ENDBRANCH  24  25
ENDBRANCH  19  24
ENDBRANCH   1  21
TORSDOF 5
ENDMDL
MODEL 2
REMARK VINA RESULT:      -7.0      0.684      1.142
REMARK  Name = 
REMARK  5 active torsions:
REMARK  status: ('A' for Active; 'I' for Inactive)
REMARK    1  A    between atoms: O_1  and  C_2
REMARK    2  A    between atoms: C_2  and  C_3
REMARK    3  A    between atoms: C_3  and  C_4
REMARK    4  A    between atoms: N_6  and  C_7
REMARK    5  A    between atoms: C_13  and  N_14
REMARK                            x       y       z     vdW  Elec       q    Type
REMARK                         _______ _______ _______ _____ _____    ______ ____
ROOT
ATOM      1  C   UNL     1       2.393   5.005  18.662  0.00  0.00    +0.000 C 
ATOM      2  C   UNL     1       2.126   6.267  17.826  0.00  0.00    +0.000 C 
ATOM      3  C   UNL     1       2.399   7.565  18.584  0.00  0.00    +0.000 C 
ATOM      4  N   UNL     1       1.717   7.495  19.872  0.00  0.00    +0.000 N 
ATOM      5  C   UNL     1       1.146   8.600  20.479  0.00  0.00    +0.000 A 
ATOM      6  C   UNL     1       1.365   9.892  20.028  0.00  0.00    +0.000 A 
ATOM      7  C   UNL     1       0.726  10.951  20.651  0.00  0.00    +0.000 A 
ATOM      8  N   UNL     1      -0.100  10.729  21.683  0.00  0.00    +0.000 NA
ATOM      9  C   UNL     1      -0.274   9.456  22.050  0.00  0.00    +0.000 A 
ATOM     10  N   UNL     1       0.312   8.387  21.507  0.00  0.00    +0.000 NA
ATOM     11  C   UNL     1       2.157   6.419  20.757  0.00  0.00    +0.000 C 
ATOM     12  C   UNL     1       1.832   5.090  20.086  0.00  0.00    +0.000 C 
ENDROOT
BRANCH   7  13
ATOM     13  N   UNL     1       0.918  12.246  20.232  0.00  0.00    +0.000 N 
ATOM     14  C   UNL     1       1.119  12.548  18.813  0.00  0.00    +0.000 C 
ATOM     15  C   UNL     1       2.374  13.410  18.627  0.00  0.00    +0.000 C 
ATOM     16  O   UNL     1       2.339  14.585  19.458  0.00  0.00    +0.000 OA
ATOM     17  C   UNL     1       2.263  14.206  20.841  0.00  0.00    +0.000 C 
ATOM     18  C   UNL     1       0.993  13.393  21.138  0.00  0.00    +0.000 C 
ENDBRANCH   7  13
BRANCH   1  21
ATOM     19  C   UNL     1       5.937   4.659  18.411  0.00  0.00    +0.000 A 
ATOM     20  C   UNL     1       4.776   5.153  17.861  0.00  0.00    +0.000 A 
ATOM     21  N   UNL     1       3.791   4.605  18.630  0.00  0.00    +0.000 N 
ATOM     22  N   UNL     1       4.300   3.732  19.514  0.00  0.00    +0.000 NA
ATOM     23  N   UNL     1       5.620   3.771  19.404  0.00  0.00    +0.000 NA
BRANCH  19  24
ATOM     24  C   UNL     1       7.343   4.996  18.096  0.00  0.00    +0.000 C 
BRANCH  24  25
ATOM     25  C   UNL     1       7.935   6.006  19.066  0.00  0.00    +0.000 C 
BRANCH  25  26
ATOM     26  O   UNL     1       7.899   5.465  20.385  0.00  0.00    +0.000 OA
ATOM     27  H   UNL     1       8.482   6.016  20.932  0.00  0.00    +0.000 HD
ENDBRANCH  25  26
ENDBRANCH  24  25
ENDBRANCH  19  24
ENDBRANCH   1  21
TORSDOF 5
ENDMDL
MODEL 3
REMARK VINA RESULT:      -6.6      1.983      2.280
REMARK  Name = 
REMARK  5 active torsions:
REMARK  status: ('A' for Active; 'I' for Inactive)
REMARK    1  A    between atoms: O_1  and  C_2
REMARK    2  A    between atoms: C_2  and  C_3
REMARK    3  A    between atoms: C_3  and  C_4
REMARK    4  A    between atoms: N_6  and  C_7
REMARK    5  A    between atoms: C_13  and  N_14
REMARK                            x       y       z     vdW  Elec       q    Type
REMARK                         _______ _______ _______ _____ _____    ______ ____
ROOT
ATOM      1  C   UNL     1       3.001   4.324  18.625  0.00  0.00    +0.000 C 
ATOM      2  C   UNL     1       2.170   5.255  17.729  0.00  0.00    +0.000 C 
ATOM      3  C   UNL     1       2.361   6.736  18.053  0.00  0.00    +0.000 C 
ATOM      4  N   UNL     1       2.194   6.916  19.491  0.00  0.00    +0.000 N 
ATOM      5  C   UNL     1       1.613   8.044  20.043  0.00  0.00    +0.000 A 
ATOM      6  C   UNL     1       1.346   9.182  19.300  0.00  0.00    +0.000 A 
ATOM      7  C   UNL     1       0.721  10.261  19.903  0.00  0.00    +0.000 A 
ATOM      8  N   UNL     1       0.374  10.205  21.196  0.00  0.00    +0.000 NA
ATOM      9  C   UNL     1       0.648   9.068  21.842  0.00  0.00    +0.000 A 
ATOM     10  N   UNL     1       1.255   7.994  21.335  0.00  0.00    +0.000 NA
ATOM     11  C   UNL     1       3.155   6.200  20.327  0.00  0.00    +0.000 C 
ATOM     12  C   UNL     1       2.953   4.706  20.109  0.00  0.00    +0.000 C 
ENDROOT
BRANCH   7  13
ATOM     13  N   UNL     1       0.440  11.407  19.198  0.00  0.00    +0.000 N 
ATOM     14  C   UNL     1       1.522  12.245  18.674  0.00  0.00    +0.000 C 
ATOM     15  C   UNL     1       1.314  13.705  19.096  0.00  0.00    +0.000 C 
ATOM     16  O   UNL     1       0.004  14.180  18.736  0.00  0.00    +0.000 OA
ATOM     17  C   UNL     1      -1.002  13.385  19.383  0.00  0.00    +0.000 C 
ATOM     18  C   UNL     1      -0.915  11.908  18.964  0.00  0.00    +0.000 C 
ENDBRANCH   7  13
BRANCH   1  21
ATOM     19  C   UNL     1       6.132   4.282  16.911  0.00  0.00    +0.000 A 
ATOM     20  C   UNL     1       4.761   4.189  16.829  0.00  0.00    +0.000 A 
ATOM     21  N   UNL     1       4.358   4.146  18.132  0.00  0.00    +0.000 N 
ATOM     22  N   UNL     1       5.412   4.089  18.961  0.00  0.00    +0.000 NA
ATOM     23  N   UNL     1       6.509   4.191  18.224  0.00  0.00    +0.000 NA
BRANCH  19  24
ATOM     24  C   UNL     1       7.125   4.494  15.835  0.00  0.00    +0.000 C 
BRANCH  24  25
ATOM     25  C   UNL     1       6.480   4.669  14.469  0.00  0.00    +0.000 C 
BRANCH  25  26
ATOM     26  O   UNL     1       6.385   3.399  13.831  0.00  0.00    +0.000 OA
ATOM     27  H   UNL     1       5.474   3.085  13.963  0.00  0.00    +0.000 HD
ENDBRANCH  25  26
ENDBRANCH  24  25
ENDBRANCH  19  24
ENDBRANCH   1  21
TORSDOF 5
ENDMDL
MODEL 4
REMARK VINA RESULT:      -6.6      1.483      1.780
REMARK  Name = 
REMARK  5 active torsions:
REMARK  status: ('A' for Active; 'I' for Inactive)
REMARK    1  A    between atoms: O_1  and  C_2
REMARK    2  A    between atoms: C_2  and  C_3
REMARK    3  A    between atoms: C_3  and  C_4
REMARK    4  A    between atoms: N_6  and  C_7
REMARK    5  A    between atoms: C_13  and  N_14
REMARK                            x       y       z     vdW  Elec       q    Type
REMARK                         _______ _______ _______ _____ _____    ______ ____
ROOT
ATOM      1  C   UNL     1       2.411   4.931  18.704  0.00  0.00    +0.000 C 
ATOM      2  C   UNL     1       2.022   6.001  17.673  0.00  0.00    +0.000 C 
ATOM      3  C   UNL     1       2.341   7.425  18.127  0.00  0.00    +0.000 C 
ATOM      4  N   UNL     1       1.806   7.608  19.471  0.00  0.00    +0.000 N 
ATOM      5  C   UNL     1       1.275   8.808  19.910  0.00  0.00    +0.000 A 
ATOM      6  C   UNL     1       1.409   9.986  19.194  0.00  0.00    +0.000 A 
ATOM      7  C   UNL     1       0.815  11.145  19.666  0.00  0.00    +0.000 A 
ATOM      8  N   UNL     1       0.112  11.127  20.807  0.00  0.00    +0.000 NA
ATOM      9  C   UNL     1       0.013   9.951  21.433  0.00  0.00    +0.000 A 
ATOM     10  N   UNL     1       0.564   8.799  21.048  0.00  0.00    +0.000 NA
ATOM     11  C   UNL     1       2.369   6.729  20.495  0.00  0.00    +0.000 C 
ATOM     12  C   UNL     1       2.007   5.293  20.138  0.00  0.00    +0.000 C 
ENDROOT
BRANCH   7  13
ATOM     13  N   UNL     1       0.925  12.332  18.983  0.00  0.00    +0.000 N 
ATOM     14  C   UNL     1       2.239  12.935  18.742  0.00  0.00    +0.000 C 
ATOM     15  C   UNL     1       2.240  14.401  19.191  0.00  0.00    +0.000 C 
ATOM     16  O   UNL     1       1.158  15.141  18.595  0.00  0.00    +0.000 OA
ATOM     17  C   UNL     1      -0.100  14.562  18.974  0.00  0.00    +0.000 C 
ATOM     18  C   UNL     1      -0.221  13.105  18.500  0.00  0.00    +0.000 C 
ENDBRANCH   7  13
BRANCH   1  21
ATOM     19  C   UNL     1       5.887   4.490  18.019  0.00  0.00    +0.000 A 
ATOM     20  C   UNL     1       4.628   4.746  17.524  0.00  0.00    +0.000 A 
ATOM     21  N   UNL     1       3.808   4.539  18.594  0.00  0.00    +0.000 N 
ATOM     22  N   UNL     1       4.497   4.065  19.644  0.00  0.00    +0.000 NA
ATOM     23  N   UNL     1       5.779   4.049  19.310  0.00  0.00    +0.000 NA
BRANCH  19  24
ATOM     24  C   UNL     1       7.206   4.672  17.372  0.00  0.00    +0.000 C 
BRANCH  24  25
ATOM     25  C   UNL     1       7.140   4.533  15.859  0.00  0.00    +0.000 C 
BRANCH  25  26
ATOM     26  O   UNL     1       7.481   5.781  15.261  0.00  0.00    +0.000 OA
ATOM     27  H   UNL     1       7.994   6.279  15.919  0.00  0.00    +0.000 HD
ENDBRANCH  25  26
ENDBRANCH  24  25
ENDBRANCH  19  24
ENDBRANCH   1  21
TORSDOF 5
ENDMDL
MODEL 5
REMARK VINA RESULT:      -6.5      1.148      1.545
REMARK  Name = 
REMARK  5 active torsions:
REMARK  status: ('A' for Active; 'I' for Inactive)
REMARK    1  A    between atoms: O_1  and  C_2
REMARK    2  A    between atoms: C_2  and  C_3
REMARK    3  A    between atoms: C_3  and  C_4
REMARK    4  A    between atoms: N_6  and  C_7
REMARK    5  A    between atoms: C_13  and  N_14
REMARK                            x       y       z     vdW  Elec       q    Type
REMARK                         _______ _______ _______ _____ _____    ______ ____
ROOT
ATOM      1  C   UNL     1       2.514   5.357  18.627  0.00  0.00    +0.000 C 
ATOM      2  C   UNL     1       2.190   6.679  17.914  0.00  0.00    +0.000 C 
ATOM      3  C   UNL     1       2.356   7.906  18.809  0.00  0.00    +0.000 C 
ATOM      4  N   UNL     1       1.643   7.662  20.058  0.00  0.00    +0.000 N 
ATOM      5  C   UNL     1       0.983   8.661  20.753  0.00  0.00    +0.000 A 
ATOM      6  C   UNL     1       1.131  10.003  20.443  0.00  0.00    +0.000 A 
ATOM      7  C   UNL     1       0.407  10.950  21.148  0.00  0.00    +0.000 A 
ATOM      8  N   UNL     1      -0.433  10.572  22.121  0.00  0.00    +0.000 NA
ATOM      9  C   UNL     1      -0.535   9.260  22.351  0.00  0.00    +0.000 A 
ATOM     10  N   UNL     1       0.135   8.291  21.724  0.00  0.00    +0.000 NA
ATOM     11  C   UNL     1       2.126   6.529  20.844  0.00  0.00    +0.000 C 
ATOM     12  C   UNL     1       1.907   5.259  20.031  0.00  0.00    +0.000 C 
ENDROOT
BRANCH   7  13
ATOM     13  N   UNL     1       0.526  12.291  20.869  0.00  0.00    +0.000 N 
ATOM     14  C   UNL     1       1.617  12.783  20.024  0.00  0.00    +0.000 C 
ATOM     15  C   UNL     1       2.353  13.932  20.723  0.00  0.00    +0.000 C 
ATOM     16  O   UNL     1       1.445  14.969  21.139  0.00  0.00    +0.000 OA
ATOM     17  C   UNL     1       0.479  14.437  22.059  0.00  0.00    +0.000 C 
ATOM     18  C   UNL     1      -0.359  13.319  21.418  0.00  0.00    +0.000 C 
ENDBRANCH   7  13
BRANCH   1  21
ATOM     19  C   UNL     1       6.083   5.264  18.603  0.00  0.00    +0.000 A 
ATOM     20  C   UNL     1       4.932   5.845  18.119  0.00  0.00    +0.000 A 
ATOM     21  N   UNL     1       3.936   5.049  18.604  0.00  0.00    +0.000 N 
ATOM     22  N   UNL     1       4.440   3.978  19.237  0.00  0.00    +0.000 NA
ATOM     23  N   UNL     1       5.759   4.108  19.260  0.00  0.00    +0.000 NA
BRANCH  19  24
ATOM     24  C   UNL     1       7.480   5.743  18.526  0.00  0.00    +0.000 C 
BRANCH  24  25
ATOM     25  C   UNL     1       7.614   7.037  17.738  0.00  0.00    +0.000 C 
BRANCH  25  26
ATOM     26  O   UNL     1       7.710   6.730  16.349  0.00  0.00    +0.000 OA
ATOM     27  H   UNL     1       7.651   7.574  15.870  0.00  0.00    +0.000 HD
ENDBRANCH  25  26
ENDBRANCH  24  25
ENDBRANCH  19  24
ENDBRANCH   1  21
TORSDOF 5
ENDMDL
MODEL 6
REMARK VINA RESULT:      -6.5      1.266      1.390
REMARK  Name = 
REMARK  5 active torsions:
REMARK  status: ('A' for Active; 'I' for Inactive)
REMARK    1  A    between atoms: O_1  and  C_2
REMARK    2  A    between atoms: C_2  and  C_3
REMARK    3  A    between atoms: C_3  and  C_4
REMARK    4  A    between atoms: N_6  and  C_7
REMARK    5  A    between atoms: C_13  and  N_14
REMARK                            x       y       z     vdW  Elec       q    Type
REMARK                         _______ _______ _______ _____ _____    ______ ____
ROOT
ATOM      1  C   UNL     1       2.581   5.239  18.662  0.00  0.00    +0.000 C 
ATOM      2  C   UNL     1       2.256   6.525  17.888  0.00  0.00    +0.000 C 
ATOM      3  C   UNL     1       2.433   7.795  18.721  0.00  0.00    +0.000 C 
ATOM      4  N   UNL     1       1.730   7.614  19.986  0.00  0.00    +0.000 N 
ATOM      5  C   UNL     1       1.080   8.648  20.637  0.00  0.00    +0.000 A 
ATOM      6  C   UNL     1       1.229   9.973  20.261  0.00  0.00    +0.000 A 
ATOM      7  C   UNL     1       0.515  10.956  20.925  0.00  0.00    +0.000 A 
ATOM      8  N   UNL     1      -0.318  10.629  21.923  0.00  0.00    +0.000 NA
ATOM      9  C   UNL     1      -0.421   9.329  22.218  0.00  0.00    +0.000 A 
ATOM     10  N   UNL     1       0.240   8.329  21.633  0.00  0.00    +0.000 NA
ATOM     11  C   UNL     1       2.217   6.519  20.822  0.00  0.00    +0.000 C 
ATOM     12  C   UNL     1       1.987   5.212  20.074  0.00  0.00    +0.000 C 
ENDROOT
BRANCH   7  13
ATOM     13  N   UNL     1       0.636  12.281  20.580  0.00  0.00    +0.000 N 
ATOM     14  C   UNL     1      -0.415  13.241  20.929  0.00  0.00    +0.000 C 
ATOM     15  C   UNL     1      -0.836  14.040  19.690  0.00  0.00    +0.000 C 
ATOM     16  O   UNL     1       0.296  14.648  19.040  0.00  0.00    +0.000 OA
ATOM     17  C   UNL     1       1.223  13.635  18.620  0.00  0.00    +0.000 C 
ATOM     18  C   UNL     1       1.757  12.824  19.812  0.00  0.00    +0.000 C 
ENDBRANCH   7  13
BRANCH   1  21
ATOM     19  C   UNL     1       6.047   4.711  17.988  0.00  0.00    +0.000 A 
ATOM     20  C   UNL     1       4.748   4.607  17.544  0.00  0.00    +0.000 A 
ATOM     21  N   UNL     1       4.002   4.925  18.641  0.00  0.00    +0.000 N 
ATOM     22  N   UNL     1       4.780   5.090  19.722  0.00  0.00    +0.000 NA
ATOM     23  N   UNL     1       6.042   4.980  19.330  0.00  0.00    +0.000 NA
BRANCH  19  24
ATOM     24  C   UNL     1       7.311   4.614  17.225  0.00  0.00    +0.000 C 
BRANCH  24  25
ATOM     25  C   UNL     1       7.082   4.458  15.730  0.00  0.00    +0.000 C 
BRANCH  25  26
ATOM     26  O   UNL     1       7.564   5.620  15.060  0.00  0.00    +0.000 OA
ATOM     27  H   UNL     1       7.854   5.336  14.176  0.00  0.00    +0.000 HD
ENDBRANCH  25  26
ENDBRANCH  24  25
ENDBRANCH  19  24
ENDBRANCH   1  21
TORSDOF 5
ENDMDL
MODEL 7
REMARK VINA RESULT:      -6.5      1.071      1.136
REMARK  Name = 
REMARK  5 active torsions:
REMARK  status: ('A' for Active; 'I' for Inactive)
REMARK    1  A    between atoms: O_1  and  C_2
REMARK    2  A    between atoms: C_2  and  C_3
REMARK    3  A    between atoms: C_3  and  C_4
REMARK    4  A    between atoms: N_6  and  C_7
REMARK    5  A    between atoms: C_13  and  N_14
REMARK                            x       y       z     vdW  Elec       q    Type
REMARK                         _______ _______ _______ _____ _____    ______ ____
ROOT
ATOM      1  C   UNL     1       2.603   5.431  18.649  0.00  0.00    +0.000 C 
ATOM      2  C   UNL     1       2.194   6.689  17.865  0.00  0.00    +0.000 C 
ATOM      3  C   UNL     1       2.323   7.977  18.677  0.00  0.00    +0.000 C 
ATOM      4  N   UNL     1       1.658   7.778  19.960  0.00  0.00    +0.000 N 
ATOM      5  C   UNL     1       0.969   8.786  20.611  0.00  0.00    +0.000 A 
ATOM      6  C   UNL     1       1.041  10.112  20.215  0.00  0.00    +0.000 A 
ATOM      7  C   UNL     1       0.290  11.066  20.881  0.00  0.00    +0.000 A 
ATOM      8  N   UNL     1      -0.502  10.711  21.902  0.00  0.00    +0.000 NA
ATOM      9  C   UNL     1      -0.532   9.412  22.215  0.00  0.00    +0.000 A 
ATOM     10  N   UNL     1       0.167   8.439  21.629  0.00  0.00    +0.000 NA
ATOM     11  C   UNL     1       2.218   6.722  20.800  0.00  0.00    +0.000 C 
ATOM     12  C   UNL     1       2.041   5.394  20.074  0.00  0.00    +0.000 C 
ENDROOT
BRANCH   7  13
ATOM     13  N   UNL     1       0.335  12.391  20.517  0.00  0.00    +0.000 N 
ATOM     14  C   UNL     1      -0.771  12.997  19.771  0.00  0.00    +0.000 C 
ATOM     15  C   UNL     1      -0.239  13.719  18.527  0.00  0.00    +0.000 C 
ATOM     16  O   UNL     1       0.801  14.657  18.862  0.00  0.00    +0.000 OA
ATOM     17  C   UNL     1       1.901  13.971  19.481  0.00  0.00    +0.000 C 
ATOM     18  C   UNL     1       1.475  13.271  20.781  0.00  0.00    +0.000 C 
ENDBRANCH   7  13
BRANCH   1  21
ATOM     19  C   UNL     1       6.170   5.509  18.518  0.00  0.00    +0.000 A 
ATOM     20  C   UNL     1       4.978   6.000  18.034  0.00  0.00    +0.000 A 
ATOM     21  N   UNL     1       4.037   5.191  18.601  0.00  0.00    +0.000 N 
ATOM     22  N   UNL     1       4.612   4.190  19.287  0.00  0.00    +0.000 NA
ATOM     23  N   UNL     1       5.922   4.385  19.261  0.00  0.00    +0.000 NA
BRANCH  19  24
ATOM     24  C   UNL     1       7.539   6.048  18.367  0.00  0.00    +0.000 C 
BRANCH  24  25
ATOM     25  C   UNL     1       7.580   7.314  17.525  0.00  0.00    +0.000 C 
BRANCH  25  26
ATOM     26  O   UNL     1       8.288   8.325  18.237  0.00  0.00    +0.000 OA
ATOM     27  H   UNL     1       8.750   7.885  18.970  0.00  0.00    +0.000 HD
ENDBRANCH  25  26
ENDBRANCH  24  25
ENDBRANCH  19  24
ENDBRANCH   1  21
TORSDOF 5
ENDMDL
MODEL 8
REMARK VINA RESULT:      -6.4      1.449      1.793
REMARK  Name = 
REMARK  5 active torsions:
REMARK  status: ('A' for Active; 'I' for Inactive)
REMARK    1  A    between atoms: O_1  and  C_2
REMARK    2  A    between atoms: C_2  and  C_3
REMARK    3  A    between atoms: C_3  and  C_4
REMARK    4  A    between atoms: N_6  and  C_7
REMARK    5  A    between atoms: C_13  and  N_14
REMARK                            x       y       z     vdW  Elec       q    Type
REMARK                         _______ _______ _______ _____ _____    ______ ____
ROOT
ATOM      1  C   UNL     1       2.568   5.637  18.573  0.00  0.00    +0.000 C 
ATOM      2  C   UNL     1       2.280   6.721  17.523  0.00  0.00    +0.000 C 
ATOM      3  C   UNL     1       2.462   8.143  18.053  0.00  0.00    +0.000 C 
ATOM      4  N   UNL     1       1.731   8.260  19.310  0.00  0.00    +0.000 N 
ATOM      5  C   UNL     1       1.086   9.421  19.697  0.00  0.00    +0.000 A 
ATOM      6  C   UNL     1       1.264  10.626  19.037  0.00  0.00    +0.000 A 
ATOM      7  C   UNL     1       0.553  11.742  19.446  0.00  0.00    +0.000 A 
ATOM      8  N   UNL     1      -0.304  11.658  20.473  0.00  0.00    +0.000 NA
ATOM      9  C   UNL     1      -0.436  10.459  21.049  0.00  0.00    +0.000 A 
ATOM     10  N   UNL     1       0.220   9.345  20.719  0.00  0.00    +0.000 NA
ATOM     11  C   UNL     1       2.182   7.375  20.382  0.00  0.00    +0.000 C 
ATOM     12  C   UNL     1       1.945   5.936  19.942  0.00  0.00    +0.000 C 
ENDROOT
BRANCH   7  13
ATOM     13  N   UNL     1       0.703  12.954  18.815  0.00  0.00    +0.000 N 
ATOM     14  C   UNL     1       2.028  13.416  18.393  0.00  0.00    +0.000 C 
ATOM     15  C   UNL     1       2.284  14.837  18.911  0.00  0.00    +0.000 C 
ATOM     16  O   UNL     1       1.223  15.736  18.538  0.00  0.00    +0.000 OA
ATOM     17  C   UNL     1      -0.023  15.282  19.088  0.00  0.00    +0.000 C 
ATOM     18  C   UNL     1      -0.398  13.885  18.567  0.00  0.00    +0.000 C 
ENDBRANCH   7  13
BRANCH   1  21
ATOM     19  C   UNL     1       6.126   5.388  18.412  0.00  0.00    +0.000 A 
ATOM     20  C   UNL     1       4.946   5.629  17.745  0.00  0.00    +0.000 A 
ATOM     21  N   UNL     1       3.983   5.310  18.657  0.00  0.00    +0.000 N 
ATOM     22  N   UNL     1       4.526   4.788  19.768  0.00  0.00    +0.000 NA
ATOM     23  N   UNL     1       5.844   4.848  19.638  0.00  0.00    +0.000 NA
BRANCH  19  24
ATOM     24  C   UNL     1       7.517   5.669  17.993  0.00  0.00    +0.000 C 
BRANCH  24  25
ATOM     25  C   UNL     1       7.926   7.110  18.251  0.00  0.00    +0.000 C 
BRANCH  25  26
ATOM     26  O   UNL     1       7.717   7.875  17.067  0.00  0.00    +0.000 OA
ATOM     27  H   UNL     1       6.756   7.921  16.926  0.00  0.00    +0.000 HD
ENDBRANCH  25  26
ENDBRANCH  24  25
ENDBRANCH  19  24
ENDBRANCH   1  21
TORSDOF 5
ENDMDL
MODEL 9
REMARK VINA RESULT:      -6.3      0.861      1.089
REMARK  Name = 
REMARK  5 active torsions:
REMARK  status: ('A' for Active; 'I' for Inactive)
REMARK    1  A    between atoms: O_1  and  C_2
REMARK    2  A    between atoms: C_2  and  C_3
REMARK    3  A    between atoms: C_3  and  C_4
REMARK    4  A    between atoms: N_6  and  C_7
REMARK    5  A    between atoms: C_13  and  N_14
REMARK                            x       y       z     vdW  Elec       q    Type
REMARK                         _______ _______ _______ _____ _____    ______ ____
ROOT
ATOM      1  C   UNL     1       2.417   5.537  18.703  0.00  0.00    +0.000 C 
ATOM      2  C   UNL     1       2.030   6.795  17.910  0.00  0.00    +0.000 C 
ATOM      3  C   UNL     1       2.213   8.090  18.701  0.00  0.00    +0.000 C 
ATOM      4  N   UNL     1       1.569   7.928  19.999  0.00  0.00    +0.000 N 
ATOM      5  C   UNL     1       0.923   8.965  20.650  0.00  0.00    +0.000 A 
ATOM      6  C   UNL     1       1.025  10.282  20.233  0.00  0.00    +0.000 A 
ATOM      7  C   UNL     1       0.317  11.267  20.901  0.00  0.00    +0.000 A 
ATOM      8  N   UNL     1      -0.464  10.950  21.942  0.00  0.00    +0.000 NA
ATOM      9  C   UNL     1      -0.526   9.657  22.275  0.00  0.00    +0.000 A 
ATOM     10  N   UNL     1       0.133   8.656  21.689  0.00  0.00    +0.000 NA
ATOM     11  C   UNL     1       2.115   6.867  20.842  0.00  0.00    +0.000 C 
ATOM     12  C   UNL     1       1.884   5.536  20.140  0.00  0.00    +0.000 C 
ENDROOT
BRANCH   7  13
ATOM     13  N   UNL     1       0.393  12.585  20.517  0.00  0.00    +0.000 N 
ATOM     14  C   UNL     1       1.488  13.437  20.987  0.00  0.00    +0.000 C 
ATOM     15  C   UNL     1       0.930  14.733  21.588  0.00  0.00    +0.000 C 
ATOM     16  O   UNL     1       0.042  15.403  20.675  0.00  0.00    +0.000 OA
ATOM     17  C   UNL     1      -1.068  14.550  20.354  0.00  0.00    +0.000 C 
ATOM     18  C   UNL     1      -0.607  13.248  19.679  0.00  0.00    +0.000 C 
ENDBRANCH   7  13
BRANCH   1  21
ATOM     19  C   UNL     1       5.982   5.507  18.513  0.00  0.00    +0.000 A 
ATOM     20  C   UNL     1       4.798   6.037  18.052  0.00  0.00    +0.000 A 
ATOM     21  N   UNL     1       3.842   5.254  18.630  0.00  0.00    +0.000 N 
ATOM     22  N   UNL     1       4.398   4.231  19.300  0.00  0.00    +0.000 NA
ATOM     23  N   UNL     1       5.713   4.387  19.252  0.00  0.00    +0.000 NA
BRANCH  19  24
ATOM     24  C   UNL     1       7.364   6.006  18.342  0.00  0.00    +0.000 C 
BRANCH  24  25
ATOM     25  C   UNL     1       8.356   5.311  19.261  0.00  0.00    +0.000 C 
BRANCH  25  26
ATOM     26  O   UNL     1       7.960   5.516  20.615  0.00  0.00    +0.000 OA
ATOM     27  H   UNL     1       7.645   6.433  20.682  0.00  0.00    +0.000 HD
ENDBRANCH  25  26
ENDBRANCH  24  25
ENDBRANCH  19  24
ENDBRANCH   1  21
TORSDOF 5
ENDMDL
