MODEL 1
REMARK VINA RESULT:      -7.0      0.000      0.000
REMARK  Name = 
REMARK  4 active torsions:
REMARK  status: ('A' for Active; 'I' for Inactive)
REMARK    1  A    between atoms: C_1  and  O_2
REMARK    2  A    between atoms: O_2  and  C_3
REMARK    3  A    between atoms: C_7  and  C_8
REMARK    4  A    between atoms: C_12  and  C_13
REMARK                            x       y       z     vdW  Elec       q    Type
REMARK                         _______ _______ _______ _____ _____    ______ ____
ROOT
ATOM      1  C   UNL     1       5.094   4.255  16.529  0.00  0.00    +0.000 A 
ATOM      2  N   UNL     1       5.021   5.554  16.462  0.00  0.00    +0.000 NA
ATOM      3  N   UNL     1       4.126   5.905  17.410  0.00  0.00    +0.000 N 
ATOM      4  C   UNL     1       3.637   7.112  17.786  0.00  0.00    +0.000 A 
ATOM      5  C   UNL     1       2.750   6.812  18.806  0.00  0.00    +0.000 A 
ATOM      6  N   UNL     1       2.697   5.449  19.064  0.00  0.00    +0.000 NA
ATOM      7  C   UNL     1       3.532   4.965  18.185  0.00  0.00    +0.000 A 
ATOM      8  S   UNL     1       4.087   3.412  17.735  0.00  0.00    +0.000 S 
ENDROOT
BRANCH   5   9
ATOM      9  C   UNL     1       1.946   7.833  19.520  0.00  0.00    +0.000 A 
ATOM     10  C   UNL     1       1.512   7.754  20.828  0.00  0.00    +0.000 A 
ATOM     11  C   UNL     1       0.768   8.936  21.088  0.00  0.00    +0.000 A 
ATOM     12  C   UNL     1       0.078   9.471  22.189  0.00  0.00    +0.000 A 
ATOM     13  C   UNL     1      -0.580  10.709  22.050  0.00  0.00    +0.000 A 
ATOM     14  C   UNL     1      -1.327  11.307  23.208  0.00  0.00    +0.000 C 
ATOM     15  C   UNL     1      -0.549  11.389  20.822  0.00  0.00    +0.000 A 
ATOM     16  C   UNL     1       0.145  10.878  19.719  0.00  0.00    +0.000 A 
ATOM     17  C   UNL     1       0.788   9.658  19.902  0.00  0.00    +0.000 A 
ATOM     18  O   UNL     1       1.514   9.001  18.958  0.00  0.00    +0.000 OA
ENDBRANCH   5   9
BRANCH   1  20
ATOM     19  C   UNL     1       6.115   4.031  14.416  0.00  0.00    +0.000 C 
ATOM     20  O   UNL     1       5.899   3.510  15.731  0.00  0.00    +0.000 OA
ENDBRANCH   1  20
TORSDOF 2
ENDMDL
MODEL 2
REMARK VINA RESULT:      -7.0      3.633      8.275
REMARK  Name = 
REMARK  4 active torsions:
REMARK  status: ('A' for Active; 'I' for Inactive)
REMARK    1  A    between atoms: C_1  and  O_2
REMARK    2  A    between atoms: O_2  and  C_3
REMARK    3  A    between atoms: C_7  and  C_8
REMARK    4  A    between atoms: C_12  and  C_13
REMARK                            x       y       z     vdW  Elec       q    Type
REMARK                         _______ _______ _______ _____ _____    ______ ____
ROOT
ATOM      1  C   UNL     1      -0.738  11.215  22.678  0.00  0.00    +0.000 A 
ATOM      2  N   UNL     1       0.011  10.213  23.044  0.00  0.00    +0.000 NA
ATOM      3  N   UNL     1       0.470   9.677  21.893  0.00  0.00    +0.000 N 
ATOM      4  C   UNL     1       1.272   8.611  21.651  0.00  0.00    +0.000 A 
ATOM      5  C   UNL     1       1.369   8.573  20.270  0.00  0.00    +0.000 A 
ATOM      6  N   UNL     1       0.651   9.597  19.669  0.00  0.00    +0.000 NA
ATOM      7  C   UNL     1       0.127  10.210  20.694  0.00  0.00    +0.000 A 
ATOM      8  S   UNL     1      -0.914  11.546  20.935  0.00  0.00    +0.000 S 
ENDROOT
BRANCH   5   9
ATOM      9  C   UNL     1       2.139   7.542  19.531  0.00  0.00    +0.000 A 
ATOM     10  C   UNL     1       2.876   7.750  18.383  0.00  0.00    +0.000 A 
ATOM     11  C   UNL     1       3.429   6.494  18.016  0.00  0.00    +0.000 A 
ATOM     12  C   UNL     1       4.256   6.019  16.983  0.00  0.00    +0.000 A 
ATOM     13  C   UNL     1       4.582   4.650  16.940  0.00  0.00    +0.000 A 
ATOM     14  C   UNL     1       5.464   4.111  15.849  0.00  0.00    +0.000 C 
ATOM     15  C   UNL     1       4.078   3.775  17.916  0.00  0.00    +0.000 A 
ATOM     16  C   UNL     1       3.264   4.231  18.959  0.00  0.00    +0.000 A 
ATOM     17  C   UNL     1       2.974   5.592  18.968  0.00  0.00    +0.000 A 
ATOM     18  O   UNL     1       2.208   6.227  19.896  0.00  0.00    +0.000 OA
ENDBRANCH   5   9
BRANCH   1  20
ATOM     19  C   UNL     1      -2.557  12.669  23.043  0.00  0.00    +0.000 C 
ATOM     20  O   UNL     1      -1.387  12.022  23.553  0.00  0.00    +0.000 OA
ENDBRANCH   1  20
TORSDOF 2
ENDMDL
MODEL 3
REMARK VINA RESULT:      -6.9      1.126      1.693
REMARK  Name = 
REMARK  4 active torsions:
REMARK  status: ('A' for Active; 'I' for Inactive)
REMARK    1  A    between atoms: C_1  and  O_2
REMARK    2  A    between atoms: O_2  and  C_3
REMARK    3  A    between atoms: C_7  and  C_8
REMARK    4  A    between atoms: C_12  and  C_13
REMARK                            x       y       z     vdW  Elec       q    Type
REMARK                         _______ _______ _______ _____ _____    ______ ____
ROOT
ATOM      1  C   UNL     1       4.823   4.960  16.937  0.00  0.00    +0.000 A 
ATOM      2  N   UNL     1       4.437   6.188  16.734  0.00  0.00    +0.000 NA
ATOM      3  N   UNL     1       3.677   6.500  17.805  0.00  0.00    +0.000 N 
ATOM      4  C   UNL     1       2.998   7.626  18.132  0.00  0.00    +0.000 A 
ATOM      5  C   UNL     1       2.411   7.322  19.349  0.00  0.00    +0.000 A 
ATOM      6  N   UNL     1       2.726   6.039  19.771  0.00  0.00    +0.000 NA
ATOM      7  C   UNL     1       3.473   5.598  18.796  0.00  0.00    +0.000 A 
ATOM      8  S   UNL     1       4.283   4.139  18.424  0.00  0.00    +0.000 S 
ENDROOT
BRANCH   5   9
ATOM      9  C   UNL     1       1.537   8.260  20.094  0.00  0.00    +0.000 A 
ATOM     10  C   UNL     1       0.987   9.425  19.598  0.00  0.00    +0.000 A 
ATOM     11  C   UNL     1       0.239  10.010  20.653  0.00  0.00    +0.000 A 
ATOM     12  C   UNL     1      -0.547  11.166  20.812  0.00  0.00    +0.000 A 
ATOM     13  C   UNL     1      -1.133  11.428  22.065  0.00  0.00    +0.000 A 
ATOM     14  C   UNL     1      -1.978  12.654  22.268  0.00  0.00    +0.000 C 
ATOM     15  C   UNL     1      -0.925  10.547  23.139  0.00  0.00    +0.000 A 
ATOM     16  C   UNL     1      -0.158   9.387  22.996  0.00  0.00    +0.000 A 
ATOM     17  C   UNL     1       0.396   9.161  21.739  0.00  0.00    +0.000 A 
ATOM     18  O   UNL     1       1.166   8.093  21.399  0.00  0.00    +0.000 OA
ENDBRANCH   5   9
BRANCH   1  20
ATOM     19  C   UNL     1       7.020   4.542  16.189  0.00  0.00    +0.000 C 
ATOM     20  O   UNL     1       5.618   4.275  16.077  0.00  0.00    +0.000 OA
ENDBRANCH   1  20
TORSDOF 2
ENDMDL
MODEL 4
REMARK VINA RESULT:      -6.8      1.286      1.899
REMARK  Name = 
REMARK  4 active torsions:
REMARK  status: ('A' for Active; 'I' for Inactive)
REMARK    1  A    between atoms: C_1  and  O_2
REMARK    2  A    between atoms: O_2  and  C_3
REMARK    3  A    between atoms: C_7  and  C_8
REMARK    4  A    between atoms: C_12  and  C_13
REMARK                            x       y       z     vdW  Elec       q    Type
REMARK                         _______ _______ _______ _____ _____    ______ ____
ROOT
ATOM      1  C   UNL     1       4.901   4.596  16.640  0.00  0.00    +0.000 A 
ATOM      2  N   UNL     1       4.051   4.359  17.599  0.00  0.00    +0.000 NA
ATOM      3  N   UNL     1       3.569   5.571  17.950  0.00  0.00    +0.000 N 
ATOM      4  C   UNL     1       2.674   5.946  18.897  0.00  0.00    +0.000 A 
ATOM      5  C   UNL     1       2.606   7.323  18.766  0.00  0.00    +0.000 A 
ATOM      6  N   UNL     1       3.433   7.790  17.755  0.00  0.00    +0.000 NA
ATOM      7  C   UNL     1       3.990   6.694  17.318  0.00  0.00    +0.000 A 
ATOM      8  S   UNL     1       5.149   6.286  16.129  0.00  0.00    +0.000 S 
ENDROOT
BRANCH   5   9
ATOM      9  C   UNL     1       1.758   8.186  19.623  0.00  0.00    +0.000 A 
ATOM     10  C   UNL     1       1.169   9.376  19.244  0.00  0.00    +0.000 A 
ATOM     11  C   UNL     1       0.466   9.866  20.377  0.00  0.00    +0.000 A 
ATOM     12  C   UNL     1      -0.327  10.992  20.662  0.00  0.00    +0.000 A 
ATOM     13  C   UNL     1      -0.854  11.148  21.959  0.00  0.00    +0.000 A 
ATOM     14  C   UNL     1      -1.704  12.340  22.295  0.00  0.00    +0.000 C 
ATOM     15  C   UNL     1      -0.582  10.192  22.950  0.00  0.00    +0.000 A 
ATOM     16  C   UNL     1       0.193   9.058  22.680  0.00  0.00    +0.000 A 
ATOM     17  C   UNL     1       0.688   8.938  21.385  0.00  0.00    +0.000 A 
ATOM     18  O   UNL     1       1.454   7.913  20.927  0.00  0.00    +0.000 OA
ENDBRANCH   5   9
BRANCH   1  20
ATOM     19  C   UNL     1       6.139   3.984  14.730  0.00  0.00    +0.000 C 
ATOM     20  O   UNL     1       5.604   3.625  16.008  0.00  0.00    +0.000 OA
ENDBRANCH   1  20
TORSDOF 2
ENDMDL
MODEL 5
REMARK VINA RESULT:      -6.8      3.248      8.104
REMARK  Name = 
REMARK  4 active torsions:
REMARK  status: ('A' for Active; 'I' for Inactive)
REMARK    1  A    between atoms: C_1  and  O_2
REMARK    2  A    between atoms: O_2  and  C_3
REMARK    3  A    between atoms: C_7  and  C_8
REMARK    4  A    between atoms: C_12  and  C_13
REMARK                            x       y       z     vdW  Elec       q    Type
REMARK                         _______ _______ _______ _____ _____    ______ ____
ROOT
ATOM      1  C   UNL     1      -0.684  11.011  21.474  0.00  0.00    +0.000 A 
ATOM      2  N   UNL     1      -0.336  11.008  20.218  0.00  0.00    +0.000 NA
ATOM      3  N   UNL     1       0.436   9.910  20.070  0.00  0.00    +0.000 N 
ATOM      4  C   UNL     1       1.090   9.406  18.995  0.00  0.00    +0.000 A 
ATOM      5  C   UNL     1       1.708   8.267  19.484  0.00  0.00    +0.000 A 
ATOM      6  N   UNL     1       1.436   8.064  20.829  0.00  0.00    +0.000 NA
ATOM      7  C   UNL     1       0.684   9.089  21.121  0.00  0.00    +0.000 A 
ATOM      8  S   UNL     1      -0.093   9.694  22.519  0.00  0.00    +0.000 S 
ENDROOT
BRANCH   5   9
ATOM      9  C   UNL     1       2.570   7.385  18.660  0.00  0.00    +0.000 A 
ATOM     10  C   UNL     1       3.482   7.800  17.711  0.00  0.00    +0.000 A 
ATOM     11  C   UNL     1       4.068   6.628  17.162  0.00  0.00    +0.000 A 
ATOM     12  C   UNL     1       5.041   6.349  16.186  0.00  0.00    +0.000 A 
ATOM     13  C   UNL     1       5.350   5.007  15.890  0.00  0.00    +0.000 A 
ATOM     14  C   UNL     1       6.384   4.675  14.853  0.00  0.00    +0.000 C 
ATOM     15  C   UNL     1       4.686   3.967  16.561  0.00  0.00    +0.000 A 
ATOM     16  C   UNL     1       3.725   4.226  17.544  0.00  0.00    +0.000 A 
ATOM     17  C   UNL     1       3.456   5.565  17.811  0.00  0.00    +0.000 A 
ATOM     18  O   UNL     1       2.563   6.020  18.730  0.00  0.00    +0.000 OA
ENDBRANCH   5   9
BRANCH   1  20
ATOM     19  C   UNL     1      -0.786  13.057  22.641  0.00  0.00    +0.000 C 
ATOM     20  O   UNL     1      -1.476  11.963  22.027  0.00  0.00    +0.000 OA
ENDBRANCH   1  20
TORSDOF 2
ENDMDL
MODEL 6
REMARK VINA RESULT:      -6.7      1.111      1.329
REMARK  Name = 
REMARK  4 active torsions:
REMARK  status: ('A' for Active; 'I' for Inactive)
REMARK    1  A    between atoms: C_1  and  O_2
REMARK    2  A    between atoms: O_2  and  C_3
REMARK    3  A    between atoms: C_7  and  C_8
REMARK    4  A    between atoms: C_12  and  C_13
REMARK                            x       y       z     vdW  Elec       q    Type
REMARK                         _______ _______ _______ _____ _____    ______ ____
ROOT
ATOM      1  C   UNL     1       5.195   4.359  16.089  0.00  0.00    +0.000 A 
ATOM      2  N   UNL     1       4.201   4.130  16.899  0.00  0.00    +0.000 NA
ATOM      3  N   UNL     1       3.813   5.349  17.333  0.00  0.00    +0.000 N 
ATOM      4  C   UNL     1       2.844   5.731  18.201  0.00  0.00    +0.000 A 
ATOM      5  C   UNL     1       2.949   7.112  18.232  0.00  0.00    +0.000 A 
ATOM      6  N   UNL     1       3.954   7.576  17.396  0.00  0.00    +0.000 NA
ATOM      7  C   UNL     1       4.440   6.470  16.901  0.00  0.00    +0.000 A 
ATOM      8  S   UNL     1       5.698   6.048  15.823  0.00  0.00    +0.000 S 
ENDROOT
BRANCH   5   9
ATOM      9  C   UNL     1       2.092   7.979  19.077  0.00  0.00    +0.000 A 
ATOM     10  C   UNL     1       1.770   7.758  20.401  0.00  0.00    +0.000 A 
ATOM     11  C   UNL     1       0.922   8.825  20.802  0.00  0.00    +0.000 A 
ATOM     12  C   UNL     1       0.262   9.197  21.986  0.00  0.00    +0.000 A 
ATOM     13  C   UNL     1      -0.539  10.356  21.989  0.00  0.00    +0.000 A 
ATOM     14  C   UNL     1      -1.257  10.781  23.238  0.00  0.00    +0.000 C 
ATOM     15  C   UNL     1      -0.677  11.119  20.819  0.00  0.00    +0.000 A 
ATOM     16  C   UNL     1      -0.017  10.772  19.635  0.00  0.00    +0.000 A 
ATOM     17  C   UNL     1       0.771   9.625  19.678  0.00  0.00    +0.000 A 
ATOM     18  O   UNL     1       1.491   9.126  18.639  0.00  0.00    +0.000 OA
ENDBRANCH   5   9
BRANCH   1  20
ATOM     19  C   UNL     1       6.316   3.714  14.118  0.00  0.00    +0.000 C 
ATOM     20  O   UNL     1       5.866   3.379  15.434  0.00  0.00    +0.000 OA
ENDBRANCH   1  20
TORSDOF 2
ENDMDL
MODEL 7
REMARK VINA RESULT:      -6.7      1.230      1.840
REMARK  Name = 
REMARK  4 active torsions:
REMARK  status: ('A' for Active; 'I' for Inactive)
REMARK    1  A    between atoms: C_1  and  O_2
REMARK    2  A    between atoms: O_2  and  C_3
REMARK    3  A    between atoms: C_7  and  C_8
REMARK    4  A    between atoms: C_12  and  C_13
REMARK                            x       y       z     vdW  Elec       q    Type
REMARK                         _______ _______ _______ _____ _____    ______ ____
ROOT
ATOM      1  C   UNL     1       6.083   4.920  15.363  0.00  0.00    +0.000 A 
ATOM      2  N   UNL     1       5.979   6.202  15.570  0.00  0.00    +0.000 NA
ATOM      3  N   UNL     1       4.965   6.336  16.452  0.00  0.00    +0.000 N 
ATOM      4  C   UNL     1       4.398   7.430  17.015  0.00  0.00    +0.000 A 
ATOM      5  C   UNL     1       3.403   6.911  17.827  0.00  0.00    +0.000 A 
ATOM      6  N   UNL     1       3.360   5.526  17.776  0.00  0.00    +0.000 NA
ATOM      7  C   UNL     1       4.309   5.247  16.925  0.00  0.00    +0.000 A 
ATOM      8  S   UNL     1       4.962   3.831  16.222  0.00  0.00    +0.000 S 
ENDROOT
BRANCH   5   9
ATOM      9  C   UNL     1       2.487   7.750  18.639  0.00  0.00    +0.000 A 
ATOM     10  C   UNL     1       1.847   8.896  18.214  0.00  0.00    +0.000 A 
ATOM     11  C   UNL     1       1.089   9.376  19.314  0.00  0.00    +0.000 A 
ATOM     12  C   UNL     1       0.230  10.465  19.549  0.00  0.00    +0.000 A 
ATOM     13  C   UNL     1      -0.339  10.626  20.827  0.00  0.00    +0.000 A 
ATOM     14  C   UNL     1      -1.260  11.779  21.110  0.00  0.00    +0.000 C 
ATOM     15  C   UNL     1      -0.043   9.711  21.850  0.00  0.00    +0.000 A 
ATOM     16  C   UNL     1       0.799   8.615  21.632  0.00  0.00    +0.000 A 
ATOM     17  C   UNL     1       1.333   8.488  20.353  0.00  0.00    +0.000 A 
ATOM     18  O   UNL     1       2.164   7.494  19.942  0.00  0.00    +0.000 OA
ENDBRANCH   5   9
BRANCH   1  20
ATOM     19  C   UNL     1       6.506   3.970  13.247  0.00  0.00    +0.000 C 
ATOM     20  O   UNL     1       7.000   4.369  14.530  0.00  0.00    +0.000 OA
ENDBRANCH   1  20
TORSDOF 2
ENDMDL
MODEL 8
REMARK VINA RESULT:      -6.5      1.055      1.161
REMARK  Name = 
REMARK  4 active torsions:
REMARK  status: ('A' for Active; 'I' for Inactive)
REMARK    1  A    between atoms: C_1  and  O_2
REMARK    2  A    between atoms: O_2  and  C_3
REMARK    3  A    between atoms: C_7  and  C_8
REMARK    4  A    between atoms: C_12  and  C_13
REMARK                            x       y       z     vdW  Elec       q    Type
REMARK                         _______ _______ _______ _____ _____    ______ ____
ROOT
ATOM      1  C   UNL     1       4.779   4.921  17.315  0.00  0.00    +0.000 A 
ATOM      2  N   UNL     1       4.471   6.150  17.010  0.00  0.00    +0.000 NA
ATOM      3  N   UNL     1       3.635   6.557  17.989  0.00  0.00    +0.000 N 
ATOM      4  C   UNL     1       2.985   7.730  18.190  0.00  0.00    +0.000 A 
ATOM      5  C   UNL     1       2.280   7.524  19.364  0.00  0.00    +0.000 A 
ATOM      6  N   UNL     1       2.496   6.256  19.884  0.00  0.00    +0.000 NA
ATOM      7  C   UNL     1       3.303   5.726  19.007  0.00  0.00    +0.000 A 
ATOM      8  S   UNL     1       4.072   4.214  18.790  0.00  0.00    +0.000 S 
ENDROOT
BRANCH   5   9
ATOM      9  C   UNL     1       1.390   8.541  19.975  0.00  0.00    +0.000 A 
ATOM     10  C   UNL     1       1.021   8.603  21.303  0.00  0.00    +0.000 A 
ATOM     11  C   UNL     1       0.155   9.720  21.438  0.00  0.00    +0.000 A 
ATOM     12  C   UNL     1      -0.550  10.328  22.493  0.00  0.00    +0.000 A 
ATOM     13  C   UNL     1      -1.354  11.452  22.221  0.00  0.00    +0.000 A 
ATOM     14  C   UNL     1      -2.120  12.124  23.325  0.00  0.00    +0.000 C 
ATOM     15  C   UNL     1      -1.452  11.948  20.911  0.00  0.00    +0.000 A 
ATOM     16  C   UNL     1      -0.749  11.364  19.852  0.00  0.00    +0.000 A 
ATOM     17  C   UNL     1       0.041  10.262  20.165  0.00  0.00    +0.000 A 
ATOM     18  O   UNL     1       0.801   9.562  19.282  0.00  0.00    +0.000 OA
ENDBRANCH   5   9
BRANCH   1  20
ATOM     19  C   UNL     1       6.941   4.660  16.412  0.00  0.00    +0.000 C 
ATOM     20  O   UNL     1       5.612   4.153  16.570  0.00  0.00    +0.000 OA
ENDBRANCH   1  20
TORSDOF 2
ENDMDL
MODEL 9
REMARK VINA RESULT:      -6.5      7.374      9.804
REMARK  Name = 
REMARK  4 active torsions:
REMARK  status: ('A' for Active; 'I' for Inactive)
REMARK    1  A    between atoms: C_1  and  O_2
REMARK    2  A    between atoms: O_2  and  C_3
REMARK    3  A    between atoms: C_7  and  C_8
REMARK    4  A    between atoms: C_12  and  C_13
REMARK                            x       y       z     vdW  Elec       q    Type
REMARK                         _______ _______ _______ _____ _____    ______ ____
ROOT
ATOM      1  C   UNL     1      10.869  13.874  20.103  0.00  0.00    +0.000 A 
ATOM      2  N   UNL     1      10.471  12.851  20.806  0.00  0.00    +0.000 NA
ATOM      3  N   UNL     1       9.996  11.967  19.902  0.00  0.00    +0.000 N 
ATOM      4  C   UNL     1       9.439  10.740  20.048  0.00  0.00    +0.000 A 
ATOM      5  C   UNL     1       9.156  10.345  18.752  0.00  0.00    +0.000 A 
ATOM      6  N   UNL     1       9.537  11.301  17.822  0.00  0.00    +0.000 NA
ATOM      7  C   UNL     1      10.018  12.251  18.577  0.00  0.00    +0.000 A 
ATOM      8  S   UNL     1      10.684  13.806  18.331  0.00  0.00    +0.000 S 
ENDROOT
BRANCH   5   9
ATOM      9  C   UNL     1       8.506   9.056  18.411  0.00  0.00    +0.000 A 
ATOM     10  C   UNL     1       7.565   8.858  17.421  0.00  0.00    +0.000 A 
ATOM     11  C   UNL     1       7.210   7.484  17.458  0.00  0.00    +0.000 A 
ATOM     12  C   UNL     1       6.337   6.648  16.739  0.00  0.00    +0.000 A 
ATOM     13  C   UNL     1       6.239   5.290  17.097  0.00  0.00    +0.000 A 
ATOM     14  C   UNL     1       5.315   4.371  16.349  0.00  0.00    +0.000 C 
ATOM     15  C   UNL     1       7.000   4.786  18.164  0.00  0.00    +0.000 A 
ATOM     16  C   UNL     1       7.883   5.599  18.882  0.00  0.00    +0.000 A 
ATOM     17  C   UNL     1       7.956   6.932  18.490  0.00  0.00    +0.000 A 
ATOM     18  O   UNL     1       8.754   7.876  19.057  0.00  0.00    +0.000 OA
ENDBRANCH   5   9
BRANCH   1  20
ATOM     19  C   UNL     1      12.171  15.807  19.749  0.00  0.00    +0.000 C 
ATOM     20  O   UNL     1      11.419  14.987  20.649  0.00  0.00    +0.000 OA
ENDBRANCH   1  20
TORSDOF 2
ENDMDL
