MODEL 1
REMARK VINA RESULT:      -9.4      0.000      0.000
REMARK  Name = 
REMARK  5 active torsions:
REMARK  status: ('A' for Active; 'I' for Inactive)
REMARK    1  A    between atoms: C_1  and  N_2
REMARK    2  A    between atoms: C_9  and  C_11
REMARK    3  A    between atoms: C_11  and  C_12
REMARK    4  A    between atoms: C_15  and  C_16
REMARK    5  A    between atoms: C_24  and  C_25
REMARK                            x       y       z     vdW  Elec       q    Type
REMARK                         _______ _______ _______ _____ _____    ______ ____
ROOT
ATOM      1  C   UNL     1       6.534   3.483  12.083  0.00  0.00    +0.000 C 
ATOM      2  N   UNL     1       6.493   3.945  13.450  0.00  0.00    +0.000 N 
ATOM      3  C   UNL     1       5.630   3.514  14.426  0.00  0.00    +0.000 A 
ATOM      4  C   UNL     1       5.932   4.300  15.499  0.00  0.00    +0.000 A 
ATOM      5  C   UNL     1       6.966   5.155  15.109  0.00  0.00    +0.000 A 
ATOM      6  N   UNL     1       7.511   6.159  15.936  0.00  0.00    +0.000 NA
ATOM      7  C   UNL     1       6.962   6.267  17.118  0.00  0.00    +0.000 A 
ATOM      8  N   UNL     1       7.305   7.197  18.084  0.00  0.00    +0.000 N 
ATOM      9  C   UNL     1       8.136   8.292  17.892  0.00  0.00    +0.000 C 
ATOM     10  O   UNL     1       8.552   8.676  16.803  0.00  0.00    +0.000 OA
ATOM     11  N   UNL     1       5.923   5.432  17.587  0.00  0.00    +0.000 N 
ATOM     12  N   UNL     1       5.295   5.518  18.786  0.00  0.00    +0.000 NA
ATOM     13  C   UNL     1       4.396   4.514  18.667  0.00  0.00    +0.000 A 
ATOM     14  N   UNL     1       4.445   3.811  17.476  0.00  0.00    +0.000 NA
ATOM     15  C   UNL     1       5.388   4.435  16.831  0.00  0.00    +0.000 A 
ATOM     16  N   UNL     1       7.335   4.933  13.852  0.00  0.00    +0.000 NA
ATOM     17  H   UNL     1       6.829   7.117  18.980  0.00  0.00    +0.000 HD
ENDROOT
BRANCH  13  18
ATOM     18  C   UNL     1       3.383   4.156  19.705  0.00  0.00    +0.000 A 
ATOM     19  C   UNL     1       2.153   4.775  19.850  0.00  0.00    +0.000 A 
ATOM     20  C   UNL     1       1.503   4.149  20.937  0.00  0.00    +0.000 A 
ATOM     21  C   UNL     1       2.382   3.204  21.410  0.00  0.00    +0.000 A 
ATOM     22  O   UNL     1       3.515   3.183  20.660  0.00  0.00    +0.000 OA
ENDBRANCH  13  18
BRANCH   9  23
ATOM     23  C   UNL     1       8.458   9.067  19.159  0.00  0.00    +0.000 C 
BRANCH  23  24
ATOM     24  C   UNL     1       9.146  10.388  18.903  0.00  0.00    +0.000 A 
ATOM     25  C   UNL     1      10.365  10.683  19.527  0.00  0.00    +0.000 A 
ATOM     26  C   UNL     1      11.004  11.907  19.299  0.00  0.00    +0.000 A 
ATOM     27  C   UNL     1      10.441  12.857  18.435  0.00  0.00    +0.000 A 
ATOM     28  C   UNL     1       9.240  12.545  17.783  0.00  0.00    +0.000 A 
ATOM     29  C   UNL     1       8.603  11.322  18.010  0.00  0.00    +0.000 A 
BRANCH  27  30
ATOM     30  C   UNL     1      11.099  14.196  18.211  0.00  0.00    +0.000 C 
ATOM     31  F   UNL     1      10.262  15.254  18.400  0.00  0.00    +0.000 F 
ATOM     32  F   UNL     1      12.157  14.407  19.043  0.00  0.00    +0.000 F 
ATOM     33  F   UNL     1      11.586  14.330  16.946  0.00  0.00    +0.000 F 
ENDBRANCH  27  30
ENDBRANCH  23  24
ENDBRANCH   9  23
TORSDOF 4
ENDMDL
MODEL 2
REMARK VINA RESULT:      -8.9      0.634      1.304
REMARK  Name = 
REMARK  5 active torsions:
REMARK  status: ('A' for Active; 'I' for Inactive)
REMARK    1  A    between atoms: C_1  and  N_2
REMARK    2  A    between atoms: C_9  and  C_11
REMARK    3  A    between atoms: C_11  and  C_12
REMARK    4  A    between atoms: C_15  and  C_16
REMARK    5  A    between atoms: C_24  and  C_25
REMARK                            x       y       z     vdW  Elec       q    Type
REMARK                         _______ _______ _______ _____ _____    ______ ____
ROOT
ATOM      1  C   UNL     1       6.510   3.414  12.075  0.00  0.00    +0.000 C 
ATOM      2  N   UNL     1       6.504   3.899  13.436  0.00  0.00    +0.000 N 
ATOM      3  C   UNL     1       5.693   3.456  14.449  0.00  0.00    +0.000 A 
ATOM      4  C   UNL     1       6.007   4.270  15.498  0.00  0.00    +0.000 A 
ATOM      5  C   UNL     1       6.996   5.153  15.055  0.00  0.00    +0.000 A 
ATOM      6  N   UNL     1       7.537   6.189  15.845  0.00  0.00    +0.000 NA
ATOM      7  C   UNL     1       7.028   6.299  17.044  0.00  0.00    +0.000 A 
ATOM      8  N   UNL     1       7.374   7.257  17.982  0.00  0.00    +0.000 N 
ATOM      9  C   UNL     1       8.159   8.376  17.741  0.00  0.00    +0.000 C 
ATOM     10  O   UNL     1       8.522   8.755  16.631  0.00  0.00    +0.000 OA
ATOM     11  N   UNL     1       6.037   5.438  17.566  0.00  0.00    +0.000 N 
ATOM     12  N   UNL     1       5.450   5.524  18.786  0.00  0.00    +0.000 NA
ATOM     13  C   UNL     1       4.582   4.488  18.717  0.00  0.00    +0.000 A 
ATOM     14  N   UNL     1       4.611   3.767  17.537  0.00  0.00    +0.000 NA
ATOM     15  C   UNL     1       5.508   4.410  16.847  0.00  0.00    +0.000 A 
ATOM     16  N   UNL     1       7.326   4.922  13.790  0.00  0.00    +0.000 NA
ATOM     17  H   UNL     1       6.935   7.177  18.896  0.00  0.00    +0.000 HD
ENDROOT
BRANCH  13  18
ATOM     18  C   UNL     1       3.622   4.114  19.797  0.00  0.00    +0.000 A 
ATOM     19  C   UNL     1       3.481   2.839  20.318  0.00  0.00    +0.000 A 
ATOM     20  C   UNL     1       2.477   2.907  21.310  0.00  0.00    +0.000 A 
ATOM     21  C   UNL     1       2.043   4.211  21.319  0.00  0.00    +0.000 A 
ATOM     22  O   UNL     1       2.742   4.957  20.424  0.00  0.00    +0.000 OA
ENDBRANCH  13  18
BRANCH   9  23
ATOM     23  C   UNL     1       8.501   9.184  18.982  0.00  0.00    +0.000 C 
BRANCH  23  24
ATOM     24  C   UNL     1       9.187  10.497  18.682  0.00  0.00    +0.000 A 
ATOM     25  C   UNL     1       8.431  11.658  18.472  0.00  0.00    +0.000 A 
ATOM     26  C   UNL     1       9.062  12.874  18.186  0.00  0.00    +0.000 A 
ATOM     27  C   UNL     1      10.459  12.955  18.113  0.00  0.00    +0.000 A 
ATOM     28  C   UNL     1      11.215  11.801  18.361  0.00  0.00    +0.000 A 
ATOM     29  C   UNL     1      10.585  10.586  18.647  0.00  0.00    +0.000 A 
BRANCH  27  30
ATOM     30  C   UNL     1      11.149  14.252  17.768  0.00  0.00    +0.000 C 
ATOM     31  F   UNL     1      12.248  14.092  16.978  0.00  0.00    +0.000 F 
ATOM     32  F   UNL     1      10.336  15.118  17.100  0.00  0.00    +0.000 F 
ATOM     33  F   UNL     1      11.581  14.922  18.872  0.00  0.00    +0.000 F 
ENDBRANCH  27  30
ENDBRANCH  23  24
ENDBRANCH   9  23
TORSDOF 4
ENDMDL
MODEL 3
REMARK VINA RESULT:      -8.8      8.976     11.822
REMARK  Name = 
REMARK  5 active torsions:
REMARK  status: ('A' for Active; 'I' for Inactive)
REMARK    1  A    between atoms: C_1  and  N_2
REMARK    2  A    between atoms: C_9  and  C_11
REMARK    3  A    between atoms: C_11  and  C_12
REMARK    4  A    between atoms: C_15  and  C_16
REMARK    5  A    between atoms: C_24  and  C_25
REMARK                            x       y       z     vdW  Elec       q    Type
REMARK                         _______ _______ _______ _____ _____    ______ ____
ROOT
ATOM      1  C   UNL     1      -4.398  13.810  22.181  0.00  0.00    +0.000 C 
ATOM      2  N   UNL     1      -3.620  13.094  21.196  0.00  0.00    +0.000 N 
ATOM      3  C   UNL     1      -3.974  12.873  19.890  0.00  0.00    +0.000 A 
ATOM      4  C   UNL     1      -2.966  12.093  19.405  0.00  0.00    +0.000 A 
ATOM      5  C   UNL     1      -2.059  11.894  20.450  0.00  0.00    +0.000 A 
ATOM      6  N   UNL     1      -0.907  11.086  20.348  0.00  0.00    +0.000 NA
ATOM      7  C   UNL     1      -0.743  10.492  19.195  0.00  0.00    +0.000 A 
ATOM      8  N   UNL     1       0.290   9.626  18.874  0.00  0.00    +0.000 N 
ATOM      9  C   UNL     1       1.200   9.086  19.772  0.00  0.00    +0.000 C 
ATOM     10  O   UNL     1       1.118   9.174  20.994  0.00  0.00    +0.000 OA
ATOM     11  N   UNL     1      -1.609  10.653  18.091  0.00  0.00    +0.000 N 
ATOM     12  N   UNL     1      -1.508  10.039  16.886  0.00  0.00    +0.000 NA
ATOM     13  C   UNL     1      -2.599  10.537  16.261  0.00  0.00    +0.000 A 
ATOM     14  N   UNL     1      -3.354  11.427  17.005  0.00  0.00    +0.000 NA
ATOM     15  C   UNL     1      -2.715  11.445  18.138  0.00  0.00    +0.000 A 
ATOM     16  N   UNL     1      -2.440  12.523  21.555  0.00  0.00    +0.000 NA
ATOM     17  H   UNL     1       0.318   9.290  17.914  0.00  0.00    +0.000 HD
ENDROOT
BRANCH  13  18
ATOM     18  C   UNL     1      -3.023  10.173  14.876  0.00  0.00    +0.000 A 
ATOM     19  C   UNL     1      -4.333  10.186  14.425  0.00  0.00    +0.000 A 
ATOM     20  C   UNL     1      -4.306   9.780  13.072  0.00  0.00    +0.000 A 
ATOM     21  C   UNL     1      -2.989   9.516  12.783  0.00  0.00    +0.000 A 
ATOM     22  O   UNL     1      -2.199   9.771  13.858  0.00  0.00    +0.000 OA
ENDBRANCH  13  18
BRANCH   9  23
ATOM     23  C   UNL     1       2.317   8.282  19.128  0.00  0.00    +0.000 C 
BRANCH  23  24
ATOM     24  C   UNL     1       2.107   6.787  19.202  0.00  0.00    +0.000 A 
ATOM     25  C   UNL     1       2.166   6.006  18.041  0.00  0.00    +0.000 A 
ATOM     26  C   UNL     1       1.966   4.623  18.103  0.00  0.00    +0.000 A 
ATOM     27  C   UNL     1       1.711   3.991  19.328  0.00  0.00    +0.000 A 
ATOM     28  C   UNL     1       1.689   4.769  20.494  0.00  0.00    +0.000 A 
ATOM     29  C   UNL     1       1.891   6.151  20.432  0.00  0.00    +0.000 A 
BRANCH  27  30
ATOM     30  C   UNL     1       1.455   2.506  19.403  0.00  0.00    +0.000 C 
ATOM     31  F   UNL     1       1.140   2.069  20.655  0.00  0.00    +0.000 F 
ATOM     32  F   UNL     1       0.426   2.109  18.603  0.00  0.00    +0.000 F 
ATOM     33  F   UNL     1       2.534   1.772  19.015  0.00  0.00    +0.000 F 
ENDBRANCH  27  30
ENDBRANCH  23  24
ENDBRANCH   9  23
TORSDOF 4
ENDMDL
MODEL 4
REMARK VINA RESULT:      -8.5      6.780      9.308
REMARK  Name = 
REMARK  5 active torsions:
REMARK  status: ('A' for Active; 'I' for Inactive)
REMARK    1  A    between atoms: C_1  and  N_2
REMARK    2  A    between atoms: C_9  and  C_11
REMARK    3  A    between atoms: C_11  and  C_12
REMARK    4  A    between atoms: C_15  and  C_16
REMARK    5  A    between atoms: C_24  and  C_25
REMARK                            x       y       z     vdW  Elec       q    Type
REMARK                         _______ _______ _______ _____ _____    ______ ____
ROOT
ATOM      1  C   UNL     1       2.386   1.550  22.319  0.00  0.00    +0.000 C 
ATOM      2  N   UNL     1       2.512   2.549  21.283  0.00  0.00    +0.000 N 
ATOM      3  C   UNL     1       3.297   2.458  20.162  0.00  0.00    +0.000 A 
ATOM      4  C   UNL     1       3.138   3.668  19.552  0.00  0.00    +0.000 A 
ATOM      5  C   UNL     1       2.259   4.415  20.341  0.00  0.00    +0.000 A 
ATOM      6  N   UNL     1       1.893   5.749  20.063  0.00  0.00    +0.000 NA
ATOM      7  C   UNL     1       2.461   6.274  19.008  0.00  0.00    +0.000 A 
ATOM      8  N   UNL     1       2.284   7.573  18.560  0.00  0.00    +0.000 N 
ATOM      9  C   UNL     1       1.646   8.588  19.259  0.00  0.00    +0.000 C 
ATOM     10  O   UNL     1       1.293   8.519  20.433  0.00  0.00    +0.000 OA
ATOM     11  N   UNL     1       3.348   5.579  18.158  0.00  0.00    +0.000 N 
ATOM     12  N   UNL     1       3.990   6.079  17.073  0.00  0.00    +0.000 NA
ATOM     13  C   UNL     1       4.708   4.999  16.689  0.00  0.00    +0.000 A 
ATOM     14  N   UNL     1       4.535   3.865  17.463  0.00  0.00    +0.000 NA
ATOM     15  C   UNL     1       3.705   4.283  18.375  0.00  0.00    +0.000 A 
ATOM     16  N   UNL     1       1.849   3.729  21.402  0.00  0.00    +0.000 NA
ATOM     17  H   UNL     1       2.745   7.818  17.687  0.00  0.00    +0.000 HD
ENDROOT
BRANCH  13  18
ATOM     18  C   UNL     1       5.653   4.977  15.533  0.00  0.00    +0.000 A 
ATOM     19  C   UNL     1       5.521   4.157  14.424  0.00  0.00    +0.000 A 
ATOM     20  C   UNL     1       6.610   4.440  13.570  0.00  0.00    +0.000 A 
ATOM     21  C   UNL     1       7.359   5.394  14.217  0.00  0.00    +0.000 A 
ATOM     22  O   UNL     1       6.780   5.744  15.395  0.00  0.00    +0.000 OA
ENDBRANCH  13  18
BRANCH   9  23
ATOM     23  C   UNL     1       1.466   9.876  18.472  0.00  0.00    +0.000 C 
BRANCH  23  24
ATOM     24  C   UNL     1       0.022  10.290  18.309  0.00  0.00    +0.000 A 
ATOM     25  C   UNL     1      -0.809   9.615  17.404  0.00  0.00    +0.000 A 
ATOM     26  C   UNL     1      -2.145   9.999  17.244  0.00  0.00    +0.000 A 
ATOM     27  C   UNL     1      -2.680  11.058  17.991  0.00  0.00    +0.000 A 
ATOM     28  C   UNL     1      -1.858  11.706  18.923  0.00  0.00    +0.000 A 
ATOM     29  C   UNL     1      -0.523  11.323  19.084  0.00  0.00    +0.000 A 
BRANCH  27  30
ATOM     30  C   UNL     1      -4.108  11.506  17.800  0.00  0.00    +0.000 C 
ATOM     31  F   UNL     1      -5.018  10.501  17.937  0.00  0.00    +0.000 F 
ATOM     32  F   UNL     1      -4.481  12.468  18.689  0.00  0.00    +0.000 F 
ATOM     33  F   UNL     1      -4.325  12.035  16.564  0.00  0.00    +0.000 F 
ENDBRANCH  27  30
ENDBRANCH  23  24
ENDBRANCH   9  23
TORSDOF 4
ENDMDL
MODEL 5
REMARK VINA RESULT:      -8.5      8.893     11.763
REMARK  Name = 
REMARK  5 active torsions:
REMARK  status: ('A' for Active; 'I' for Inactive)
REMARK    1  A    between atoms: C_1  and  N_2
REMARK    2  A    between atoms: C_9  and  C_11
REMARK    3  A    between atoms: C_11  and  C_12
REMARK    4  A    between atoms: C_15  and  C_16
REMARK    5  A    between atoms: C_24  and  C_25
REMARK                            x       y       z     vdW  Elec       q    Type
REMARK                         _______ _______ _______ _____ _____    ______ ____
ROOT
ATOM      1  C   UNL     1      -3.711  13.855  22.645  0.00  0.00    +0.000 C 
ATOM      2  N   UNL     1      -3.051  13.119  21.592  0.00  0.00    +0.000 N 
ATOM      3  C   UNL     1      -3.520  12.933  20.317  0.00  0.00    +0.000 A 
ATOM      4  C   UNL     1      -2.593  12.115  19.743  0.00  0.00    +0.000 A 
ATOM      5  C   UNL     1      -1.613  11.860  20.707  0.00  0.00    +0.000 A 
ATOM      6  N   UNL     1      -0.513  11.001  20.502  0.00  0.00    +0.000 NA
ATOM      7  C   UNL     1      -0.471  10.417  19.333  0.00  0.00    +0.000 A 
ATOM      8  N   UNL     1       0.490   9.510  18.918  0.00  0.00    +0.000 N 
ATOM      9  C   UNL     1       1.444   8.917  19.733  0.00  0.00    +0.000 C 
ATOM     10  O   UNL     1       1.467   8.990  20.958  0.00  0.00    +0.000 OA
ATOM     11  N   UNL     1      -1.417  10.634  18.305  0.00  0.00    +0.000 N 
ATOM     12  N   UNL     1      -1.443  10.034  17.090  0.00  0.00    +0.000 NA
ATOM     13  C   UNL     1      -2.558  10.590  16.563  0.00  0.00    +0.000 A 
ATOM     14  N   UNL     1      -3.207  11.502  17.375  0.00  0.00    +0.000 NA
ATOM     15  C   UNL     1      -2.477  11.474  18.452  0.00  0.00    +0.000 A 
ATOM     16  N   UNL     1      -1.873  12.490  21.847  0.00  0.00    +0.000 NA
ATOM     17  H   UNL     1       0.424   9.187  17.956  0.00  0.00    +0.000 HD
ENDROOT
BRANCH  13  18
ATOM     18  C   UNL     1      -3.110  10.265  15.214  0.00  0.00    +0.000 A 
ATOM     19  C   UNL     1      -2.385   9.689  14.185  0.00  0.00    +0.000 A 
ATOM     20  C   UNL     1      -3.264   9.550  13.088  0.00  0.00    +0.000 A 
ATOM     21  C   UNL     1      -4.466  10.074  13.499  0.00  0.00    +0.000 A 
ATOM     22  O   UNL     1      -4.393  10.490  14.790  0.00  0.00    +0.000 OA
ENDBRANCH  13  18
BRANCH   9  23
ATOM     23  C   UNL     1       2.466   8.072  18.990  0.00  0.00    +0.000 C 
BRANCH  23  24
ATOM     24  C   UNL     1       2.206   6.586  19.084  0.00  0.00    +0.000 A 
ATOM     25  C   UNL     1       1.882   6.000  20.314  0.00  0.00    +0.000 A 
ATOM     26  C   UNL     1       1.647   4.624  20.407  0.00  0.00    +0.000 A 
ATOM     27  C   UNL     1       1.722   3.807  19.270  0.00  0.00    +0.000 A 
ATOM     28  C   UNL     1       2.008   4.401  18.033  0.00  0.00    +0.000 A 
ATOM     29  C   UNL     1       2.242   5.776  17.940  0.00  0.00    +0.000 A 
BRANCH  27  30
ATOM     30  C   UNL     1       1.509   2.316  19.364  0.00  0.00    +0.000 C 
ATOM     31  F   UNL     1       2.495   1.586  18.772  0.00  0.00    +0.000 F 
ATOM     32  F   UNL     1       1.442   1.875  20.652  0.00  0.00    +0.000 F 
ATOM     33  F   UNL     1       0.348   1.919  18.773  0.00  0.00    +0.000 F 
ENDBRANCH  27  30
ENDBRANCH  23  24
ENDBRANCH   9  23
TORSDOF 4
ENDMDL
MODEL 6
REMARK VINA RESULT:      -8.2      6.701      9.090
REMARK  Name = 
REMARK  5 active torsions:
REMARK  status: ('A' for Active; 'I' for Inactive)
REMARK    1  A    between atoms: C_1  and  N_2
REMARK    2  A    between atoms: C_9  and  C_11
REMARK    3  A    between atoms: C_11  and  C_12
REMARK    4  A    between atoms: C_15  and  C_16
REMARK    5  A    between atoms: C_24  and  C_25
REMARK                            x       y       z     vdW  Elec       q    Type
REMARK                         _______ _______ _______ _____ _____    ______ ____
ROOT
ATOM      1  C   UNL     1       3.464   1.469  21.808  0.00  0.00    +0.000 C 
ATOM      2  N   UNL     1       3.475   2.450  20.748  0.00  0.00    +0.000 N 
ATOM      3  C   UNL     1       4.229   2.397  19.604  0.00  0.00    +0.000 A 
ATOM      4  C   UNL     1       3.952   3.575  18.975  0.00  0.00    +0.000 A 
ATOM      5  C   UNL     1       3.040   4.267  19.776  0.00  0.00    +0.000 A 
ATOM      6  N   UNL     1       2.558   5.560  19.482  0.00  0.00    +0.000 NA
ATOM      7  C   UNL     1       3.047   6.104  18.399  0.00  0.00    +0.000 A 
ATOM      8  N   UNL     1       2.750   7.374  17.929  0.00  0.00    +0.000 N 
ATOM      9  C   UNL     1       2.053   8.350  18.628  0.00  0.00    +0.000 C 
ATOM     10  O   UNL     1       1.744   8.280  19.814  0.00  0.00    +0.000 OA
ATOM     11  N   UNL     1       3.962   5.464  17.534  0.00  0.00    +0.000 N 
ATOM     12  N   UNL     1       4.526   5.989  16.418  0.00  0.00    +0.000 NA
ATOM     13  C   UNL     1       5.318   4.962  16.034  0.00  0.00    +0.000 A 
ATOM     14  N   UNL     1       5.262   3.837  16.837  0.00  0.00    +0.000 NA
ATOM     15  C   UNL     1       4.430   4.207  17.766  0.00  0.00    +0.000 A 
ATOM     16  N   UNL     1       2.721   3.576  20.864  0.00  0.00    +0.000 NA
ATOM     17  H   UNL     1       3.162   7.635  17.037  0.00  0.00    +0.000 HD
ENDROOT
BRANCH  13  18
ATOM     18  C   UNL     1       6.225   4.990  14.848  0.00  0.00    +0.000 A 
ATOM     19  C   UNL     1       6.047   4.230  13.703  0.00  0.00    +0.000 A 
ATOM     20  C   UNL     1       7.112   4.545  12.830  0.00  0.00    +0.000 A 
ATOM     21  C   UNL     1       7.893   5.456  13.500  0.00  0.00    +0.000 A 
ATOM     22  O   UNL     1       7.356   5.750  14.713  0.00  0.00    +0.000 OA
ENDBRANCH  13  18
BRANCH   9  23
ATOM     23  C   UNL     1       1.744   9.600  17.820  0.00  0.00    +0.000 C 
BRANCH  23  24
ATOM     24  C   UNL     1       0.309  10.059  17.941  0.00  0.00    +0.000 A 
ATOM     25  C   UNL     1      -0.029  11.101  18.814  0.00  0.00    +0.000 A 
ATOM     26  C   UNL     1      -1.357  11.526  18.934  0.00  0.00    +0.000 A 
ATOM     27  C   UNL     1      -2.372  10.923  18.178  0.00  0.00    +0.000 A 
ATOM     28  C   UNL     1      -2.026   9.906  17.277  0.00  0.00    +0.000 A 
ATOM     29  C   UNL     1      -0.699   9.483  17.156  0.00  0.00    +0.000 A 
BRANCH  27  30
ATOM     30  C   UNL     1      -3.813  11.345  18.327  0.00  0.00    +0.000 C 
ATOM     31  F   UNL     1      -4.048  12.102  19.436  0.00  0.00    +0.000 F 
ATOM     32  F   UNL     1      -4.256  12.085  17.272  0.00  0.00    +0.000 F 
ATOM     33  F   UNL     1      -4.659  10.282  18.419  0.00  0.00    +0.000 F 
ENDBRANCH  27  30
ENDBRANCH  23  24
ENDBRANCH   9  23
TORSDOF 4
ENDMDL
MODEL 7
REMARK VINA RESULT:      -8.2      7.454      9.992
REMARK  Name = 
REMARK  5 active torsions:
REMARK  status: ('A' for Active; 'I' for Inactive)
REMARK    1  A    between atoms: C_1  and  N_2
REMARK    2  A    between atoms: C_9  and  C_11
REMARK    3  A    between atoms: C_11  and  C_12
REMARK    4  A    between atoms: C_15  and  C_16
REMARK    5  A    between atoms: C_24  and  C_25
REMARK                            x       y       z     vdW  Elec       q    Type
REMARK                         _______ _______ _______ _____ _____    ______ ____
ROOT
ATOM      1  C   UNL     1       0.630  15.493  22.198  0.00  0.00    +0.000 C 
ATOM      2  N   UNL     1       0.517  14.303  21.386  0.00  0.00    +0.000 N 
ATOM      3  C   UNL     1      -0.277  14.152  20.278  0.00  0.00    +0.000 A 
ATOM      4  C   UNL     1      -0.099  12.847  19.923  0.00  0.00    +0.000 A 
ATOM      5  C   UNL     1       0.800  12.290  20.837  0.00  0.00    +0.000 A 
ATOM      6  N   UNL     1       1.189  10.934  20.830  0.00  0.00    +0.000 NA
ATOM      7  C   UNL     1       0.625  10.197  19.909  0.00  0.00    +0.000 A 
ATOM      8  N   UNL     1       0.823   8.838  19.730  0.00  0.00    +0.000 N 
ATOM      9  C   UNL     1       1.486   7.996  20.613  0.00  0.00    +0.000 C 
ATOM     10  O   UNL     1       1.845   8.306  21.745  0.00  0.00    +0.000 OA
ATOM     11  N   UNL     1      -0.282  10.690  18.945  0.00  0.00    +0.000 N 
ATOM     12  N   UNL     1      -0.921   9.970  17.990  0.00  0.00    +0.000 NA
ATOM     13  C   UNL     1      -1.663  10.938  17.404  0.00  0.00    +0.000 A 
ATOM     14  N   UNL     1      -1.506  12.207  17.932  0.00  0.00    +0.000 NA
ATOM     15  C   UNL     1      -0.662  11.997  18.900  0.00  0.00    +0.000 A 
ATOM     16  N   UNL     1       1.203  13.183  21.733  0.00  0.00    +0.000 NA
ATOM     17  H   UNL     1       0.361   8.413  18.930  0.00  0.00    +0.000 HD
ENDROOT
BRANCH  13  18
ATOM     18  C   UNL     1      -2.616  10.709  16.277  0.00  0.00    +0.000 A 
ATOM     19  C   UNL     1      -2.433   9.776  15.269  0.00  0.00    +0.000 A 
ATOM     20  C   UNL     1      -3.549   9.877  14.409  0.00  0.00    +0.000 A 
ATOM     21  C   UNL     1      -4.334  10.881  14.922  0.00  0.00    +0.000 A 
ATOM     22  O   UNL     1      -3.792  11.379  16.065  0.00  0.00    +0.000 OA
ENDBRANCH  13  18
BRANCH   9  23
ATOM     23  C   UNL     1       1.685   6.579  20.100  0.00  0.00    +0.000 C 
BRANCH  23  24
ATOM     24  C   UNL     1       2.937   6.405  19.271  0.00  0.00    +0.000 A 
ATOM     25  C   UNL     1       3.942   5.521  19.685  0.00  0.00    +0.000 A 
ATOM     26  C   UNL     1       5.105   5.362  18.925  0.00  0.00    +0.000 A 
ATOM     27  C   UNL     1       5.284   6.076  17.731  0.00  0.00    +0.000 A 
ATOM     28  C   UNL     1       4.261   6.932  17.300  0.00  0.00    +0.000 A 
ATOM     29  C   UNL     1       3.098   7.090  18.059  0.00  0.00    +0.000 A 
BRANCH  27  30
ATOM     30  C   UNL     1       6.551   5.943  16.923  0.00  0.00    +0.000 C 
ATOM     31  F   UNL     1       7.337   4.898  17.309  0.00  0.00    +0.000 F 
ATOM     32  F   UNL     1       6.310   5.756  15.595  0.00  0.00    +0.000 F 
ATOM     33  F   UNL     1       7.340   7.050  17.007  0.00  0.00    +0.000 F 
ENDBRANCH  27  30
ENDBRANCH  23  24
ENDBRANCH   9  23
TORSDOF 4
ENDMDL
MODEL 8
REMARK VINA RESULT:      -8.2      7.895     10.665
REMARK  Name = 
REMARK  5 active torsions:
REMARK  status: ('A' for Active; 'I' for Inactive)
REMARK    1  A    between atoms: C_1  and  N_2
REMARK    2  A    between atoms: C_9  and  C_11
REMARK    3  A    between atoms: C_11  and  C_12
REMARK    4  A    between atoms: C_15  and  C_16
REMARK    5  A    between atoms: C_24  and  C_25
REMARK                            x       y       z     vdW  Elec       q    Type
REMARK                         _______ _______ _______ _____ _____    ______ ____
ROOT
ATOM      1  C   UNL     1       2.991  16.439  20.437  0.00  0.00    +0.000 C 
ATOM      2  N   UNL     1       2.363  15.173  20.140  0.00  0.00    +0.000 N 
ATOM      3  C   UNL     1       1.333  14.967  19.258  0.00  0.00    +0.000 A 
ATOM      4  C   UNL     1       1.046  13.640  19.394  0.00  0.00    +0.000 A 
ATOM      5  C   UNL     1       1.927  13.123  20.348  0.00  0.00    +0.000 A 
ATOM      6  N   UNL     1       1.899  11.787  20.802  0.00  0.00    +0.000 NA
ATOM      7  C   UNL     1       0.957  11.043  20.285  0.00  0.00    +0.000 A 
ATOM      8  N   UNL     1       0.712   9.717  20.602  0.00  0.00    +0.000 N 
ATOM      9  C   UNL     1       1.284   9.020  21.658  0.00  0.00    +0.000 C 
ATOM     10  O   UNL     1       1.960   9.526  22.549  0.00  0.00    +0.000 OA
ATOM     11  N   UNL     1       0.039  11.491  19.309  0.00  0.00    +0.000 N 
ATOM     12  N   UNL     1      -0.976  10.776  18.763  0.00  0.00    +0.000 NA
ATOM     13  C   UNL     1      -1.519  11.704  17.942  0.00  0.00    +0.000 A 
ATOM     14  N   UNL     1      -0.892  12.937  17.943  0.00  0.00    +0.000 NA
ATOM     15  C   UNL     1       0.050  12.763  18.825  0.00  0.00    +0.000 A 
ATOM     16  N   UNL     1       2.759  14.054  20.802  0.00  0.00    +0.000 NA
ATOM     17  H   UNL     1      -0.019   9.250  20.070  0.00  0.00    +0.000 HD
ENDROOT
BRANCH  13  18
ATOM     18  C   UNL     1      -2.724  11.479  17.089  0.00  0.00    +0.000 A 
ATOM     19  C   UNL     1      -4.032  11.623  17.520  0.00  0.00    +0.000 A 
ATOM     20  C   UNL     1      -4.864  11.320  16.420  0.00  0.00    +0.000 A 
ATOM     21  C   UNL     1      -4.020  10.983  15.389  0.00  0.00    +0.000 A 
ATOM     22  O   UNL     1      -2.722  11.095  15.774  0.00  0.00    +0.000 OA
ENDBRANCH  13  18
BRANCH   9  23
ATOM     23  C   UNL     1       0.949   7.538  21.688  0.00  0.00    +0.000 C 
BRANCH  23  24
ATOM     24  C   UNL     1       1.659   6.735  20.622  0.00  0.00    +0.000 A 
ATOM     25  C   UNL     1       1.667   5.335  20.679  0.00  0.00    +0.000 A 
ATOM     26  C   UNL     1       2.329   4.588  19.699  0.00  0.00    +0.000 A 
ATOM     27  C   UNL     1       2.988   5.224  18.638  0.00  0.00    +0.000 A 
ATOM     28  C   UNL     1       2.947   6.623  18.562  0.00  0.00    +0.000 A 
ATOM     29  C   UNL     1       2.285   7.370  19.541  0.00  0.00    +0.000 A 
BRANCH  27  30
ATOM     30  C   UNL     1       3.738   4.430  17.597  0.00  0.00    +0.000 C 
ATOM     31  F   UNL     1       4.655   3.570  18.122  0.00  0.00    +0.000 F 
ATOM     32  F   UNL     1       2.915   3.668  16.823  0.00  0.00    +0.000 F 
ATOM     33  F   UNL     1       4.429   5.226  16.734  0.00  0.00    +0.000 F 
ENDBRANCH  27  30
ENDBRANCH  23  24
ENDBRANCH   9  23
TORSDOF 4
ENDMDL
MODEL 9
REMARK VINA RESULT:      -8.1      6.179      8.372
REMARK  Name = 
REMARK  5 active torsions:
REMARK  status: ('A' for Active; 'I' for Inactive)
REMARK    1  A    between atoms: C_1  and  N_2
REMARK    2  A    between atoms: C_9  and  C_11
REMARK    3  A    between atoms: C_11  and  C_12
REMARK    4  A    between atoms: C_15  and  C_16
REMARK    5  A    between atoms: C_24  and  C_25
REMARK                            x       y       z     vdW  Elec       q    Type
REMARK                         _______ _______ _______ _____ _____    ______ ____
ROOT
ATOM      1  C   UNL     1       3.361   1.506  21.816  0.00  0.00    +0.000 C 
ATOM      2  N   UNL     1       3.396   2.474  20.745  0.00  0.00    +0.000 N 
ATOM      3  C   UNL     1       4.132   2.380  19.591  0.00  0.00    +0.000 A 
ATOM      4  C   UNL     1       3.892   3.562  18.953  0.00  0.00    +0.000 A 
ATOM      5  C   UNL     1       3.018   4.296  19.758  0.00  0.00    +0.000 A 
ATOM      6  N   UNL     1       2.581   5.604  19.457  0.00  0.00    +0.000 NA
ATOM      7  C   UNL     1       3.076   6.118  18.361  0.00  0.00    +0.000 A 
ATOM      8  N   UNL     1       2.823   7.392  17.882  0.00  0.00    +0.000 N 
ATOM      9  C   UNL     1       2.172   8.402  18.579  0.00  0.00    +0.000 C 
ATOM     10  O   UNL     1       1.876   8.356  19.769  0.00  0.00    +0.000 OA
ATOM     11  N   UNL     1       3.955   5.433  17.492  0.00  0.00    +0.000 N 
ATOM     12  N   UNL     1       4.524   5.925  16.364  0.00  0.00    +0.000 NA
ATOM     13  C   UNL     1       5.271   4.865  15.980  0.00  0.00    +0.000 A 
ATOM     14  N   UNL     1       5.183   3.751  16.796  0.00  0.00    +0.000 NA
ATOM     15  C   UNL     1       4.378   4.162  17.732  0.00  0.00    +0.000 A 
ATOM     16  N   UNL     1       2.687   3.629  20.858  0.00  0.00    +0.000 NA
ATOM     17  H   UNL     1       3.232   7.628  16.982  0.00  0.00    +0.000 HD
ENDROOT
BRANCH  13  18
ATOM     18  C   UNL     1       6.163   4.845  14.782  0.00  0.00    +0.000 A 
ATOM     19  C   UNL     1       5.939   4.084  13.647  0.00  0.00    +0.000 A 
ATOM     20  C   UNL     1       7.004   4.348  12.757  0.00  0.00    +0.000 A 
ATOM     21  C   UNL     1       7.830   5.232  13.409  0.00  0.00    +0.000 A 
ATOM     22  O   UNL     1       7.322   5.558  14.626  0.00  0.00    +0.000 OA
ENDBRANCH  13  18
BRANCH   9  23
ATOM     23  C   UNL     1       1.900   9.654  17.762  0.00  0.00    +0.000 C 
BRANCH  23  24
ATOM     24  C   UNL     1       0.916  10.599  18.411  0.00  0.00    +0.000 A 
ATOM     25  C   UNL     1       1.366  11.768  19.038  0.00  0.00    +0.000 A 
ATOM     26  C   UNL     1       0.459  12.643  19.647  0.00  0.00    +0.000 A 
ATOM     27  C   UNL     1      -0.916  12.371  19.633  0.00  0.00    +0.000 A 
ATOM     28  C   UNL     1      -1.368  11.220  18.973  0.00  0.00    +0.000 A 
ATOM     29  C   UNL     1      -0.462  10.347  18.364  0.00  0.00    +0.000 A 
BRANCH  27  30
ATOM     30  C   UNL     1      -1.900  13.286  20.320  0.00  0.00    +0.000 C 
ATOM     31  F   UNL     1      -3.202  13.002  20.033  0.00  0.00    +0.000 F 
ATOM     32  F   UNL     1      -1.802  13.240  21.678  0.00  0.00    +0.000 F 
ATOM     33  F   UNL     1      -1.722  14.592  19.977  0.00  0.00    +0.000 F 
ENDBRANCH  27  30
ENDBRANCH  23  24
ENDBRANCH   9  23
TORSDOF 4
ENDMDL
