MODEL 1
REMARK VINA RESULT:      -7.7      0.000      0.000
REMARK  Name = 
REMARK  1 active torsions:
REMARK  status: ('A' for Active; 'I' for Inactive)
REMARK    1  A    between atoms: C_1  and  C_2
REMARK                            x       y       z     vdW  Elec       q    Type
REMARK                         _______ _______ _______ _____ _____    ______ ____
ROOT
ATOM      1  C   UNL     1       3.774   4.224  19.537  0.00  0.00    +0.000 C 
ATOM      2  C   UNL     1       4.838   4.656  18.574  0.00  0.00    +0.000 C 
ATOM      3  C   UNL     1       5.864   5.444  18.956  0.00  0.00    +0.000 C 
ATOM      4  C   UNL     1       6.926   5.879  18.009  0.00  0.00    +0.000 C 
ATOM      5  O   UNL     1       7.847   6.595  18.383  0.00  0.00    +0.000 OA
ATOM      6  C   UNL     1       6.767   5.394  16.672  0.00  0.00    +0.000 A 
ATOM      7  N   UNL     1       7.591   5.638  15.610  0.00  0.00    +0.000 N 
ATOM      8  C   UNL     1       7.107   5.000  14.490  0.00  0.00    +0.000 A 
ATOM      9  C   UNL     1       7.616   4.966  13.186  0.00  0.00    +0.000 A 
ATOM     10  C   UNL     1       6.906   4.227  12.234  0.00  0.00    +0.000 A 
ATOM     11  C   UNL     1       5.738   3.552  12.580  0.00  0.00    +0.000 A 
ATOM     12 CL   UNL     1       4.892   2.652  11.380  0.00  0.00    +0.000 Cl
ATOM     13  C   UNL     1       5.239   3.592  13.886  0.00  0.00    +0.000 A 
ATOM     14  C   UNL     1       5.936   4.331  14.864  0.00  0.00    +0.000 A 
ATOM     15  C   UNL     1       5.730   4.588  16.252  0.00  0.00    +0.000 A 
ATOM     16  C   UNL     1       4.680   4.150  17.159  0.00  0.00    +0.000 C 
ATOM     17  O   UNL     1       3.744   3.436  16.827  0.00  0.00    +0.000 OA
ATOM     18  H   UNL     1       8.430   6.204  15.649  0.00  0.00    +0.000 HD
ENDROOT
TORSDOF 0
ENDMDL
MODEL 2
REMARK VINA RESULT:      -7.7      2.933      4.061
REMARK  Name = 
REMARK  1 active torsions:
REMARK  status: ('A' for Active; 'I' for Inactive)
REMARK    1  A    between atoms: C_1  and  C_2
REMARK                            x       y       z     vdW  Elec       q    Type
REMARK                         _______ _______ _______ _____ _____    ______ ____
ROOT
ATOM      1  C   UNL     1       1.496   2.603  21.223  0.00  0.00    +0.000 C 
ATOM      2  C   UNL     1       1.955   3.826  20.489  0.00  0.00    +0.000 C 
ATOM      3  C   UNL     1       1.614   5.066  20.893  0.00  0.00    +0.000 C 
ATOM      4  C   UNL     1       2.063   6.288  20.172  0.00  0.00    +0.000 C 
ATOM      5  O   UNL     1       1.738   7.403  20.562  0.00  0.00    +0.000 OA
ATOM      6  C   UNL     1       2.879   6.035  19.025  0.00  0.00    +0.000 A 
ATOM      7  N   UNL     1       3.424   6.967  18.186  0.00  0.00    +0.000 N 
ATOM      8  C   UNL     1       4.146   6.338  17.197  0.00  0.00    +0.000 A 
ATOM      9  C   UNL     1       4.869   6.883  16.130  0.00  0.00    +0.000 A 
ATOM     10  C   UNL     1       5.515   5.992  15.266  0.00  0.00    +0.000 A 
ATOM     11  C   UNL     1       5.436   4.617  15.468  0.00  0.00    +0.000 A 
ATOM     12 CL   UNL     1       6.245   3.552  14.382  0.00  0.00    +0.000 Cl
ATOM     13  C   UNL     1       4.710   4.083  16.538  0.00  0.00    +0.000 A 
ATOM     14  C   UNL     1       4.050   4.960  17.424  0.00  0.00    +0.000 A 
ATOM     15  C   UNL     1       3.244   4.779  18.586  0.00  0.00    +0.000 A 
ATOM     16  C   UNL     1       2.816   3.571  19.275  0.00  0.00    +0.000 C 
ATOM     17  O   UNL     1       3.117   2.440  18.920  0.00  0.00    +0.000 OA
ATOM     18  H   UNL     1       3.309   7.969  18.285  0.00  0.00    +0.000 HD
ENDROOT
TORSDOF 0
ENDMDL
MODEL 3
REMARK VINA RESULT:      -7.4      3.455      5.611
REMARK  Name = 
REMARK  1 active torsions:
REMARK  status: ('A' for Active; 'I' for Inactive)
REMARK    1  A    between atoms: C_1  and  C_2
REMARK                            x       y       z     vdW  Elec       q    Type
REMARK                         _______ _______ _______ _____ _____    ______ ____
ROOT
ATOM      1  C   UNL     1       7.988   6.877  18.329  0.00  0.00    +0.000 C 
ATOM      2  C   UNL     1       6.942   5.990  17.726  0.00  0.00    +0.000 C 
ATOM      3  C   UNL     1       6.881   5.767  16.398  0.00  0.00    +0.000 C 
ATOM      4  C   UNL     1       5.847   4.889  15.788  0.00  0.00    +0.000 C 
ATOM      5  O   UNL     1       5.814   4.704  14.577  0.00  0.00    +0.000 OA
ATOM      6  C   UNL     1       4.933   4.307  16.722  0.00  0.00    +0.000 A 
ATOM      7  N   UNL     1       3.893   3.467  16.436  0.00  0.00    +0.000 N 
ATOM      8  C   UNL     1       3.243   3.119  17.599  0.00  0.00    +0.000 A 
ATOM      9  C   UNL     1       2.133   2.287  17.792  0.00  0.00    +0.000 A 
ATOM     10  C   UNL     1       1.679   2.111  19.103  0.00  0.00    +0.000 A 
ATOM     11  C   UNL     1       2.313   2.742  20.169  0.00  0.00    +0.000 A 
ATOM     12 CL   UNL     1       1.723   2.499  21.770  0.00  0.00    +0.000 Cl
ATOM     13  C   UNL     1       3.421   3.570  19.965  0.00  0.00    +0.000 A 
ATOM     14  C   UNL     1       3.899   3.765  18.653  0.00  0.00    +0.000 A 
ATOM     15  C   UNL     1       4.970   4.516  18.085  0.00  0.00    +0.000 A 
ATOM     16  C   UNL     1       5.971   5.371  18.704  0.00  0.00    +0.000 C 
ATOM     17  O   UNL     1       6.040   5.583  19.907  0.00  0.00    +0.000 OA
ATOM     18  H   UNL     1       3.646   3.152  15.506  0.00  0.00    +0.000 HD
ENDROOT
TORSDOF 0
ENDMDL
MODEL 4
REMARK VINA RESULT:      -7.0      2.830      4.090
REMARK  Name = 
REMARK  1 active torsions:
REMARK  status: ('A' for Active; 'I' for Inactive)
REMARK    1  A    between atoms: C_1  and  C_2
REMARK                            x       y       z     vdW  Elec       q    Type
REMARK                         _______ _______ _______ _____ _____    ______ ____
ROOT
ATOM      1  C   UNL     1       0.566   1.788  19.351  0.00  0.00    +0.000 C 
ATOM      2  C   UNL     1       1.354   3.057  19.236  0.00  0.00    +0.000 C 
ATOM      3  C   UNL     1       1.156   4.095  20.073  0.00  0.00    +0.000 C 
ATOM      4  C   UNL     1       1.933   5.359  19.968  0.00  0.00    +0.000 C 
ATOM      5  O   UNL     1       1.732   6.287  20.743  0.00  0.00    +0.000 OA
ATOM      6  C   UNL     1       2.898   5.379  18.912  0.00  0.00    +0.000 A 
ATOM      7  N   UNL     1       3.740   6.407  18.593  0.00  0.00    +0.000 N 
ATOM      8  C   UNL     1       4.521   6.050  17.516  0.00  0.00    +0.000 A 
ATOM      9  C   UNL     1       5.516   6.776  16.849  0.00  0.00    +0.000 A 
ATOM     10  C   UNL     1       6.155   6.155  15.771  0.00  0.00    +0.000 A 
ATOM     11  C   UNL     1       5.809   4.864  15.383  0.00  0.00    +0.000 A 
ATOM     12 CL   UNL     1       6.620   4.133  14.050  0.00  0.00    +0.000 Cl
ATOM     13  C   UNL     1       4.814   4.147  16.056  0.00  0.00    +0.000 A 
ATOM     14  C   UNL     1       4.154   4.751  17.147  0.00  0.00    +0.000 A 
ATOM     15  C   UNL     1       3.123   4.335  18.040  0.00  0.00    +0.000 A 
ATOM     16  C   UNL     1       2.376   3.089  18.123  0.00  0.00    +0.000 C 
ATOM     17  O   UNL     1       2.544   2.140  17.370  0.00  0.00    +0.000 OA
ATOM     18  H   UNL     1       3.778   7.294  19.080  0.00  0.00    +0.000 HD
ENDROOT
TORSDOF 0
ENDMDL
MODEL 5
REMARK VINA RESULT:      -6.9      4.189      6.272
REMARK  Name = 
REMARK  1 active torsions:
REMARK  status: ('A' for Active; 'I' for Inactive)
REMARK    1  A    between atoms: C_1  and  C_2
REMARK                            x       y       z     vdW  Elec       q    Type
REMARK                         _______ _______ _______ _____ _____    ______ ____
ROOT
ATOM      1  C   UNL     1       6.524   4.903  15.247  0.00  0.00    +0.000 C 
ATOM      2  C   UNL     1       5.738   4.980  16.521  0.00  0.00    +0.000 C 
ATOM      3  C   UNL     1       5.848   4.039  17.480  0.00  0.00    +0.000 C 
ATOM      4  C   UNL     1       5.072   4.104  18.748  0.00  0.00    +0.000 C 
ATOM      5  O   UNL     1       5.191   3.235  19.603  0.00  0.00    +0.000 OA
ATOM      6  C   UNL     1       4.209   5.239  18.860  0.00  0.00    +0.000 A 
ATOM      7  N   UNL     1       3.389   5.544  19.911  0.00  0.00    +0.000 N 
ATOM      8  C   UNL     1       2.715   6.716  19.650  0.00  0.00    +0.000 A 
ATOM      9  C   UNL     1       1.780   7.406  20.431  0.00  0.00    +0.000 A 
ATOM     10  C   UNL     1       1.248   8.589  19.907  0.00  0.00    +0.000 A 
ATOM     11  C   UNL     1       1.640   9.054  18.655  0.00  0.00    +0.000 A 
ATOM     12 CL   UNL     1       0.962  10.516  18.044  0.00  0.00    +0.000 Cl
ATOM     13  C   UNL     1       2.575   8.357  17.883  0.00  0.00    +0.000 A 
ATOM     14  C   UNL     1       3.126   7.162  18.388  0.00  0.00    +0.000 A 
ATOM     15  C   UNL     1       4.074   6.217  17.896  0.00  0.00    +0.000 A 
ATOM     16  C   UNL     1       4.822   6.174  16.650  0.00  0.00    +0.000 C 
ATOM     17  O   UNL     1       4.733   7.020  15.770  0.00  0.00    +0.000 OA
ATOM     18  H   UNL     1       3.298   4.986  20.751  0.00  0.00    +0.000 HD
ENDROOT
TORSDOF 0
ENDMDL
MODEL 6
REMARK VINA RESULT:      -6.9      1.114      1.398
REMARK  Name = 
REMARK  1 active torsions:
REMARK  status: ('A' for Active; 'I' for Inactive)
REMARK    1  A    between atoms: C_1  and  C_2
REMARK                            x       y       z     vdW  Elec       q    Type
REMARK                         _______ _______ _______ _____ _____    ______ ____
ROOT
ATOM      1  C   UNL     1       2.111   3.598  19.549  0.00  0.00    +0.000 C 
ATOM      2  C   UNL     1       3.420   4.000  18.940  0.00  0.00    +0.000 C 
ATOM      3  C   UNL     1       4.420   4.517  19.683  0.00  0.00    +0.000 C 
ATOM      4  C   UNL     1       5.723   4.920  19.090  0.00  0.00    +0.000 C 
ATOM      5  O   UNL     1       6.614   5.387  19.788  0.00  0.00    +0.000 OA
ATOM      6  C   UNL     1       5.823   4.715  17.677  0.00  0.00    +0.000 A 
ATOM      7  N   UNL     1       6.900   4.996  16.883  0.00  0.00    +0.000 N 
ATOM      8  C   UNL     1       6.616   4.660  15.579  0.00  0.00    +0.000 A 
ATOM      9  C   UNL     1       7.410   4.770  14.431  0.00  0.00    +0.000 A 
ATOM     10  C   UNL     1       6.855   4.346  13.219  0.00  0.00    +0.000 A 
ATOM     11  C   UNL     1       5.561   3.836  13.166  0.00  0.00    +0.000 A 
ATOM     12 CL   UNL     1       4.913   3.324  11.653  0.00  0.00    +0.000 Cl
ATOM     13  C   UNL     1       4.776   3.730  14.319  0.00  0.00    +0.000 A 
ATOM     14  C   UNL     1       5.312   4.151  15.553  0.00  0.00    +0.000 A 
ATOM     15  C   UNL     1       4.819   4.190  16.891  0.00  0.00    +0.000 A 
ATOM     16  C   UNL     1       3.537   3.789  17.448  0.00  0.00    +0.000 C 
ATOM     17  O   UNL     1       2.620   3.320  16.787  0.00  0.00    +0.000 OA
ATOM     18  H   UNL     1       7.772   5.391  17.214  0.00  0.00    +0.000 HD
ENDROOT
TORSDOF 0
ENDMDL
MODEL 7
REMARK VINA RESULT:      -6.9      3.905      5.727
REMARK  Name = 
REMARK  1 active torsions:
REMARK  status: ('A' for Active; 'I' for Inactive)
REMARK    1  A    between atoms: C_1  and  C_2
REMARK                            x       y       z     vdW  Elec       q    Type
REMARK                         _______ _______ _______ _____ _____    ______ ____
ROOT
ATOM      1  C   UNL     1       8.332   6.580  18.821  0.00  0.00    +0.000 C 
ATOM      2  C   UNL     1       7.007   6.244  18.208  0.00  0.00    +0.000 C 
ATOM      3  C   UNL     1       6.685   6.633  16.957  0.00  0.00    +0.000 C 
ATOM      4  C   UNL     1       5.372   6.305  16.338  0.00  0.00    +0.000 C 
ATOM      5  O   UNL     1       5.105   6.671  15.200  0.00  0.00    +0.000 OA
ATOM      6  C   UNL     1       4.492   5.548  17.175  0.00  0.00    +0.000 A 
ATOM      7  N   UNL     1       3.234   5.115  16.859  0.00  0.00    +0.000 N 
ATOM      8  C   UNL     1       2.702   4.420  17.922  0.00  0.00    +0.000 A 
ATOM      9  C   UNL     1       1.454   3.799  18.053  0.00  0.00    +0.000 A 
ATOM     10  C   UNL     1       1.176   3.156  19.264  0.00  0.00    +0.000 A 
ATOM     11  C   UNL     1       2.112   3.139  20.294  0.00  0.00    +0.000 A 
ATOM     12 CL   UNL     1       1.733   2.337  21.771  0.00  0.00    +0.000 Cl
ATOM     13  C   UNL     1       3.356   3.762  20.152  0.00  0.00    +0.000 A 
ATOM     14  C   UNL     1       3.661   4.418  18.941  0.00  0.00    +0.000 A 
ATOM     15  C   UNL     1       4.793   5.137  18.456  0.00  0.00    +0.000 A 
ATOM     16  C   UNL     1       6.069   5.446  19.082  0.00  0.00    +0.000 C 
ATOM     17  O   UNL     1       6.376   5.101  20.215  0.00  0.00    +0.000 OA
ATOM     18  H   UNL     1       2.771   5.284  15.974  0.00  0.00    +0.000 HD
ENDROOT
TORSDOF 0
ENDMDL
MODEL 8
REMARK VINA RESULT:      -6.8      4.971      7.051
REMARK  Name = 
REMARK  1 active torsions:
REMARK  status: ('A' for Active; 'I' for Inactive)
REMARK    1  A    between atoms: C_1  and  C_2
REMARK                            x       y       z     vdW  Elec       q    Type
REMARK                         _______ _______ _______ _____ _____    ______ ____
ROOT
ATOM      1  C   UNL     1       4.103   2.502  20.044  0.00  0.00    +0.000 C 
ATOM      2  C   UNL     1       3.866   3.818  19.367  0.00  0.00    +0.000 C 
ATOM      3  C   UNL     1       4.394   4.099  18.158  0.00  0.00    +0.000 C 
ATOM      4  C   UNL     1       4.166   5.402  17.476  0.00  0.00    +0.000 C 
ATOM      5  O   UNL     1       4.658   5.632  16.379  0.00  0.00    +0.000 OA
ATOM      6  C   UNL     1       3.347   6.320  18.206  0.00  0.00    +0.000 A 
ATOM      7  N   UNL     1       2.980   7.578  17.816  0.00  0.00    +0.000 N 
ATOM      8  C   UNL     1       2.189   8.153  18.785  0.00  0.00    +0.000 A 
ATOM      9  C   UNL     1       1.589   9.418  18.819  0.00  0.00    +0.000 A 
ATOM     10  C   UNL     1       0.827   9.741  19.947  0.00  0.00    +0.000 A 
ATOM     11  C   UNL     1       0.677   8.832  20.991  0.00  0.00    +0.000 A 
ATOM     12 CL   UNL     1      -0.269   9.268  22.364  0.00  0.00    +0.000 Cl
ATOM     13  C   UNL     1       1.281   7.572  20.947  0.00  0.00    +0.000 A 
ATOM     14  C   UNL     1       2.055   7.222  19.821  0.00  0.00    +0.000 A 
ATOM     15  C   UNL     1       2.793   6.062  19.443  0.00  0.00    +0.000 A 
ATOM     16  C   UNL     1       3.003   4.796  20.128  0.00  0.00    +0.000 C 
ATOM     17  O   UNL     1       2.531   4.527  21.224  0.00  0.00    +0.000 OA
ATOM     18  H   UNL     1       3.254   8.014  16.944  0.00  0.00    +0.000 HD
ENDROOT
TORSDOF 0
ENDMDL
MODEL 9
REMARK VINA RESULT:      -6.7      4.556      6.908
REMARK  Name = 
REMARK  1 active torsions:
REMARK  status: ('A' for Active; 'I' for Inactive)
REMARK    1  A    between atoms: C_1  and  C_2
REMARK                            x       y       z     vdW  Elec       q    Type
REMARK                         _______ _______ _______ _____ _____    ______ ____
ROOT
ATOM      1  C   UNL     1       5.377   3.918  16.386  0.00  0.00    +0.000 C 
ATOM      2  C   UNL     1       4.548   4.266  17.585  0.00  0.00    +0.000 C 
ATOM      3  C   UNL     1       4.340   3.385  18.584  0.00  0.00    +0.000 C 
ATOM      4  C   UNL     1       3.519   3.719  19.779  0.00  0.00    +0.000 C 
ATOM      5  O   UNL     1       3.346   2.899  20.672  0.00  0.00    +0.000 OA
ATOM      6  C   UNL     1       2.974   5.042  19.776  0.00  0.00    +0.000 A 
ATOM      7  N   UNL     1       2.188   5.606  20.741  0.00  0.00    +0.000 N 
ATOM      8  C   UNL     1       1.861   6.894  20.381  0.00  0.00    +0.000 A 
ATOM      9  C   UNL     1       1.083   7.844  21.054  0.00  0.00    +0.000 A 
ATOM     10  C   UNL     1       0.916   9.091  20.444  0.00  0.00    +0.000 A 
ATOM     11  C   UNL     1       1.504   9.369  19.213  0.00  0.00    +0.000 A 
ATOM     12 CL   UNL     1       1.274  10.917  18.494  0.00  0.00    +0.000 Cl
ATOM     13  C   UNL     1       2.279   8.413  18.549  0.00  0.00    +0.000 A 
ATOM     14  C   UNL     1       2.464   7.147  19.143  0.00  0.00    +0.000 A 
ATOM     15  C   UNL     1       3.168   5.964  18.769  0.00  0.00    +0.000 A 
ATOM     16  C   UNL     1       3.966   5.661  17.592  0.00  0.00    +0.000 C 
ATOM     17  O   UNL     1       4.163   6.449  16.677  0.00  0.00    +0.000 OA
ATOM     18  H   UNL     1       1.895   5.139  21.591  0.00  0.00    +0.000 HD
ENDROOT
TORSDOF 0
ENDMDL
