MODEL 1
REMARK VINA RESULT:      -6.9      0.000      0.000
REMARK  Name = 
REMARK  4 active torsions:
REMARK  status: ('A' for Active; 'I' for Inactive)
REMARK    1  A    between atoms: C_1  and  C_2
REMARK    2  A    between atoms: N_8  and  C_9
REMARK    3  A    between atoms: N_19  and  C_20
REMARK    4  A    between atoms: C_20  and  C_21
REMARK                            x       y       z     vdW  Elec       q    Type
REMARK                         _______ _______ _______ _____ _____    ______ ____
ROOT
ATOM      1  C   UNL     1       1.747   2.352  22.134  0.00  0.00    +0.000 C 
ATOM      2  C   UNL     1       2.788   2.766  21.116  0.00  0.00    +0.000 C 
ATOM      3  O   UNL     1       3.895   2.233  21.184  0.00  0.00    +0.000 OA
ATOM      4  N   UNL     1       2.436   3.728  20.175  0.00  0.00    +0.000 N 
ATOM      5  C   UNL     1       1.114   4.362  20.212  0.00  0.00    +0.000 C 
ATOM      6  C   UNL     1       1.138   5.867  20.499  0.00  0.00    +0.000 C 
ATOM      7  O   UNL     1       0.214   6.359  21.144  0.00  0.00    +0.000 OA
ATOM      8  N   UNL     1       2.134   6.570  19.794  0.00  0.00    +0.000 N 
ATOM      9  C   UNL     1       3.449   5.909  19.717  0.00  0.00    +0.000 C 
ATOM     10  C   UNL     1       3.395   4.423  19.246  0.00  0.00    +0.000 C 
ATOM     11  C   UNL     1       4.855   3.902  19.115  0.00  0.00    +0.000 C 
ATOM     12  C   UNL     1       5.010   3.413  17.679  0.00  0.00    +0.000 C 
ATOM     13  N   UNL     1       4.060   4.186  16.875  0.00  0.00    +0.000 NA
ATOM     14  C   UNL     1       2.900   4.339  17.768  0.00  0.00    +0.000 C 
ENDROOT
BRANCH   8  15
ATOM     15  C   UNL     1       1.955   7.943  19.372  0.00  0.00    +0.000 A 
ATOM     16  C   UNL     1       1.319   8.886  20.201  0.00  0.00    +0.000 A 
ATOM     17  C   UNL     1       1.107  10.211  19.802  0.00  0.00    +0.000 A 
ATOM     18  C   UNL     1       1.495  10.630  18.540  0.00  0.00    +0.000 A 
ATOM     19  C   UNL     1       2.096   9.720  17.682  0.00  0.00    +0.000 A 
ATOM     20  C   UNL     1       2.328   8.397  18.095  0.00  0.00    +0.000 A 
ENDBRANCH   8  15
BRANCH  13  21
ATOM     21  C   UNL     1       4.654   5.435  16.382  0.00  0.00    +0.000 C 
BRANCH  21  22
ATOM     22  C   UNL     1       5.785   5.185  15.436  0.00  0.00    +0.000 A 
ATOM     23  C   UNL     1       5.720   4.491  14.190  0.00  0.00    +0.000 A 
ATOM     24  C   UNL     1       6.981   4.544  13.640  0.00  0.00    +0.000 A 
ATOM     25  O   UNL     1       7.824   5.221  14.461  0.00  0.00    +0.000 OA
ATOM     26  C   UNL     1       7.095   5.611  15.537  0.00  0.00    +0.000 A 
ENDBRANCH  21  22
ENDBRANCH  13  21
TORSDOF 3
ENDMDL
MODEL 2
REMARK VINA RESULT:      -6.5      6.926     10.840
REMARK  Name = 
REMARK  4 active torsions:
REMARK  status: ('A' for Active; 'I' for Inactive)
REMARK    1  A    between atoms: C_1  and  C_2
REMARK    2  A    between atoms: N_8  and  C_9
REMARK    3  A    between atoms: N_19  and  C_20
REMARK    4  A    between atoms: C_20  and  C_21
REMARK                            x       y       z     vdW  Elec       q    Type
REMARK                         _______ _______ _______ _____ _____    ______ ____
ROOT
ATOM      1  C   UNL     1      -6.913  14.845  23.767  0.00  0.00    +0.000 C 
ATOM      2  C   UNL     1      -5.415  14.818  23.552  0.00  0.00    +0.000 C 
ATOM      3  O   UNL     1      -4.757  15.759  23.996  0.00  0.00    +0.000 OA
ATOM      4  N   UNL     1      -4.873  13.741  22.857  0.00  0.00    +0.000 N 
ATOM      5  C   UNL     1      -5.741  12.696  22.302  0.00  0.00    +0.000 C 
ATOM      6  C   UNL     1      -5.725  12.605  20.772  0.00  0.00    +0.000 C 
ATOM      7  O   UNL     1      -6.760  12.282  20.190  0.00  0.00    +0.000 OA
ATOM      8  N   UNL     1      -4.440  12.698  20.204  0.00  0.00    +0.000 N 
ATOM      9  C   UNL     1      -3.553  13.716  20.796  0.00  0.00    +0.000 C 
ATOM     10  C   UNL     1      -3.458  13.659  22.352  0.00  0.00    +0.000 C 
ATOM     11  C   UNL     1      -2.413  14.715  22.813  0.00  0.00    +0.000 C 
ATOM     12  C   UNL     1      -1.362  13.957  23.618  0.00  0.00    +0.000 C 
ATOM     13  N   UNL     1      -1.360  12.585  23.105  0.00  0.00    +0.000 NA
ATOM     14  C   UNL     1      -2.779  12.329  22.807  0.00  0.00    +0.000 C 
ENDROOT
BRANCH   8  15
ATOM     15  C   UNL     1      -4.087  12.011  18.980  0.00  0.00    +0.000 A 
ATOM     16  C   UNL     1      -2.813  11.439  18.805  0.00  0.00    +0.000 A 
ATOM     17  C   UNL     1      -2.437  10.796  17.619  0.00  0.00    +0.000 A 
ATOM     18  C   UNL     1      -3.317  10.734  16.551  0.00  0.00    +0.000 A 
ATOM     19  C   UNL     1      -4.572  11.316  16.675  0.00  0.00    +0.000 A 
ATOM     20  C   UNL     1      -4.952  11.939  17.875  0.00  0.00    +0.000 A 
ENDBRANCH   8  15
BRANCH  13  21
ATOM     21  C   UNL     1      -0.432  12.425  21.979  0.00  0.00    +0.000 C 
BRANCH  21  22
ATOM     22  C   UNL     1      -0.066  10.994  21.749  0.00  0.00    +0.000 A 
ATOM     23  C   UNL     1       0.434  10.424  20.539  0.00  0.00    +0.000 A 
ATOM     24  C   UNL     1       0.677   9.094  20.798  0.00  0.00    +0.000 A 
ATOM     25  O   UNL     1       0.357   8.800  22.084  0.00  0.00    +0.000 OA
ATOM     26  C   UNL     1      -0.082   9.951  22.653  0.00  0.00    +0.000 A 
ENDBRANCH  21  22
ENDBRANCH  13  21
TORSDOF 3
ENDMDL
MODEL 3
REMARK VINA RESULT:      -6.4      5.040      8.941
REMARK  Name = 
REMARK  4 active torsions:
REMARK  status: ('A' for Active; 'I' for Inactive)
REMARK    1  A    between atoms: C_1  and  C_2
REMARK    2  A    between atoms: N_8  and  C_9
REMARK    3  A    between atoms: N_19  and  C_20
REMARK    4  A    between atoms: C_20  and  C_21
REMARK                            x       y       z     vdW  Elec       q    Type
REMARK                         _______ _______ _______ _____ _____    ______ ____
ROOT
ATOM      1  C   UNL     1      -3.316  12.062  23.686  0.00  0.00    +0.000 C 
ATOM      2  C   UNL     1      -2.715  12.731  22.468  0.00  0.00    +0.000 C 
ATOM      3  O   UNL     1      -3.389  13.588  21.898  0.00  0.00    +0.000 OA
ATOM      4  N   UNL     1      -1.447  12.330  22.061  0.00  0.00    +0.000 N 
ATOM      5  C   UNL     1      -0.743  11.249  22.761  0.00  0.00    +0.000 C 
ATOM      6  C   UNL     1      -0.489  10.001  21.909  0.00  0.00    +0.000 C 
ATOM      7  O   UNL     1      -0.510   8.899  22.456  0.00  0.00    +0.000 OA
ATOM      8  N   UNL     1      -0.040  10.278  20.604  0.00  0.00    +0.000 N 
ATOM      9  C   UNL     1      -0.716  11.396  19.920  0.00  0.00    +0.000 C 
ATOM     10  C   UNL     1      -0.795  12.709  20.759  0.00  0.00    +0.000 C 
ATOM     11  C   UNL     1      -1.433  13.814  19.871  0.00  0.00    +0.000 C 
ATOM     12  C   UNL     1      -0.432  14.964  19.829  0.00  0.00    +0.000 C 
ATOM     13  N   UNL     1       0.891  14.367  20.030  0.00  0.00    +0.000 NA
ATOM     14  C   UNL     1       0.635  13.288  20.998  0.00  0.00    +0.000 C 
ENDROOT
BRANCH   8  15
ATOM     15  C   UNL     1       0.856   9.391  19.892  0.00  0.00    +0.000 A 
ATOM     16  C   UNL     1       1.185   9.614  18.542  0.00  0.00    +0.000 A 
ATOM     17  C   UNL     1       2.025   8.753  17.824  0.00  0.00    +0.000 A 
ATOM     18  C   UNL     1       2.538   7.617  18.428  0.00  0.00    +0.000 A 
ATOM     19  C   UNL     1       2.209   7.346  19.749  0.00  0.00    +0.000 A 
ATOM     20  C   UNL     1       1.385   8.225  20.472  0.00  0.00    +0.000 A 
ENDBRANCH   8  15
BRANCH  13  21
ATOM     21  C   UNL     1       1.501  13.954  18.761  0.00  0.00    +0.000 C 
BRANCH  21  22
ATOM     22  C   UNL     1       2.718  14.758  18.433  0.00  0.00    +0.000 A 
ATOM     23  C   UNL     1       4.035  14.259  18.200  0.00  0.00    +0.000 A 
ATOM     24  C   UNL     1       4.822  15.344  17.888  0.00  0.00    +0.000 A 
ATOM     25  O   UNL     1       4.083  16.483  17.915  0.00  0.00    +0.000 OA
ATOM     26  C   UNL     1       2.815  16.121  18.236  0.00  0.00    +0.000 A 
ENDBRANCH  21  22
ENDBRANCH  13  21
TORSDOF 3
ENDMDL
MODEL 4
REMARK VINA RESULT:      -6.4      6.809     10.459
REMARK  Name = 
REMARK  4 active torsions:
REMARK  status: ('A' for Active; 'I' for Inactive)
REMARK    1  A    between atoms: C_1  and  C_2
REMARK    2  A    between atoms: N_8  and  C_9
REMARK    3  A    between atoms: N_19  and  C_20
REMARK    4  A    between atoms: C_20  and  C_21
REMARK                            x       y       z     vdW  Elec       q    Type
REMARK                         _______ _______ _______ _____ _____    ______ ____
ROOT
ATOM      1  C   UNL     1      -6.476  14.767  23.379  0.00  0.00    +0.000 C 
ATOM      2  C   UNL     1      -4.980  14.742  23.146  0.00  0.00    +0.000 C 
ATOM      3  O   UNL     1      -4.324  15.703  23.549  0.00  0.00    +0.000 OA
ATOM      4  N   UNL     1      -4.439  13.646  22.482  0.00  0.00    +0.000 N 
ATOM      5  C   UNL     1      -5.307  12.577  21.974  0.00  0.00    +0.000 C 
ATOM      6  C   UNL     1      -5.310  12.432  20.448  0.00  0.00    +0.000 C 
ATOM      7  O   UNL     1      -6.349  12.083  19.891  0.00  0.00    +0.000 OA
ATOM      8  N   UNL     1      -4.032  12.514  19.861  0.00  0.00    +0.000 N 
ATOM      9  C   UNL     1      -3.145  13.558  20.407  0.00  0.00    +0.000 C 
ATOM     10  C   UNL     1      -3.031  13.556  21.963  0.00  0.00    +0.000 C 
ATOM     11  C   UNL     1      -1.987  14.634  22.374  0.00  0.00    +0.000 C 
ATOM     12  C   UNL     1      -0.921  13.912  23.191  0.00  0.00    +0.000 C 
ATOM     13  N   UNL     1      -0.916  12.522  22.726  0.00  0.00    +0.000 NA
ATOM     14  C   UNL     1      -2.337  12.247  22.454  0.00  0.00    +0.000 C 
ENDROOT
BRANCH   8  15
ATOM     15  C   UNL     1      -3.689  11.787  18.658  0.00  0.00    +0.000 A 
ATOM     16  C   UNL     1      -4.550  11.769  17.545  0.00  0.00    +0.000 A 
ATOM     17  C   UNL     1      -4.255  11.048  16.381  0.00  0.00    +0.000 A 
ATOM     18  C   UNL     1      -3.098  10.290  16.306  0.00  0.00    +0.000 A 
ATOM     19  C   UNL     1      -2.240  10.257  17.397  0.00  0.00    +0.000 A 
ATOM     20  C   UNL     1      -2.529  11.000  18.553  0.00  0.00    +0.000 A 
ENDBRANCH   8  15
BRANCH  13  21
ATOM     21  C   UNL     1      -0.001  12.330  21.594  0.00  0.00    +0.000 C 
BRANCH  21  22
ATOM     22  C   UNL     1       0.315  10.887  21.364  0.00  0.00    +0.000 A 
ATOM     23  C   UNL     1       0.241   9.832  22.324  0.00  0.00    +0.000 A 
ATOM     24  C   UNL     1       0.573   8.671  21.664  0.00  0.00    +0.000 A 
ATOM     25  O   UNL     1       0.854   8.934  20.362  0.00  0.00    +0.000 OA
ATOM     26  C   UNL     1       0.688  10.270  20.187  0.00  0.00    +0.000 A 
ENDBRANCH  21  22
ENDBRANCH  13  21
TORSDOF 3
ENDMDL
MODEL 5
REMARK VINA RESULT:      -6.4      7.612     11.187
REMARK  Name = 
REMARK  4 active torsions:
REMARK  status: ('A' for Active; 'I' for Inactive)
REMARK    1  A    between atoms: C_1  and  C_2
REMARK    2  A    between atoms: N_8  and  C_9
REMARK    3  A    between atoms: N_19  and  C_20
REMARK    4  A    between atoms: C_20  and  C_21
REMARK                            x       y       z     vdW  Elec       q    Type
REMARK                         _______ _______ _______ _____ _____    ______ ____
ROOT
ATOM      1  C   UNL     1      -3.864  16.729  24.083  0.00  0.00    +0.000 C 
ATOM      2  C   UNL     1      -4.598  15.646  23.322  0.00  0.00    +0.000 C 
ATOM      3  O   UNL     1      -5.812  15.546  23.499  0.00  0.00    +0.000 OA
ATOM      4  N   UNL     1      -3.858  14.823  22.479  0.00  0.00    +0.000 N 
ATOM      5  C   UNL     1      -2.401  14.968  22.382  0.00  0.00    +0.000 C 
ATOM      6  C   UNL     1      -1.607  13.755  22.877  0.00  0.00    +0.000 C 
ATOM      7  O   UNL     1      -0.520  13.943  23.420  0.00  0.00    +0.000 OA
ATOM      8  N   UNL     1      -2.127  12.516  22.454  0.00  0.00    +0.000 N 
ATOM      9  C   UNL     1      -3.595  12.390  22.507  0.00  0.00    +0.000 C 
ATOM     10  C   UNL     1      -4.367  13.565  21.831  0.00  0.00    +0.000 C 
ATOM     11  C   UNL     1      -5.887  13.236  21.875  0.00  0.00    +0.000 C 
ATOM     12  C   UNL     1      -6.376  13.270  20.431  0.00  0.00    +0.000 C 
ATOM     13  N   UNL     1      -5.220  12.936  19.595  0.00  0.00    +0.000 NA
ATOM     14  C   UNL     1      -4.095  13.579  20.294  0.00  0.00    +0.000 C 
ENDROOT
BRANCH   8  15
ATOM     15  C   UNL     1      -1.281  11.370  22.203  0.00  0.00    +0.000 A 
ATOM     16  C   UNL     1      -0.966  10.456  23.227  0.00  0.00    +0.000 A 
ATOM     17  C   UNL     1      -0.125   9.356  23.017  0.00  0.00    +0.000 A 
ATOM     18  C   UNL     1       0.461   9.154  21.778  0.00  0.00    +0.000 A 
ATOM     19  C   UNL     1       0.201  10.053  20.753  0.00  0.00    +0.000 A 
ATOM     20  C   UNL     1      -0.663  11.141  20.962  0.00  0.00    +0.000 A 
ENDBRANCH   8  15
BRANCH  13  21
ATOM     21  C   UNL     1      -5.098  11.488  19.388  0.00  0.00    +0.000 C 
BRANCH  21  22
ATOM     22  C   UNL     1      -4.372  11.159  18.123  0.00  0.00    +0.000 A 
ATOM     23  C   UNL     1      -4.674  11.641  16.814  0.00  0.00    +0.000 A 
ATOM     24  C   UNL     1      -3.721  11.118  15.969  0.00  0.00    +0.000 A 
ATOM     25  O   UNL     1      -2.852  10.342  16.664  0.00  0.00    +0.000 OA
ATOM     26  C   UNL     1      -3.245  10.377  17.962  0.00  0.00    +0.000 A 
ENDBRANCH  21  22
ENDBRANCH  13  21
TORSDOF 3
ENDMDL
MODEL 6
REMARK VINA RESULT:      -6.3      8.331     11.719
REMARK  Name = 
REMARK  4 active torsions:
REMARK  status: ('A' for Active; 'I' for Inactive)
REMARK    1  A    between atoms: C_1  and  C_2
REMARK    2  A    between atoms: N_8  and  C_9
REMARK    3  A    between atoms: N_19  and  C_20
REMARK    4  A    between atoms: C_20  and  C_21
REMARK                            x       y       z     vdW  Elec       q    Type
REMARK                         _______ _______ _______ _____ _____    ______ ____
ROOT
ATOM      1  C   UNL     1      -5.107  16.890  24.015  0.00  0.00    +0.000 C 
ATOM      2  C   UNL     1      -5.706  15.717  23.268  0.00  0.00    +0.000 C 
ATOM      3  O   UNL     1      -6.892  15.459  23.470  0.00  0.00    +0.000 OA
ATOM      4  N   UNL     1      -4.881  14.997  22.411  0.00  0.00    +0.000 N 
ATOM      5  C   UNL     1      -3.458  15.334  22.284  0.00  0.00    +0.000 C 
ATOM      6  C   UNL     1      -2.501  14.237  22.762  0.00  0.00    +0.000 C 
ATOM      7  O   UNL     1      -1.437  14.568  23.283  0.00  0.00    +0.000 OA
ATOM      8  N   UNL     1      -2.861  12.939  22.350  0.00  0.00    +0.000 N 
ATOM      9  C   UNL     1      -4.298  12.620  22.433  0.00  0.00    +0.000 C 
ATOM     10  C   UNL     1      -5.232  13.681  21.773  0.00  0.00    +0.000 C 
ATOM     11  C   UNL     1      -6.694  13.154  21.848  0.00  0.00    +0.000 C 
ATOM     12  C   UNL     1      -7.213  13.120  20.414  0.00  0.00    +0.000 C 
ATOM     13  N   UNL     1      -6.040  12.939  19.555  0.00  0.00    +0.000 NA
ATOM     14  C   UNL     1      -4.996  13.727  20.230  0.00  0.00    +0.000 C 
ENDROOT
BRANCH   8  15
ATOM     15  C   UNL     1      -1.876  11.914  22.082  0.00  0.00    +0.000 A 
ATOM     16  C   UNL     1      -1.358  11.110  23.115  0.00  0.00    +0.000 A 
ATOM     17  C   UNL     1      -0.382  10.133  22.886  0.00  0.00    +0.000 A 
ATOM     18  C   UNL     1       0.137   9.951  21.615  0.00  0.00    +0.000 A 
ATOM     19  C   UNL     1      -0.325  10.748  20.576  0.00  0.00    +0.000 A 
ATOM     20  C   UNL     1      -1.322  11.711  20.806  0.00  0.00    +0.000 A 
ENDBRANCH   8  15
BRANCH  13  21
ATOM     21  C   UNL     1      -5.732  11.519  19.345  0.00  0.00    +0.000 C 
BRANCH  21  22
ATOM     22  C   UNL     1      -4.889  11.299  18.130  0.00  0.00    +0.000 A 
ATOM     23  C   UNL     1      -3.808  10.375  17.996  0.00  0.00    +0.000 A 
ATOM     24  C   UNL     1      -3.356  10.479  16.700  0.00  0.00    +0.000 A 
ATOM     25  O   UNL     1      -4.080  11.407  16.023  0.00  0.00    +0.000 OA
ATOM     26  C   UNL     1      -5.006  11.890  16.888  0.00  0.00    +0.000 A 
ENDBRANCH  21  22
ENDBRANCH  13  21
TORSDOF 3
ENDMDL
MODEL 7
REMARK VINA RESULT:      -6.3      4.465      8.095
REMARK  Name = 
REMARK  4 active torsions:
REMARK  status: ('A' for Active; 'I' for Inactive)
REMARK    1  A    between atoms: C_1  and  C_2
REMARK    2  A    between atoms: N_8  and  C_9
REMARK    3  A    between atoms: N_19  and  C_20
REMARK    4  A    between atoms: C_20  and  C_21
REMARK                            x       y       z     vdW  Elec       q    Type
REMARK                         _______ _______ _______ _____ _____    ______ ____
ROOT
ATOM      1  C   UNL     1      -4.240  13.445  22.372  0.00  0.00    +0.000 C 
ATOM      2  C   UNL     1      -3.148  12.416  22.575  0.00  0.00    +0.000 C 
ATOM      3  O   UNL     1      -3.158  11.774  23.625  0.00  0.00    +0.000 OA
ATOM      4  N   UNL     1      -2.197  12.265  21.571  0.00  0.00    +0.000 N 
ATOM      5  C   UNL     1      -2.222  13.123  20.381  0.00  0.00    +0.000 C 
ATOM      6  C   UNL     1      -1.004  14.041  20.233  0.00  0.00    +0.000 C 
ATOM      7  O   UNL     1      -1.160  15.151  19.728  0.00  0.00    +0.000 OA
ATOM      8  N   UNL     1       0.226  13.412  20.507  0.00  0.00    +0.000 N 
ATOM      9  C   UNL     1       0.236  12.512  21.675  0.00  0.00    +0.000 C 
ATOM     10  C   UNL     1      -0.925  11.471  21.695  0.00  0.00    +0.000 C 
ATOM     11  C   UNL     1      -0.717  10.536  22.921  0.00  0.00    +0.000 C 
ATOM     12  C   UNL     1      -0.653   9.115  22.373  0.00  0.00    +0.000 C 
ATOM     13  N   UNL     1      -0.156   9.225  20.998  0.00  0.00    +0.000 NA
ATOM     14  C   UNL     1      -0.776  10.468  20.509  0.00  0.00    +0.000 C 
ENDROOT
BRANCH   8  15
ATOM     15  C   UNL     1       1.451  13.791  19.837  0.00  0.00    +0.000 A 
ATOM     16  C   UNL     1       1.885  13.125  18.676  0.00  0.00    +0.000 A 
ATOM     17  C   UNL     1       3.082  13.453  18.027  0.00  0.00    +0.000 A 
ATOM     18  C   UNL     1       3.906  14.440  18.543  0.00  0.00    +0.000 A 
ATOM     19  C   UNL     1       3.527  15.097  19.706  0.00  0.00    +0.000 A 
ATOM     20  C   UNL     1       2.314  14.781  20.339  0.00  0.00    +0.000 A 
ENDBRANCH   8  15
BRANCH  13  21
ATOM     21  C   UNL     1       1.310   9.179  20.944  0.00  0.00    +0.000 C 
BRANCH  21  22
ATOM     22  C   UNL     1       1.806   8.299  19.842  0.00  0.00    +0.000 A 
ATOM     23  C   UNL     1       2.026   8.676  18.482  0.00  0.00    +0.000 A 
ATOM     24  C   UNL     1       2.527   7.566  17.839  0.00  0.00    +0.000 A 
ATOM     25  O   UNL     1       2.627   6.526  18.706  0.00  0.00    +0.000 OA
ATOM     26  C   UNL     1       2.199   6.978  19.912  0.00  0.00    +0.000 A 
ENDBRANCH  21  22
ENDBRANCH  13  21
TORSDOF 3
ENDMDL
MODEL 8
REMARK VINA RESULT:      -6.3      9.193     11.491
REMARK  Name = 
REMARK  4 active torsions:
REMARK  status: ('A' for Active; 'I' for Inactive)
REMARK    1  A    between atoms: C_1  and  C_2
REMARK    2  A    between atoms: N_8  and  C_9
REMARK    3  A    between atoms: N_19  and  C_20
REMARK    4  A    between atoms: C_20  and  C_21
REMARK                            x       y       z     vdW  Elec       q    Type
REMARK                         _______ _______ _______ _____ _____    ______ ____
ROOT
ATOM      1  C   UNL     1      11.896  16.426  17.268  0.00  0.00    +0.000 C 
ATOM      2  C   UNL     1      11.534  15.100  17.902  0.00  0.00    +0.000 C 
ATOM      3  O   UNL     1      12.199  14.115  17.583  0.00  0.00    +0.000 OA
ATOM      4  N   UNL     1      10.467  15.071  18.795  0.00  0.00    +0.000 N 
ATOM      5  C   UNL     1       9.684  16.282  19.064  0.00  0.00    +0.000 C 
ATOM      6  C   UNL     1       8.219  16.203  18.622  0.00  0.00    +0.000 C 
ATOM      7  O   UNL     1       7.670  17.225  18.214  0.00  0.00    +0.000 OA
ATOM      8  N   UNL     1       7.589  14.984  18.939  0.00  0.00    +0.000 N 
ATOM      9  C   UNL     1       8.395  13.771  18.713  0.00  0.00    +0.000 C 
ATOM     10  C   UNL     1       9.824  13.824  19.337  0.00  0.00    +0.000 C 
ATOM     11  C   UNL     1      10.505  12.444  19.107  0.00  0.00    +0.000 C 
ATOM     12  C   UNL     1      10.899  11.924  20.485  0.00  0.00    +0.000 C 
ATOM     13  N   UNL     1       9.958  12.522  21.436  0.00  0.00    +0.000 NA
ATOM     14  C   UNL     1       9.736  13.872  20.895  0.00  0.00    +0.000 C 
ENDROOT
BRANCH   8  15
ATOM     15  C   UNL     1       6.176  14.904  19.245  0.00  0.00    +0.000 A 
ATOM     16  C   UNL     1       5.215  14.767  18.226  0.00  0.00    +0.000 A 
ATOM     17  C   UNL     1       3.841  14.718  18.495  0.00  0.00    +0.000 A 
ATOM     18  C   UNL     1       3.381  14.840  19.795  0.00  0.00    +0.000 A 
ATOM     19  C   UNL     1       4.298  15.010  20.824  0.00  0.00    +0.000 A 
ATOM     20  C   UNL     1       5.676  15.035  20.552  0.00  0.00    +0.000 A 
ENDBRANCH   8  15
BRANCH  13  21
ATOM     21  C   UNL     1       8.756  11.696  21.606  0.00  0.00    +0.000 C 
BRANCH  21  22
ATOM     22  C   UNL     1       8.002  12.047  22.848  0.00  0.00    +0.000 A 
ATOM     23  C   UNL     1       8.537  12.179  24.165  0.00  0.00    +0.000 A 
ATOM     24  C   UNL     1       7.496  12.558  24.981  0.00  0.00    +0.000 A 
ATOM     25  O   UNL     1       6.350  12.666  24.261  0.00  0.00    +0.000 OA
ATOM     26  C   UNL     1       6.664  12.365  22.976  0.00  0.00    +0.000 A 
ENDBRANCH  21  22
ENDBRANCH  13  21
TORSDOF 3
ENDMDL
MODEL 9
REMARK VINA RESULT:      -6.2      5.132      9.113
REMARK  Name = 
REMARK  4 active torsions:
REMARK  status: ('A' for Active; 'I' for Inactive)
REMARK    1  A    between atoms: C_1  and  C_2
REMARK    2  A    between atoms: N_8  and  C_9
REMARK    3  A    between atoms: N_19  and  C_20
REMARK    4  A    between atoms: C_20  and  C_21
REMARK                            x       y       z     vdW  Elec       q    Type
REMARK                         _______ _______ _______ _____ _____    ______ ____
ROOT
ATOM      1  C   UNL     1       2.069   7.412  20.886  0.00  0.00    +0.000 C 
ATOM      2  C   UNL     1       1.390   8.380  19.942  0.00  0.00    +0.000 C 
ATOM      3  O   UNL     1       1.908   8.562  18.841  0.00  0.00    +0.000 OA
ATOM      4  N   UNL     1       0.230   9.014  20.377  0.00  0.00    +0.000 N 
ATOM      5  C   UNL     1      -0.280   8.790  21.734  0.00  0.00    +0.000 C 
ATOM      6  C   UNL     1      -0.273  10.035  22.629  0.00  0.00    +0.000 C 
ATOM      7  O   UNL     1      -0.063   9.895  23.832  0.00  0.00    +0.000 OA
ATOM      8  N   UNL     1      -0.727  11.204  21.989  0.00  0.00    +0.000 N 
ATOM      9  C   UNL     1      -0.252  11.402  20.608  0.00  0.00    +0.000 C 
ATOM     10  C   UNL     1      -0.443  10.164  19.679  0.00  0.00    +0.000 C 
ATOM     11  C   UNL     1       0.004  10.562  18.243  0.00  0.00    +0.000 C 
ATOM     12  C   UNL     1      -1.191  10.303  17.333  0.00  0.00    +0.000 C 
ATOM     13  N   UNL     1      -2.385  10.438  18.171  0.00  0.00    +0.000 NA
ATOM     14  C   UNL     1      -1.962   9.875  19.464  0.00  0.00    +0.000 C 
ENDROOT
BRANCH   8  15
ATOM     15  C   UNL     1      -1.422  12.253  22.705  0.00  0.00    +0.000 A 
ATOM     16  C   UNL     1      -0.809  13.495  22.957  0.00  0.00    +0.000 A 
ATOM     17  C   UNL     1      -1.449  14.514  23.674  0.00  0.00    +0.000 A 
ATOM     18  C   UNL     1      -2.717  14.309  24.194  0.00  0.00    +0.000 A 
ATOM     19  C   UNL     1      -3.340  13.085  23.994  0.00  0.00    +0.000 A 
ATOM     20  C   UNL     1      -2.704  12.075  23.254  0.00  0.00    +0.000 A 
ENDBRANCH   8  15
BRANCH  13  21
ATOM     21  C   UNL     1      -2.871  11.823  18.207  0.00  0.00    +0.000 C 
BRANCH  21  22
ATOM     22  C   UNL     1      -4.117  11.962  19.022  0.00  0.00    +0.000 A 
ATOM     23  C   UNL     1      -4.277  12.731  20.214  0.00  0.00    +0.000 A 
ATOM     24  C   UNL     1      -5.594  12.607  20.594  0.00  0.00    +0.000 A 
ATOM     25  O   UNL     1      -6.261  11.809  19.720  0.00  0.00    +0.000 OA
ATOM     26  C   UNL     1      -5.367  11.431  18.772  0.00  0.00    +0.000 A 
ENDBRANCH  21  22
ENDBRANCH  13  21
TORSDOF 3
ENDMDL
