MODEL 1
REMARK VINA RESULT:      -7.3      0.000      0.000
REMARK  Name = 
REMARK  5 active torsions:
REMARK  status: ('A' for Active; 'I' for Inactive)
REMARK    1  A    between atoms: C_1  and  N_2
REMARK    2  A    between atoms: N_2  and  C_3
REMARK    3  A    between atoms: C_4  and  C_6
REMARK    4  A    between atoms: C_6  and  N_7
REMARK    5  A    between atoms: N_15  and  C_16
REMARK                            x       y       z     vdW  Elec       q    Type
REMARK                         _______ _______ _______ _____ _____    ______ ____
ROOT
ATOM      1  N   UNL     1       5.967   4.964  16.161  0.00  0.00    +0.000 NA
ATOM      2  C   UNL     1       5.187   6.124  15.642  0.00  0.00    +0.000 C 
ATOM      3  C   UNL     1       5.093   7.346  16.593  0.00  0.00    +0.000 C 
ATOM      4  C   UNL     1       4.091   7.193  17.715  0.00  0.00    +0.000 A 
ATOM      5  N   UNL     1       3.071   8.070  17.758  0.00  0.00    +0.000 NA
ATOM      6  C   UNL     1       2.149   7.869  18.709  0.00  0.00    +0.000 A 
ATOM      7  N   UNL     1       2.127   6.858  19.592  0.00  0.00    +0.000 NA
ATOM      8  C   UNL     1       3.166   6.012  19.553  0.00  0.00    +0.000 A 
ATOM      9  N   UNL     1       3.201   4.899  20.427  0.00  0.00    +0.000 N 
ATOM     10  C   UNL     1       4.213   6.168  18.644  0.00  0.00    +0.000 A 
ATOM     11  C   UNL     1       5.377   5.224  18.570  0.00  0.00    +0.000 C 
ATOM     12  C   UNL     1       5.284   4.351  17.321  0.00  0.00    +0.000 C 
ATOM     13  H   UNL     1       4.045   4.976  20.987  0.00  0.00    +0.000 HD
ENDROOT
BRANCH   9  14
ATOM     14  C   UNL     1       2.099   4.423  21.216  0.00  0.00    +0.000 C 
ATOM     15  C   UNL     1       0.963   3.817  20.370  0.00  0.00    +0.000 C 
ATOM     16  C   UNL     1       1.155   2.469  21.082  0.00  0.00    +0.000 C 
ATOM     17  C   UNL     1       2.420   3.011  21.754  0.00  0.00    +0.000 C 
ENDBRANCH   9  14
BRANCH   1  18
ATOM     18  C   UNL     1       6.155   3.886  15.148  0.00  0.00    +0.000 C 
BRANCH  18  22
ATOM     19  C   UNL     1       5.299   3.206  12.341  0.00  0.00    +0.000 C 
ATOM     20  N   UNL     1       6.559   3.867  12.644  0.00  0.00    +0.000 N 
ATOM     21  C   UNL     1       7.335   4.378  11.526  0.00  0.00    +0.000 C 
ATOM     22  C   UNL     1       6.897   4.356  13.895  0.00  0.00    +0.000 C 
ATOM     23  O   UNL     1       7.816   5.175  14.023  0.00  0.00    +0.000 OA
ENDBRANCH  18  22
ENDBRANCH   1  18
TORSDOF 3
ENDMDL
MODEL 2
REMARK VINA RESULT:      -7.0      3.273      7.640
REMARK  Name = 
REMARK  5 active torsions:
REMARK  status: ('A' for Active; 'I' for Inactive)
REMARK    1  A    between atoms: C_1  and  N_2
REMARK    2  A    between atoms: N_2  and  C_3
REMARK    3  A    between atoms: C_4  and  C_6
REMARK    4  A    between atoms: C_6  and  N_7
REMARK    5  A    between atoms: N_15  and  C_16
REMARK                            x       y       z     vdW  Elec       q    Type
REMARK                         _______ _______ _______ _____ _____    ______ ____
ROOT
ATOM      1  N   UNL     1       2.217   6.921  20.135  0.00  0.00    +0.000 NA
ATOM      2  C   UNL     1       1.301   5.757  20.303  0.00  0.00    +0.000 C 
ATOM      3  C   UNL     1       1.964   4.454  20.825  0.00  0.00    +0.000 C 
ATOM      4  C   UNL     1       2.734   3.680  19.780  0.00  0.00    +0.000 A 
ATOM      5  N   UNL     1       2.318   2.430  19.505  0.00  0.00    +0.000 NA
ATOM      6  C   UNL     1       2.961   1.788  18.520  0.00  0.00    +0.000 A 
ATOM      7  N   UNL     1       3.948   2.289  17.758  0.00  0.00    +0.000 NA
ATOM      8  C   UNL     1       4.368   3.524  18.067  0.00  0.00    +0.000 A 
ATOM      9  N   UNL     1       5.380   4.137  17.290  0.00  0.00    +0.000 N 
ATOM     10  C   UNL     1       3.810   4.254  19.117  0.00  0.00    +0.000 A 
ATOM     11  C   UNL     1       4.252   5.644  19.468  0.00  0.00    +0.000 C 
ATOM     12  C   UNL     1       3.195   6.666  19.056  0.00  0.00    +0.000 C 
ATOM     13  H   UNL     1       6.151   4.359  17.913  0.00  0.00    +0.000 HD
ENDROOT
BRANCH   9  14
ATOM     14  C   UNL     1       5.859   3.663  16.021  0.00  0.00    +0.000 C 
ATOM     15  C   UNL     1       5.227   4.393  14.821  0.00  0.00    +0.000 C 
ATOM     16  C   UNL     1       6.618   4.878  14.385  0.00  0.00    +0.000 C 
ATOM     17  C   UNL     1       7.209   4.342  15.693  0.00  0.00    +0.000 C 
ENDBRANCH   9  14
BRANCH   1  18
ATOM     18  C   UNL     1       1.501   8.181  19.783  0.00  0.00    +0.000 C 
BRANCH  18  22
ATOM     19  C   UNL     1      -0.652  10.287  19.686  0.00  0.00    +0.000 C 
ATOM     20  N   UNL     1       0.162  10.042  20.867  0.00  0.00    +0.000 N 
ATOM     21  C   UNL     1      -0.219  10.721  22.096  0.00  0.00    +0.000 C 
ATOM     22  C   UNL     1       1.025   8.969  21.006  0.00  0.00    +0.000 C 
ATOM     23  O   UNL     1       1.439   8.634  22.124  0.00  0.00    +0.000 OA
ENDBRANCH  18  22
ENDBRANCH   1  18
TORSDOF 3
ENDMDL
MODEL 3
REMARK VINA RESULT:      -6.6      2.352      4.332
REMARK  Name = 
REMARK  5 active torsions:
REMARK  status: ('A' for Active; 'I' for Inactive)
REMARK    1  A    between atoms: C_1  and  N_2
REMARK    2  A    between atoms: N_2  and  C_3
REMARK    3  A    between atoms: C_4  and  C_6
REMARK    4  A    between atoms: C_6  and  N_7
REMARK    5  A    between atoms: N_15  and  C_16
REMARK                            x       y       z     vdW  Elec       q    Type
REMARK                         _______ _______ _______ _____ _____    ______ ____
ROOT
ATOM      1  N   UNL     1       4.189   3.885  16.585  0.00  0.00    +0.000 NA
ATOM      2  C   UNL     1       4.440   2.828  17.605  0.00  0.00    +0.000 C 
ATOM      3  C   UNL     1       3.181   2.295  18.339  0.00  0.00    +0.000 C 
ATOM      4  C   UNL     1       2.659   3.203  19.430  0.00  0.00    +0.000 A 
ATOM      5  N   UNL     1       2.638   2.714  20.683  0.00  0.00    +0.000 NA
ATOM      6  C   UNL     1       2.249   3.559  21.648  0.00  0.00    +0.000 A 
ATOM      7  N   UNL     1       1.922   4.852  21.487  0.00  0.00    +0.000 NA
ATOM      8  C   UNL     1       1.921   5.311  20.227  0.00  0.00    +0.000 A 
ATOM      9  N   UNL     1       1.621   6.672  19.975  0.00  0.00    +0.000 N 
ATOM     10  C   UNL     1       2.247   4.497  19.142  0.00  0.00    +0.000 A 
ATOM     11  C   UNL     1       2.270   4.994  17.727  0.00  0.00    +0.000 C 
ATOM     12  C   UNL     1       3.706   5.127  17.226  0.00  0.00    +0.000 C 
ATOM     13  H   UNL     1       0.815   6.698  19.357  0.00  0.00    +0.000 HD
ENDROOT
BRANCH   9  14
ATOM     14  C   UNL     1       1.546   7.707  20.968  0.00  0.00    +0.000 C 
ATOM     15  C   UNL     1       1.456   9.122  20.366  0.00  0.00    +0.000 C 
ATOM     16  C   UNL     1       0.095   9.324  21.049  0.00  0.00    +0.000 C 
ATOM     17  C   UNL     1       0.086   7.847  21.457  0.00  0.00    +0.000 C 
ENDBRANCH   9  14
BRANCH   1  18
ATOM     18  C   UNL     1       5.408   4.246  15.805  0.00  0.00    +0.000 C 
BRANCH  18  22
ATOM     19  C   UNL     1       7.648   4.676  17.774  0.00  0.00    +0.000 C 
ATOM     20  N   UNL     1       6.877   5.769  17.203  0.00  0.00    +0.000 N 
ATOM     21  C   UNL     1       7.341   7.124  17.460  0.00  0.00    +0.000 C 
ATOM     22  C   UNL     1       5.972   5.622  16.165  0.00  0.00    +0.000 C 
ATOM     23  O   UNL     1       5.593   6.606  15.516  0.00  0.00    +0.000 OA
ENDBRANCH  18  22
ENDBRANCH   1  18
TORSDOF 3
ENDMDL
MODEL 4
REMARK VINA RESULT:      -6.4      2.650      7.240
REMARK  Name = 
REMARK  5 active torsions:
REMARK  status: ('A' for Active; 'I' for Inactive)
REMARK    1  A    between atoms: C_1  and  N_2
REMARK    2  A    between atoms: N_2  and  C_3
REMARK    3  A    between atoms: C_4  and  C_6
REMARK    4  A    between atoms: C_6  and  N_7
REMARK    5  A    between atoms: N_15  and  C_16
REMARK                            x       y       z     vdW  Elec       q    Type
REMARK                         _______ _______ _______ _____ _____    ______ ____
ROOT
ATOM      1  N   UNL     1       2.865   5.359  18.438  0.00  0.00    +0.000 NA
ATOM      2  C   UNL     1       3.862   4.992  19.484  0.00  0.00    +0.000 C 
ATOM      3  C   UNL     1       5.183   5.806  19.464  0.00  0.00    +0.000 C 
ATOM      4  C   UNL     1       6.166   5.380  18.398  0.00  0.00    +0.000 A 
ATOM      5  N   UNL     1       7.366   4.929  18.808  0.00  0.00    +0.000 NA
ATOM      6  C   UNL     1       8.194   4.480  17.856  0.00  0.00    +0.000 A 
ATOM      7  N   UNL     1       7.924   4.400  16.542  0.00  0.00    +0.000 NA
ATOM      8  C   UNL     1       6.736   4.882  16.150  0.00  0.00    +0.000 A 
ATOM      9  N   UNL     1       6.360   4.803  14.788  0.00  0.00    +0.000 N 
ATOM     10  C   UNL     1       5.826   5.432  17.053  0.00  0.00    +0.000 A 
ATOM     11  C   UNL     1       4.484   5.960  16.639  0.00  0.00    +0.000 C 
ATOM     12  C   UNL     1       3.371   5.017  17.091  0.00  0.00    +0.000 C 
ATOM     13  H   UNL     1       6.186   5.750  14.463  0.00  0.00    +0.000 HD
ENDROOT
BRANCH   9  14
ATOM     14  C   UNL     1       7.030   4.027  13.781  0.00  0.00    +0.000 C 
ATOM     15  C   UNL     1       6.086   3.521  12.675  0.00  0.00    +0.000 C 
ATOM     16  C   UNL     1       6.897   4.300  11.629  0.00  0.00    +0.000 C 
ATOM     17  C   UNL     1       7.690   4.973  12.753  0.00  0.00    +0.000 C 
ENDBRANCH   9  14
BRANCH   1  18
ATOM     18  C   UNL     1       1.561   4.656  18.603  0.00  0.00    +0.000 C 
BRANCH  18  22
ATOM     19  C   UNL     1       2.149   1.826  19.453  0.00  0.00    +0.000 C 
ATOM     20  N   UNL     1       1.454   2.778  20.305  0.00  0.00    +0.000 N 
ATOM     21  C   UNL     1       1.208   2.389  21.685  0.00  0.00    +0.000 C 
ATOM     22  C   UNL     1       1.332   4.128  20.021  0.00  0.00    +0.000 C 
ATOM     23  O   UNL     1       1.023   4.933  20.909  0.00  0.00    +0.000 OA
ENDBRANCH  18  22
ENDBRANCH   1  18
TORSDOF 3
ENDMDL
MODEL 5
REMARK VINA RESULT:      -6.4      2.605      4.464
REMARK  Name = 
REMARK  5 active torsions:
REMARK  status: ('A' for Active; 'I' for Inactive)
REMARK    1  A    between atoms: C_1  and  N_2
REMARK    2  A    between atoms: N_2  and  C_3
REMARK    3  A    between atoms: C_4  and  C_6
REMARK    4  A    between atoms: C_6  and  N_7
REMARK    5  A    between atoms: N_15  and  C_16
REMARK                            x       y       z     vdW  Elec       q    Type
REMARK                         _______ _______ _______ _____ _____    ______ ____
ROOT
ATOM      1  N   UNL     1       4.928   4.239  17.099  0.00  0.00    +0.000 NA
ATOM      2  C   UNL     1       4.492   2.935  17.672  0.00  0.00    +0.000 C 
ATOM      3  C   UNL     1       2.963   2.668  17.643  0.00  0.00    +0.000 C 
ATOM      4  C   UNL     1       2.180   3.387  18.719  0.00  0.00    +0.000 A 
ATOM      5  N   UNL     1       1.505   2.629  19.602  0.00  0.00    +0.000 NA
ATOM      6  C   UNL     1       0.884   3.278  20.596  0.00  0.00    +0.000 A 
ATOM      7  N   UNL     1       0.907   4.603  20.815  0.00  0.00    +0.000 NA
ATOM      8  C   UNL     1       1.560   5.343  19.908  0.00  0.00    +0.000 A 
ATOM      9  N   UNL     1       1.662   6.744  20.085  0.00  0.00    +0.000 N 
ATOM     10  C   UNL     1       2.187   4.772  18.799  0.00  0.00    +0.000 A 
ATOM     11  C   UNL     1       2.939   5.579  17.782  0.00  0.00    +0.000 C 
ATOM     12  C   UNL     1       4.443   5.364  17.929  0.00  0.00    +0.000 C 
ATOM     13  H   UNL     1       1.243   7.186  19.271  0.00  0.00    +0.000 HD
ENDROOT
BRANCH   9  14
ATOM     14  C   UNL     1       1.336   7.459  21.287  0.00  0.00    +0.000 C 
ATOM     15  C   UNL     1       1.713   8.951  21.229  0.00  0.00    +0.000 C 
ATOM     16  C   UNL     1       0.237   9.329  21.428  0.00  0.00    +0.000 C 
ATOM     17  C   UNL     1      -0.157   7.858  21.262  0.00  0.00    +0.000 C 
ENDBRANCH   9  14
BRANCH   1  18
ATOM     18  C   UNL     1       6.410   4.373  17.012  0.00  0.00    +0.000 C 
BRANCH  18  22
ATOM     19  C   UNL     1       7.935   5.912  19.105  0.00  0.00    +0.000 C 
ATOM     20  N   UNL     1       7.418   6.527  17.893  0.00  0.00    +0.000 N 
ATOM     21  C   UNL     1       7.823   7.895  17.610  0.00  0.00    +0.000 C 
ATOM     22  C   UNL     1       6.878   5.819  16.832  0.00  0.00    +0.000 C 
ATOM     23  O   UNL     1       6.754   6.348  15.720  0.00  0.00    +0.000 OA
ENDBRANCH  18  22
ENDBRANCH   1  18
TORSDOF 3
ENDMDL
MODEL 6
REMARK VINA RESULT:      -6.2      4.165      6.238
REMARK  Name = 
REMARK  5 active torsions:
REMARK  status: ('A' for Active; 'I' for Inactive)
REMARK    1  A    between atoms: C_1  and  N_2
REMARK    2  A    between atoms: N_2  and  C_3
REMARK    3  A    between atoms: C_4  and  C_6
REMARK    4  A    between atoms: C_6  and  N_7
REMARK    5  A    between atoms: N_15  and  C_16
REMARK                            x       y       z     vdW  Elec       q    Type
REMARK                         _______ _______ _______ _____ _____    ______ ____
ROOT
ATOM      1  N   UNL     1       2.060   5.117  19.931  0.00  0.00    +0.000 NA
ATOM      2  C   UNL     1       2.212   5.538  18.510  0.00  0.00    +0.000 C 
ATOM      3  C   UNL     1       3.024   6.840  18.280  0.00  0.00    +0.000 C 
ATOM      4  C   UNL     1       2.259   8.114  18.561  0.00  0.00    +0.000 A 
ATOM      5  N   UNL     1       2.086   8.970  17.537  0.00  0.00    +0.000 NA
ATOM      6  C   UNL     1       1.337  10.053  17.783  0.00  0.00    +0.000 A 
ATOM      7  N   UNL     1       0.713  10.342  18.937  0.00  0.00    +0.000 NA
ATOM      8  C   UNL     1       0.922   9.493  19.953  0.00  0.00    +0.000 A 
ATOM      9  N   UNL     1       0.272   9.707  21.192  0.00  0.00    +0.000 N 
ATOM     10  C   UNL     1       1.737   8.368  19.822  0.00  0.00    +0.000 A 
ATOM     11  C   UNL     1       1.970   7.396  20.940  0.00  0.00    +0.000 C 
ATOM     12  C   UNL     1       1.229   6.086  20.678  0.00  0.00    +0.000 C 
ATOM     13  H   UNL     1       0.993   9.803  21.903  0.00  0.00    +0.000 HD
ENDROOT
BRANCH   9  14
ATOM     14  C   UNL     1      -0.806  10.628  21.421  0.00  0.00    +0.000 C 
ATOM     15  C   UNL     1      -1.211  10.735  22.903  0.00  0.00    +0.000 C 
ATOM     16  C   UNL     1      -0.854  12.229  22.891  0.00  0.00    +0.000 C 
ATOM     17  C   UNL     1      -0.248  12.068  21.494  0.00  0.00    +0.000 C 
ENDBRANCH   9  14
BRANCH   1  18
ATOM     18  C   UNL     1       1.409   3.784  20.079  0.00  0.00    +0.000 C 
BRANCH  18  22
ATOM     19  C   UNL     1       4.070   2.402  20.383  0.00  0.00    +0.000 C 
ATOM     20  N   UNL     1       3.242   2.270  19.194  0.00  0.00    +0.000 N 
ATOM     21  C   UNL     1       3.642   1.283  18.204  0.00  0.00    +0.000 C 
ATOM     22  C   UNL     1       1.942   2.738  19.097  0.00  0.00    +0.000 C 
ATOM     23  O   UNL     1       1.189   2.326  18.205  0.00  0.00    +0.000 OA
ENDBRANCH  18  22
ENDBRANCH   1  18
TORSDOF 3
ENDMDL
MODEL 7
REMARK VINA RESULT:      -6.1      2.998      7.210
REMARK  Name = 
REMARK  5 active torsions:
REMARK  status: ('A' for Active; 'I' for Inactive)
REMARK    1  A    between atoms: C_1  and  N_2
REMARK    2  A    between atoms: N_2  and  C_3
REMARK    3  A    between atoms: C_4  and  C_6
REMARK    4  A    between atoms: C_6  and  N_7
REMARK    5  A    between atoms: N_15  and  C_16
REMARK                            x       y       z     vdW  Elec       q    Type
REMARK                         _______ _______ _______ _____ _____    ______ ____
ROOT
ATOM      1  N   UNL     1       4.345   3.484  18.526  0.00  0.00    +0.000 NA
ATOM      2  C   UNL     1       5.627   4.158  18.878  0.00  0.00    +0.000 C 
ATOM      3  C   UNL     1       5.829   5.571  18.270  0.00  0.00    +0.000 C 
ATOM      4  C   UNL     1       6.242   5.576  16.815  0.00  0.00    +0.000 A 
ATOM      5  N   UNL     1       7.430   6.131  16.512  0.00  0.00    +0.000 NA
ATOM      6  C   UNL     1       7.817   6.054  15.231  0.00  0.00    +0.000 A 
ATOM      7  N   UNL     1       7.153   5.441  14.237  0.00  0.00    +0.000 NA
ATOM      8  C   UNL     1       5.958   4.921  14.553  0.00  0.00    +0.000 A 
ATOM      9  N   UNL     1       5.211   4.228  13.571  0.00  0.00    +0.000 N 
ATOM     10  C   UNL     1       5.433   5.004  15.844  0.00  0.00    +0.000 A 
ATOM     11  C   UNL     1       4.108   4.413  16.224  0.00  0.00    +0.000 C 
ATOM     12  C   UNL     1       4.301   3.165  17.083  0.00  0.00    +0.000 C 
ATOM     13  H   UNL     1       4.317   4.702  13.476  0.00  0.00    +0.000 HD
ENDROOT
BRANCH   9  14
ATOM     14  C   UNL     1       5.708   3.800  12.293  0.00  0.00    +0.000 C 
ATOM     15  C   UNL     1       6.416   2.433  12.342  0.00  0.00    +0.000 C 
ATOM     16  C   UNL     1       5.384   1.865  11.356  0.00  0.00    +0.000 C 
ATOM     17  C   UNL     1       4.562   3.151  11.484  0.00  0.00    +0.000 C 
ENDBRANCH   9  14
BRANCH   1  18
ATOM     18  C   UNL     1       4.138   2.203  19.260  0.00  0.00    +0.000 C 
BRANCH  18  22
ATOM     19  C   UNL     1       1.142   2.513  19.182  0.00  0.00    +0.000 C 
ATOM     20  N   UNL     1       1.921   2.670  20.400  0.00  0.00    +0.000 N 
ATOM     21  C   UNL     1       1.191   2.795  21.652  0.00  0.00    +0.000 C 
ATOM     22  C   UNL     1       3.266   2.355  20.508  0.00  0.00    +0.000 C 
ATOM     23  O   UNL     1       3.789   2.203  21.619  0.00  0.00    +0.000 OA
ENDBRANCH  18  22
ENDBRANCH   1  18
TORSDOF 3
ENDMDL
MODEL 8
REMARK VINA RESULT:      -6.0      2.059      3.607
REMARK  Name = 
REMARK  5 active torsions:
REMARK  status: ('A' for Active; 'I' for Inactive)
REMARK    1  A    between atoms: C_1  and  N_2
REMARK    2  A    between atoms: N_2  and  C_3
REMARK    3  A    between atoms: C_4  and  C_6
REMARK    4  A    between atoms: C_6  and  N_7
REMARK    5  A    between atoms: N_15  and  C_16
REMARK                            x       y       z     vdW  Elec       q    Type
REMARK                         _______ _______ _______ _____ _____    ______ ____
ROOT
ATOM      1  N   UNL     1       5.081   4.490  17.073  0.00  0.00    +0.000 NA
ATOM      2  C   UNL     1       4.517   3.221  17.613  0.00  0.00    +0.000 C 
ATOM      3  C   UNL     1       2.973   3.088  17.533  0.00  0.00    +0.000 C 
ATOM      4  C   UNL     1       2.221   3.858  18.595  0.00  0.00    +0.000 A 
ATOM      5  N   UNL     1       1.455   3.150  19.446  0.00  0.00    +0.000 NA
ATOM      6  C   UNL     1       0.861   3.839  20.430  0.00  0.00    +0.000 A 
ATOM      7  N   UNL     1       0.991   5.154  20.669  0.00  0.00    +0.000 NA
ATOM      8  C   UNL     1       1.734   5.846  19.794  0.00  0.00    +0.000 A 
ATOM      9  N   UNL     1       1.950   7.230  19.995  0.00  0.00    +0.000 N 
ATOM     10  C   UNL     1       2.344   5.237  18.697  0.00  0.00    +0.000 A 
ATOM     11  C   UNL     1       3.194   5.988  17.715  0.00  0.00    +0.000 C 
ATOM     12  C   UNL     1       4.669   5.642  17.905  0.00  0.00    +0.000 C 
ATOM     13  H   UNL     1       1.595   7.717  19.175  0.00  0.00    +0.000 HD
ENDROOT
BRANCH   9  14
ATOM     14  C   UNL     1       1.648   7.956  21.197  0.00  0.00    +0.000 C 
ATOM     15  C   UNL     1       1.581   9.480  20.988  0.00  0.00    +0.000 C 
ATOM     16  C   UNL     1       0.115   9.477  21.445  0.00  0.00    +0.000 C 
ATOM     17  C   UNL     1       0.121   7.945  21.437  0.00  0.00    +0.000 C 
ENDBRANCH   9  14
BRANCH   1  18
ATOM     18  C   UNL     1       6.572   4.496  17.033  0.00  0.00    +0.000 C 
BRANCH  18  22
ATOM     19  C   UNL     1       6.229   3.660  14.159  0.00  0.00    +0.000 C 
ATOM     20  N   UNL     1       7.103   4.750  14.566  0.00  0.00    +0.000 N 
ATOM     21  C   UNL     1       7.679   5.575  13.516  0.00  0.00    +0.000 C 
ATOM     22  C   UNL     1       7.142   5.276  15.846  0.00  0.00    +0.000 C 
ATOM     23  O   UNL     1       7.651   6.385  16.056  0.00  0.00    +0.000 OA
ENDBRANCH  18  22
ENDBRANCH   1  18
TORSDOF 3
ENDMDL
MODEL 9
REMARK VINA RESULT:      -6.0      2.765      7.209
REMARK  Name = 
REMARK  5 active torsions:
REMARK  status: ('A' for Active; 'I' for Inactive)
REMARK    1  A    between atoms: C_1  and  N_2
REMARK    2  A    between atoms: N_2  and  C_3
REMARK    3  A    between atoms: C_4  and  C_6
REMARK    4  A    between atoms: C_6  and  N_7
REMARK    5  A    between atoms: N_15  and  C_16
REMARK                            x       y       z     vdW  Elec       q    Type
REMARK                         _______ _______ _______ _____ _____    ______ ____
ROOT
ATOM      1  N   UNL     1       2.460   8.146  18.482  0.00  0.00    +0.000 NA
ATOM      2  C   UNL     1       1.743   7.056  19.203  0.00  0.00    +0.000 C 
ATOM      3  C   UNL     1       2.635   6.124  20.064  0.00  0.00    +0.000 C 
ATOM      4  C   UNL     1       3.398   5.082  19.276  0.00  0.00    +0.000 A 
ATOM      5  N   UNL     1       3.139   3.790  19.548  0.00  0.00    +0.000 NA
ATOM      6  C   UNL     1       3.763   2.881  18.785  0.00  0.00    +0.000 A 
ATOM      7  N   UNL     1       4.585   3.140  17.755  0.00  0.00    +0.000 NA
ATOM      8  C   UNL     1       4.853   4.432  17.519  0.00  0.00    +0.000 A 
ATOM      9  N   UNL     1       5.682   4.791  16.429  0.00  0.00    +0.000 N 
ATOM     10  C   UNL     1       4.307   5.455  18.296  0.00  0.00    +0.000 A 
ATOM     11  C   UNL     1       4.579   6.908  18.038  0.00  0.00    +0.000 C 
ATOM     12  C   UNL     1       3.349   7.588  17.441  0.00  0.00    +0.000 C 
ATOM     13  H   UNL     1       6.473   5.307  16.804  0.00  0.00    +0.000 HD
ENDROOT
BRANCH   9  14
ATOM     14  C   UNL     1       6.092   3.912  15.369  0.00  0.00    +0.000 C 
ATOM     15  C   UNL     1       5.236   4.053  14.097  0.00  0.00    +0.000 C 
ATOM     16  C   UNL     1       6.485   4.466  13.304  0.00  0.00    +0.000 C 
ATOM     17  C   UNL     1       7.282   4.541  14.610  0.00  0.00    +0.000 C 
ENDBRANCH   9  14
BRANCH   1  18
ATOM     18  C   UNL     1       1.539   9.100  17.801  0.00  0.00    +0.000 C 
BRANCH  18  22
ATOM     19  C   UNL     1      -0.196  10.050  20.073  0.00  0.00    +0.000 C 
ATOM     20  N   UNL     1       0.655  10.943  19.303  0.00  0.00    +0.000 N 
ATOM     21  C   UNL     1       0.802  12.308  19.782  0.00  0.00    +0.000 C 
ATOM     22  C   UNL     1       1.596  10.515  18.381  0.00  0.00    +0.000 C 
ATOM     23  O   UNL     1       2.496  11.276  18.001  0.00  0.00    +0.000 OA
ENDBRANCH  18  22
ENDBRANCH   1  18
TORSDOF 3
ENDMDL
