MODEL 1
REMARK VINA RESULT:      -7.6      0.000      0.000
REMARK  Name = 
REMARK  7 active torsions:
REMARK  status: ('A' for Active; 'I' for Inactive)
REMARK    1  A    between atoms: C_1  and  C_2
REMARK    2  A    between atoms: C_2  and  C_3
REMARK    3  A    between atoms: C_3  and  C_4
REMARK    4  A    between atoms: C_4  and  C_5
REMARK    5  A    between atoms: C_5  and  N_6
REMARK    6  A    between atoms: C_10  and  N_11
REMARK    7  A    between atoms: N_11  and  C_12
REMARK                            x       y       z     vdW  Elec       q    Type
REMARK                         _______ _______ _______ _____ _____    ______ ____
ROOT
ATOM      1  N   UNL     1       5.343   5.963  17.633  0.00  0.00    +0.000 N 
ATOM      2  C   UNL     1       5.832   5.016  18.533  0.00  0.00    +0.000 C 
ATOM      3  O   UNL     1       6.979   4.573  18.537  0.00  0.00    +0.000 OA
ATOM      4  C   UNL     1       4.782   4.438  19.385  0.00  0.00    +0.000 C 
ATOM      5  C   UNL     1       4.673   3.099  19.404  0.00  0.00    +0.000 C 
ATOM      6  C   UNL     1       3.696   5.276  19.900  0.00  0.00    +0.000 C 
ATOM      7  O   UNL     1       3.015   4.986  20.877  0.00  0.00    +0.000 OA
ATOM      8  C   UNL     1       3.421   6.481  19.101  0.00  0.00    +0.000 A 
ATOM      9  C   UNL     1       2.297   7.244  19.449  0.00  0.00    +0.000 A 
ATOM     10  C   UNL     1       1.946   8.339  18.669  0.00  0.00    +0.000 A 
ATOM     11 CL   UNL     1       0.542   9.248  19.052  0.00  0.00    +0.000 Cl
ATOM     12  C   UNL     1       2.725   8.687  17.571  0.00  0.00    +0.000 A 
ATOM     13  C   UNL     1       3.857   7.924  17.236  0.00  0.00    +0.000 A 
ATOM     14  C   UNL     1       4.207   6.784  17.975  0.00  0.00    +0.000 A 
ENDROOT
BRANCH   5  15
ATOM     15  N   UNL     1       3.635   2.359  19.916  0.00  0.00    +0.000 N 
ATOM     16  H   UNL     1       3.630   2.279  20.938  0.00  0.00    +0.000 HD
BRANCH  15  17
ATOM     17  C   UNL     1       2.585   1.671  19.185  0.00  0.00    +0.000 C 
ATOM     18  C   UNL     1       1.225   2.124  19.728  0.00  0.00    +0.000 C 
ATOM     19  C   UNL     1       0.878   3.563  19.339  0.00  0.00    +0.000 C 
ATOM     20  C   UNL     1       0.977   3.782  17.833  0.00  0.00    +0.000 C 
ATOM     21  C   UNL     1       2.341   3.370  17.287  0.00  0.00    +0.000 C 
ATOM     22  C   UNL     1       2.698   1.934  17.677  0.00  0.00    +0.000 C 
ENDBRANCH  15  17
ENDBRANCH   5  15
BRANCH   1  23
ATOM     23  C   UNL     1       6.047   6.137  16.355  0.00  0.00    +0.000 C 
BRANCH  23  24
ATOM     24  C   UNL     1       5.413   5.414  15.143  0.00  0.00    +0.000 C 
BRANCH  24  25
ATOM     25  C   UNL     1       6.096   4.107  14.722  0.00  0.00    +0.000 C 
BRANCH  25  27
ATOM     26  C   UNL     1       5.829   3.306  12.347  0.00  0.00    +0.000 C 
ATOM     27  C   UNL     1       6.655   4.153  13.301  0.00  0.00    +0.000 C 
ENDBRANCH  25  27
ENDBRANCH  24  25
ENDBRANCH  23  24
ENDBRANCH   1  23
TORSDOF 6
ENDMDL
MODEL 2
REMARK VINA RESULT:      -7.5      3.210      4.920
REMARK  Name = 
REMARK  7 active torsions:
REMARK  status: ('A' for Active; 'I' for Inactive)
REMARK    1  A    between atoms: C_1  and  C_2
REMARK    2  A    between atoms: C_2  and  C_3
REMARK    3  A    between atoms: C_3  and  C_4
REMARK    4  A    between atoms: C_4  and  C_5
REMARK    5  A    between atoms: C_5  and  N_6
REMARK    6  A    between atoms: C_10  and  N_11
REMARK    7  A    between atoms: N_11  and  C_12
REMARK                            x       y       z     vdW  Elec       q    Type
REMARK                         _______ _______ _______ _____ _____    ______ ____
ROOT
ATOM      1  N   UNL     1       6.430   5.653  17.526  0.00  0.00    +0.000 N 
ATOM      2  C   UNL     1       5.355   5.596  18.414  0.00  0.00    +0.000 C 
ATOM      3  O   UNL     1       5.178   6.363  19.359  0.00  0.00    +0.000 OA
ATOM      4  C   UNL     1       4.524   4.397  18.232  0.00  0.00    +0.000 C 
ATOM      5  C   UNL     1       4.310   3.627  19.313  0.00  0.00    +0.000 C 
ATOM      6  C   UNL     1       4.244   3.881  16.890  0.00  0.00    +0.000 C 
ATOM      7  O   UNL     1       3.300   3.146  16.624  0.00  0.00    +0.000 OA
ATOM      8  C   UNL     1       5.240   4.253  15.872  0.00  0.00    +0.000 A 
ATOM      9  C   UNL     1       5.117   3.667  14.603  0.00  0.00    +0.000 A 
ATOM     10  C   UNL     1       6.084   3.917  13.638  0.00  0.00    +0.000 A 
ATOM     11 CL   UNL     1       5.974   3.163  12.100  0.00  0.00    +0.000 Cl
ATOM     12  C   UNL     1       7.146   4.767  13.924  0.00  0.00    +0.000 A 
ATOM     13  C   UNL     1       7.257   5.360  15.194  0.00  0.00    +0.000 A 
ATOM     14  C   UNL     1       6.323   5.086  16.205  0.00  0.00    +0.000 A 
ENDROOT
BRANCH   5  15
ATOM     15  N   UNL     1       3.787   2.357  19.335  0.00  0.00    +0.000 N 
ATOM     16  H   UNL     1       4.299   1.673  18.769  0.00  0.00    +0.000 HD
BRANCH  15  17
ATOM     17  C   UNL     1       2.600   1.895  20.033  0.00  0.00    +0.000 C 
ATOM     18  C   UNL     1       2.502   2.625  21.378  0.00  0.00    +0.000 C 
ATOM     19  C   UNL     1       2.128   4.101  21.229  0.00  0.00    +0.000 C 
ATOM     20  C   UNL     1       0.858   4.283  20.404  0.00  0.00    +0.000 C 
ATOM     21  C   UNL     1       0.958   3.592  19.047  0.00  0.00    +0.000 C 
ATOM     22  C   UNL     1       1.339   2.117  19.187  0.00  0.00    +0.000 C 
ENDBRANCH  15  17
ENDBRANCH   5  15
BRANCH   1  23
ATOM     23  C   UNL     1       7.650   6.351  17.956  0.00  0.00    +0.000 C 
BRANCH  23  24
ATOM     24  C   UNL     1       7.737   7.844  17.558  0.00  0.00    +0.000 C 
BRANCH  24  25
ATOM     25  C   UNL     1       8.522   8.741  18.523  0.00  0.00    +0.000 C 
BRANCH  25  27
ATOM     26  C   UNL     1       9.829  10.892  18.390  0.00  0.00    +0.000 C 
ATOM     27  C   UNL     1       8.492  10.216  18.129  0.00  0.00    +0.000 C 
ENDBRANCH  25  27
ENDBRANCH  24  25
ENDBRANCH  23  24
ENDBRANCH   1  23
TORSDOF 6
ENDMDL
MODEL 3
REMARK VINA RESULT:      -6.9      1.522      2.677
REMARK  Name = 
REMARK  7 active torsions:
REMARK  status: ('A' for Active; 'I' for Inactive)
REMARK    1  A    between atoms: C_1  and  C_2
REMARK    2  A    between atoms: C_2  and  C_3
REMARK    3  A    between atoms: C_3  and  C_4
REMARK    4  A    between atoms: C_4  and  C_5
REMARK    5  A    between atoms: C_5  and  N_6
REMARK    6  A    between atoms: C_10  and  N_11
REMARK    7  A    between atoms: N_11  and  C_12
REMARK                            x       y       z     vdW  Elec       q    Type
REMARK                         _______ _______ _______ _____ _____    ______ ____
ROOT
ATOM      1  N   UNL     1       5.325   6.067  17.942  0.00  0.00    +0.000 N 
ATOM      2  C   UNL     1       5.734   5.104  18.864  0.00  0.00    +0.000 C 
ATOM      3  O   UNL     1       6.880   4.669  18.970  0.00  0.00    +0.000 OA
ATOM      4  C   UNL     1       4.612   4.498  19.597  0.00  0.00    +0.000 C 
ATOM      5  C   UNL     1       4.515   3.158  19.576  0.00  0.00    +0.000 C 
ATOM      6  C   UNL     1       3.473   5.315  20.022  0.00  0.00    +0.000 C 
ATOM      7  O   UNL     1       2.703   4.998  20.922  0.00  0.00    +0.000 OA
ATOM      8  C   UNL     1       3.265   6.536  19.227  0.00  0.00    +0.000 A 
ATOM      9  C   UNL     1       2.105   7.282  19.480  0.00  0.00    +0.000 A 
ATOM     10  C   UNL     1       1.820   8.392  18.694  0.00  0.00    +0.000 A 
ATOM     11 CL   UNL     1       0.376   9.282  18.959  0.00  0.00    +0.000 Cl
ATOM     12  C   UNL     1       2.699   8.771  17.686  0.00  0.00    +0.000 A 
ATOM     13  C   UNL     1       3.866   8.025  17.445  0.00  0.00    +0.000 A 
ATOM     14  C   UNL     1       4.154   6.871  18.189  0.00  0.00    +0.000 A 
ENDROOT
BRANCH   5  15
ATOM     15  N   UNL     1       3.439   2.399  19.968  0.00  0.00    +0.000 N 
ATOM     16  H   UNL     1       3.338   2.293  20.983  0.00  0.00    +0.000 HD
BRANCH  15  17
ATOM     17  C   UNL     1       2.470   1.723  19.123  0.00  0.00    +0.000 C 
ATOM     18  C   UNL     1       1.067   2.225  19.482  0.00  0.00    +0.000 C 
ATOM     19  C   UNL     1       0.814   3.663  19.025  0.00  0.00    +0.000 C 
ATOM     20  C   UNL     1       1.108   3.846  17.539  0.00  0.00    +0.000 C 
ATOM     21  C   UNL     1       2.517   3.384  17.178  0.00  0.00    +0.000 C 
ATOM     22  C   UNL     1       2.779   1.949  17.637  0.00  0.00    +0.000 C 
ENDBRANCH  15  17
ENDBRANCH   5  15
BRANCH   1  23
ATOM     23  C   UNL     1       6.149   6.276  16.742  0.00  0.00    +0.000 C 
BRANCH  23  24
ATOM     24  C   UNL     1       7.533   6.920  16.991  0.00  0.00    +0.000 C 
BRANCH  24  25
ATOM     25  C   UNL     1       7.507   8.363  17.510  0.00  0.00    +0.000 C 
BRANCH  25  27
ATOM     26  C   UNL     1       8.942  10.131  18.591  0.00  0.00    +0.000 C 
ATOM     27  C   UNL     1       8.599   8.650  18.539  0.00  0.00    +0.000 C 
ENDBRANCH  25  27
ENDBRANCH  24  25
ENDBRANCH  23  24
ENDBRANCH   1  23
TORSDOF 6
ENDMDL
MODEL 4
REMARK VINA RESULT:      -6.7      4.449      6.859
REMARK  Name = 
REMARK  7 active torsions:
REMARK  status: ('A' for Active; 'I' for Inactive)
REMARK    1  A    between atoms: C_1  and  C_2
REMARK    2  A    between atoms: C_2  and  C_3
REMARK    3  A    between atoms: C_3  and  C_4
REMARK    4  A    between atoms: C_4  and  C_5
REMARK    5  A    between atoms: C_5  and  N_6
REMARK    6  A    between atoms: C_10  and  N_11
REMARK    7  A    between atoms: N_11  and  C_12
REMARK                            x       y       z     vdW  Elec       q    Type
REMARK                         _______ _______ _______ _____ _____    ______ ____
ROOT
ATOM      1  N   UNL     1      -0.100  10.382  18.583  0.00  0.00    +0.000 N 
ATOM      2  C   UNL     1       1.144   9.755  18.522  0.00  0.00    +0.000 C 
ATOM      3  O   UNL     1       1.862   9.705  17.524  0.00  0.00    +0.000 OA
ATOM      4  C   UNL     1       1.455   8.978  19.731  0.00  0.00    +0.000 C 
ATOM      5  C   UNL     1       1.786   7.687  19.565  0.00  0.00    +0.000 C 
ATOM      6  C   UNL     1       1.081   9.481  21.056  0.00  0.00    +0.000 C 
ATOM      7  O   UNL     1       1.603   9.108  22.100  0.00  0.00    +0.000 OA
ATOM      8  C   UNL     1      -0.044  10.431  21.054  0.00  0.00    +0.000 A 
ATOM      9  C   UNL     1      -0.552  10.831  22.298  0.00  0.00    +0.000 A 
ATOM     10  C   UNL     1      -1.670  11.656  22.346  0.00  0.00    +0.000 A 
ATOM     11 CL   UNL     1      -2.335  12.109  23.862  0.00  0.00    +0.000 Cl
ATOM     12  C   UNL     1      -2.255  12.100  21.166  0.00  0.00    +0.000 A 
ATOM     13  C   UNL     1      -1.732  11.704  19.923  0.00  0.00    +0.000 A 
ATOM     14  C   UNL     1      -0.636  10.832  19.843  0.00  0.00    +0.000 A 
ENDROOT
BRANCH   5  15
ATOM     15  N   UNL     1       1.873   6.721  20.539  0.00  0.00    +0.000 N 
ATOM     16  H   UNL     1       1.291   6.893  21.364  0.00  0.00    +0.000 HD
BRANCH  15  17
ATOM     17  C   UNL     1       2.700   5.527  20.537  0.00  0.00    +0.000 C 
ATOM     18  C   UNL     1       1.883   4.359  21.101  0.00  0.00    +0.000 C 
ATOM     19  C   UNL     1       0.785   3.885  20.147  0.00  0.00    +0.000 C 
ATOM     20  C   UNL     1       1.338   3.560  18.763  0.00  0.00    +0.000 C 
ATOM     21  C   UNL     1       2.122   4.730  18.176  0.00  0.00    +0.000 C 
ATOM     22  C   UNL     1       3.218   5.214  19.127  0.00  0.00    +0.000 C 
ENDBRANCH  15  17
ENDBRANCH   5  15
BRANCH   1  23
ATOM     23  C   UNL     1      -0.822  10.618  17.324  0.00  0.00    +0.000 C 
BRANCH  23  24
ATOM     24  C   UNL     1      -2.055   9.713  17.086  0.00  0.00    +0.000 C 
BRANCH  24  25
ATOM     25  C   UNL     1      -2.837   9.987  15.795  0.00  0.00    +0.000 C 
BRANCH  25  27
ATOM     26  C   UNL     1      -4.559  11.016  17.322  0.00  0.00    +0.000 C 
ATOM     27  C   UNL     1      -3.894  11.078  15.955  0.00  0.00    +0.000 C 
ENDBRANCH  25  27
ENDBRANCH  24  25
ENDBRANCH  23  24
ENDBRANCH   1  23
TORSDOF 6
ENDMDL
MODEL 5
REMARK VINA RESULT:      -6.7      3.712      7.041
REMARK  Name = 
REMARK  7 active torsions:
REMARK  status: ('A' for Active; 'I' for Inactive)
REMARK    1  A    between atoms: C_1  and  C_2
REMARK    2  A    between atoms: C_2  and  C_3
REMARK    3  A    between atoms: C_3  and  C_4
REMARK    4  A    between atoms: C_4  and  C_5
REMARK    5  A    between atoms: C_5  and  N_6
REMARK    6  A    between atoms: C_10  and  N_11
REMARK    7  A    between atoms: N_11  and  C_12
REMARK                            x       y       z     vdW  Elec       q    Type
REMARK                         _______ _______ _______ _____ _____    ______ ____
ROOT
ATOM      1  N   UNL     1       2.101   6.688  20.127  0.00  0.00    +0.000 N 
ATOM      2  C   UNL     1       1.639   7.942  20.524  0.00  0.00    +0.000 C 
ATOM      3  O   UNL     1       1.295   8.240  21.667  0.00  0.00    +0.000 OA
ATOM      4  C   UNL     1       1.416   8.856  19.393  0.00  0.00    +0.000 C 
ATOM      5  C   UNL     1       0.203   9.423  19.290  0.00  0.00    +0.000 C 
ATOM      6  C   UNL     1       2.337   8.868  18.253  0.00  0.00    +0.000 C 
ATOM      7  O   UNL     1       2.447   9.808  17.474  0.00  0.00    +0.000 OA
ATOM      8  C   UNL     1       3.085   7.616  18.058  0.00  0.00    +0.000 A 
ATOM      9  C   UNL     1       3.867   7.505  16.899  0.00  0.00    +0.000 A 
ATOM     10  C   UNL     1       4.520   6.309  16.626  0.00  0.00    +0.000 A 
ATOM     11 CL   UNL     1       5.435   6.142  15.184  0.00  0.00    +0.000 Cl
ATOM     12  C   UNL     1       4.418   5.245  17.515  0.00  0.00    +0.000 A 
ATOM     13  C   UNL     1       3.642   5.368  18.681  0.00  0.00    +0.000 A 
ATOM     14  C   UNL     1       2.932   6.545  18.957  0.00  0.00    +0.000 A 
ENDROOT
BRANCH   5  15
ATOM     15  N   UNL     1      -0.307  10.099  18.208  0.00  0.00    +0.000 N 
ATOM     16  H   UNL     1      -0.549   9.505  17.408  0.00  0.00    +0.000 HD
BRANCH  15  17
ATOM     17  C   UNL     1      -0.511  11.530  18.067  0.00  0.00    +0.000 C 
ATOM     18  C   UNL     1      -1.896  11.775  17.457  0.00  0.00    +0.000 C 
ATOM     19  C   UNL     1      -3.037  11.470  18.430  0.00  0.00    +0.000 C 
ATOM     20  C   UNL     1      -2.871  12.216  19.750  0.00  0.00    +0.000 C 
ATOM     21  C   UNL     1      -1.509  11.949  20.385  0.00  0.00    +0.000 C 
ATOM     22  C   UNL     1      -0.363  12.245  19.416  0.00  0.00    +0.000 C 
ENDBRANCH  15  17
ENDBRANCH   5  15
BRANCH   1  23
ATOM     23  C   UNL     1       1.762   5.526  20.963  0.00  0.00    +0.000 C 
BRANCH  23  24
ATOM     24  C   UNL     1       0.744   4.539  20.345  0.00  0.00    +0.000 C 
BRANCH  24  25
ATOM     25  C   UNL     1       1.198   3.075  20.280  0.00  0.00    +0.000 C 
BRANCH  25  27
ATOM     26  C   UNL     1       2.142   2.174  18.124  0.00  0.00    +0.000 C 
ATOM     27  C   UNL     1       0.883   2.408  18.943  0.00  0.00    +0.000 C 
ENDBRANCH  25  27
ENDBRANCH  24  25
ENDBRANCH  23  24
ENDBRANCH   1  23
TORSDOF 6
ENDMDL
MODEL 6
REMARK VINA RESULT:      -6.6      7.209     10.056
REMARK  Name = 
REMARK  7 active torsions:
REMARK  status: ('A' for Active; 'I' for Inactive)
REMARK    1  A    between atoms: C_1  and  C_2
REMARK    2  A    between atoms: C_2  and  C_3
REMARK    3  A    between atoms: C_3  and  C_4
REMARK    4  A    between atoms: C_4  and  C_5
REMARK    5  A    between atoms: C_5  and  N_6
REMARK    6  A    between atoms: C_10  and  N_11
REMARK    7  A    between atoms: N_11  and  C_12
REMARK                            x       y       z     vdW  Elec       q    Type
REMARK                         _______ _______ _______ _____ _____    ______ ____
ROOT
ATOM      1  N   UNL     1      -0.189  10.740  20.122  0.00  0.00    +0.000 N 
ATOM      2  C   UNL     1      -0.254  11.690  21.141  0.00  0.00    +0.000 C 
ATOM      3  O   UNL     1       0.691  12.031  21.851  0.00  0.00    +0.000 OA
ATOM      4  C   UNL     1      -1.627  12.133  21.426  0.00  0.00    +0.000 C 
ATOM      5  C   UNL     1      -2.054  12.038  22.696  0.00  0.00    +0.000 C 
ATOM      6  C   UNL     1      -2.588  12.327  20.336  0.00  0.00    +0.000 C 
ATOM      7  O   UNL     1      -3.594  13.021  20.429  0.00  0.00    +0.000 OA
ATOM      8  C   UNL     1      -2.297  11.554  19.118  0.00  0.00    +0.000 A 
ATOM      9  C   UNL     1      -3.256  11.574  18.096  0.00  0.00    +0.000 A 
ATOM     10  C   UNL     1      -3.067  10.789  16.965  0.00  0.00    +0.000 A 
ATOM     11 CL   UNL     1      -4.260  10.762  15.732  0.00  0.00    +0.000 Cl
ATOM     12  C   UNL     1      -1.919  10.015  16.843  0.00  0.00    +0.000 A 
ATOM     13  C   UNL     1      -0.956  10.009  17.867  0.00  0.00    +0.000 A 
ATOM     14  C   UNL     1      -1.143  10.753  19.041  0.00  0.00    +0.000 A 
ENDROOT
BRANCH   5  15
ATOM     15  N   UNL     1      -3.346  12.153  23.148  0.00  0.00    +0.000 N 
ATOM     16  H   UNL     1      -4.054  11.754  22.525  0.00  0.00    +0.000 HD
BRANCH  15  17
ATOM     17  C   UNL     1      -3.809  12.787  24.370  0.00  0.00    +0.000 C 
ATOM     18  C   UNL     1      -3.771  14.309  24.182  0.00  0.00    +0.000 C 
ATOM     19  C   UNL     1      -4.855  14.817  23.229  0.00  0.00    +0.000 C 
ATOM     20  C   UNL     1      -6.243  14.342  23.643  0.00  0.00    +0.000 C 
ATOM     21  C   UNL     1      -6.302  12.824  23.796  0.00  0.00    +0.000 C 
ATOM     22  C   UNL     1      -5.218  12.307  24.743  0.00  0.00    +0.000 C 
ENDBRANCH  15  17
ENDBRANCH   5  15
BRANCH   1  23
ATOM     23  C   UNL     1       0.908   9.761  20.154  0.00  0.00    +0.000 C 
BRANCH  23  24
ATOM     24  C   UNL     1       0.737   8.605  21.168  0.00  0.00    +0.000 C 
BRANCH  24  25
ATOM     25  C   UNL     1       1.432   7.290  20.794  0.00  0.00    +0.000 C 
BRANCH  25  27
ATOM     26  C   UNL     1       2.449   6.050  18.850  0.00  0.00    +0.000 C 
ATOM     27  C   UNL     1       2.284   7.399  19.532  0.00  0.00    +0.000 C 
ENDBRANCH  25  27
ENDBRANCH  24  25
ENDBRANCH  23  24
ENDBRANCH   1  23
TORSDOF 6
ENDMDL
MODEL 7
REMARK VINA RESULT:      -6.6      2.296      5.580
REMARK  Name = 
REMARK  7 active torsions:
REMARK  status: ('A' for Active; 'I' for Inactive)
REMARK    1  A    between atoms: C_1  and  C_2
REMARK    2  A    between atoms: C_2  and  C_3
REMARK    3  A    between atoms: C_3  and  C_4
REMARK    4  A    between atoms: C_4  and  C_5
REMARK    5  A    between atoms: C_5  and  N_6
REMARK    6  A    between atoms: C_10  and  N_11
REMARK    7  A    between atoms: N_11  and  C_12
REMARK                            x       y       z     vdW  Elec       q    Type
REMARK                         _______ _______ _______ _____ _____    ______ ____
ROOT
ATOM      1  N   UNL     1       2.026   5.949  19.953  0.00  0.00    +0.000 N 
ATOM      2  C   UNL     1       2.476   5.523  18.703  0.00  0.00    +0.000 C 
ATOM      3  O   UNL     1       2.465   4.359  18.307  0.00  0.00    +0.000 OA
ATOM      4  C   UNL     1       3.152   6.586  17.943  0.00  0.00    +0.000 C 
ATOM      5  C   UNL     1       4.390   6.327  17.491  0.00  0.00    +0.000 C 
ATOM      6  C   UNL     1       2.653   7.964  17.985  0.00  0.00    +0.000 C 
ATOM      7  O   UNL     1       2.907   8.807  17.133  0.00  0.00    +0.000 OA
ATOM      8  C   UNL     1       1.871   8.295  19.187  0.00  0.00    +0.000 A 
ATOM      9  C   UNL     1       1.495   9.634  19.364  0.00  0.00    +0.000 A 
ATOM     10  C   UNL     1       0.834  10.011  20.526  0.00  0.00    +0.000 A 
ATOM     11 CL   UNL     1       0.417  11.657  20.779  0.00  0.00    +0.000 Cl
ATOM     12  C   UNL     1       0.523   9.057  21.488  0.00  0.00    +0.000 A 
ATOM     13  C   UNL     1       0.893   7.714  21.298  0.00  0.00    +0.000 A 
ATOM     14  C   UNL     1       1.605   7.313  20.158  0.00  0.00    +0.000 A 
ENDROOT
BRANCH   5  15
ATOM     15  N   UNL     1       5.294   7.229  16.985  0.00  0.00    +0.000 N 
ATOM     16  H   UNL     1       4.970   8.202  16.979  0.00  0.00    +0.000 HD
BRANCH  15  17
ATOM     17  C   UNL     1       6.615   6.959  16.445  0.00  0.00    +0.000 C 
ATOM     18  C   UNL     1       7.660   7.246  17.530  0.00  0.00    +0.000 C 
ATOM     19  C   UNL     1       7.650   6.209  18.656  0.00  0.00    +0.000 C 
ATOM     20  C   UNL     1       7.781   4.788  18.118  0.00  0.00    +0.000 C 
ATOM     21  C   UNL     1       6.721   4.479  17.065  0.00  0.00    +0.000 C 
ATOM     22  C   UNL     1       6.721   5.514  15.939  0.00  0.00    +0.000 C 
ENDBRANCH  15  17
ENDBRANCH   5  15
BRANCH   1  23
ATOM     23  C   UNL     1       1.945   4.959  21.036  0.00  0.00    +0.000 C 
BRANCH  23  24
ATOM     24  C   UNL     1       1.015   3.752  20.765  0.00  0.00    +0.000 C 
BRANCH  24  25
ATOM     25  C   UNL     1       1.693   2.376  20.789  0.00  0.00    +0.000 C 
BRANCH  25  27
ATOM     26  C   UNL     1       4.142   2.216  20.213  0.00  0.00    +0.000 C 
ATOM     27  C   UNL     1       3.123   2.422  21.323  0.00  0.00    +0.000 C 
ENDBRANCH  25  27
ENDBRANCH  24  25
ENDBRANCH  23  24
ENDBRANCH   1  23
TORSDOF 6
ENDMDL
MODEL 8
REMARK VINA RESULT:      -6.5      4.897      8.657
REMARK  Name = 
REMARK  7 active torsions:
REMARK  status: ('A' for Active; 'I' for Inactive)
REMARK    1  A    between atoms: C_1  and  C_2
REMARK    2  A    between atoms: C_2  and  C_3
REMARK    3  A    between atoms: C_3  and  C_4
REMARK    4  A    between atoms: C_4  and  C_5
REMARK    5  A    between atoms: C_5  and  N_6
REMARK    6  A    between atoms: C_10  and  N_11
REMARK    7  A    between atoms: N_11  and  C_12
REMARK                            x       y       z     vdW  Elec       q    Type
REMARK                         _______ _______ _______ _____ _____    ______ ____
ROOT
ATOM      1  N   UNL     1       1.579   8.852  19.666  0.00  0.00    +0.000 N 
ATOM      2  C   UNL     1       1.709   9.349  18.369  0.00  0.00    +0.000 C 
ATOM      3  O   UNL     1       2.120   8.706  17.404  0.00  0.00    +0.000 OA
ATOM      4  C   UNL     1       1.481  10.799  18.285  0.00  0.00    +0.000 C 
ATOM      5  C   UNL     1       2.446  11.542  17.716  0.00  0.00    +0.000 C 
ATOM      6  C   UNL     1       0.435  11.437  19.089  0.00  0.00    +0.000 C 
ATOM      7  O   UNL     1      -0.061  12.526  18.825  0.00  0.00    +0.000 OA
ATOM      8  C   UNL     1       0.065  10.698  20.307  0.00  0.00    +0.000 A 
ATOM      9  C   UNL     1      -0.816  11.325  21.200  0.00  0.00    +0.000 A 
ATOM     10  C   UNL     1      -1.124  10.706  22.405  0.00  0.00    +0.000 A 
ATOM     11 CL   UNL     1      -2.158  11.488  23.530  0.00  0.00    +0.000 Cl
ATOM     12  C   UNL     1      -0.583   9.461  22.703  0.00  0.00    +0.000 A 
ATOM     13  C   UNL     1       0.291   8.833  21.798  0.00  0.00    +0.000 A 
ATOM     14  C   UNL     1       0.659   9.456  20.597  0.00  0.00    +0.000 A 
ENDROOT
BRANCH   5  15
ATOM     15  N   UNL     1       2.566  12.910  17.748  0.00  0.00    +0.000 N 
ATOM     16  H   UNL     1       2.081  13.400  16.990  0.00  0.00    +0.000 HD
BRANCH  15  17
ATOM     17  C   UNL     1       3.311  13.716  18.700  0.00  0.00    +0.000 C 
ATOM     18  C   UNL     1       4.294  14.607  17.930  0.00  0.00    +0.000 C 
ATOM     19  C   UNL     1       3.600  15.733  17.161  0.00  0.00    +0.000 C 
ATOM     20  C   UNL     1       2.689  16.559  18.064  0.00  0.00    +0.000 C 
ATOM     21  C   UNL     1       1.682  15.686  18.806  0.00  0.00    +0.000 C 
ATOM     22  C   UNL     1       2.367  14.554  19.573  0.00  0.00    +0.000 C 
ENDBRANCH  15  17
ENDBRANCH   5  15
BRANCH   1  23
ATOM     23  C   UNL     1       2.365   7.666  20.038  0.00  0.00    +0.000 C 
BRANCH  23  24
ATOM     24  C   UNL     1       1.774   6.309  19.587  0.00  0.00    +0.000 C 
BRANCH  24  25
ATOM     25  C   UNL     1       2.211   5.091  20.410  0.00  0.00    +0.000 C 
BRANCH  25  27
ATOM     26  C   UNL     1       1.538   2.912  21.483  0.00  0.00    +0.000 C 
ATOM     27  C   UNL     1       1.110   4.044  20.562  0.00  0.00    +0.000 C 
ENDBRANCH  25  27
ENDBRANCH  24  25
ENDBRANCH  23  24
ENDBRANCH   1  23
TORSDOF 6
ENDMDL
MODEL 9
REMARK VINA RESULT:      -6.5      7.709     10.631
REMARK  Name = 
REMARK  7 active torsions:
REMARK  status: ('A' for Active; 'I' for Inactive)
REMARK    1  A    between atoms: C_1  and  C_2
REMARK    2  A    between atoms: C_2  and  C_3
REMARK    3  A    between atoms: C_3  and  C_4
REMARK    4  A    between atoms: C_4  and  C_5
REMARK    5  A    between atoms: C_5  and  N_6
REMARK    6  A    between atoms: C_10  and  N_11
REMARK    7  A    between atoms: N_11  and  C_12
REMARK                            x       y       z     vdW  Elec       q    Type
REMARK                         _______ _______ _______ _____ _____    ______ ____
ROOT
ATOM      1  N   UNL     1      -0.569  11.270  20.649  0.00  0.00    +0.000 N 
ATOM      2  C   UNL     1      -0.939  12.274  21.543  0.00  0.00    +0.000 C 
ATOM      3  O   UNL     1      -0.194  12.789  22.376  0.00  0.00    +0.000 OA
ATOM      4  C   UNL     1      -2.384  12.548  21.533  0.00  0.00    +0.000 C 
ATOM      5  C   UNL     1      -3.030  12.489  22.710  0.00  0.00    +0.000 C 
ATOM      6  C   UNL     1      -3.136  12.532  20.276  0.00  0.00    +0.000 C 
ATOM      7  O   UNL     1      -4.217  13.090  20.120  0.00  0.00    +0.000 OA
ATOM      8  C   UNL     1      -2.529  11.719  19.210  0.00  0.00    +0.000 A 
ATOM      9  C   UNL     1      -3.272  11.535  18.035  0.00  0.00    +0.000 A 
ATOM     10  C   UNL     1      -2.780  10.703  17.038  0.00  0.00    +0.000 A 
ATOM     11 CL   UNL     1      -3.704  10.427  15.618  0.00  0.00    +0.000 Cl
ATOM     12  C   UNL     1      -1.546  10.083  17.198  0.00  0.00    +0.000 A 
ATOM     13  C   UNL     1      -0.801  10.281  18.374  0.00  0.00    +0.000 A 
ATOM     14  C   UNL     1      -1.295  11.076  19.418  0.00  0.00    +0.000 A 
ENDROOT
BRANCH   5  15
ATOM     15  N   UNL     1      -4.389  12.462  22.910  0.00  0.00    +0.000 N 
ATOM     16  H   UNL     1      -4.909  11.888  22.238  0.00  0.00    +0.000 HD
BRANCH  15  17
ATOM     17  C   UNL     1      -5.154  13.164  23.926  0.00  0.00    +0.000 C 
ATOM     18  C   UNL     1      -5.183  14.657  23.579  0.00  0.00    +0.000 C 
ATOM     19  C   UNL     1      -6.062  14.970  22.367  0.00  0.00    +0.000 C 
ATOM     20  C   UNL     1      -7.471  14.408  22.527  0.00  0.00    +0.000 C 
ATOM     21  C   UNL     1      -7.455  12.914  22.835  0.00  0.00    +0.000 C 
ATOM     22  C   UNL     1      -6.573  12.592  24.043  0.00  0.00    +0.000 C 
ENDBRANCH  15  17
ENDBRANCH   5  15
BRANCH   1  23
ATOM     23  C   UNL     1       0.609  10.452  20.972  0.00  0.00    +0.000 C 
BRANCH  23  24
ATOM     24  C   UNL     1       0.325   9.173  21.795  0.00  0.00    +0.000 C 
BRANCH  24  25
ATOM     25  C   UNL     1       0.997   7.893  21.281  0.00  0.00    +0.000 C 
BRANCH  25  27
ATOM     26  C   UNL     1       2.436   6.818  19.514  0.00  0.00    +0.000 C 
ATOM     27  C   UNL     1       1.806   8.111  20.005  0.00  0.00    +0.000 C 
ENDBRANCH  25  27
ENDBRANCH  24  25
ENDBRANCH  23  24
ENDBRANCH   1  23
TORSDOF 6
ENDMDL
