MODEL 1
REMARK VINA RESULT:      -5.8      0.000      0.000
REMARK  Name = 
REMARK  2 active torsions:
REMARK  status: ('A' for Active; 'I' for Inactive)
REMARK    1  A    between atoms: C_1  and  C_2
REMARK    2  A    between atoms: C_6  and  C_7
REMARK                            x       y       z     vdW  Elec       q    Type
REMARK                         _______ _______ _______ _____ _____    ______ ____
ROOT
ATOM      1  C   UNL     1       4.361   3.866  16.890  0.00  0.00    +0.000 C 
ATOM      2  C   UNL     1       3.477   3.431  18.046  0.00  0.00    +0.000 C 
ATOM      3  C   UNL     1       2.181   3.213  17.773  0.00  0.00    +0.000 C 
ATOM      4  C   UNL     1       1.039   2.816  18.561  0.00  0.00    +0.000 C 
ATOM      5  C   UNL     1       0.733   3.067  19.830  0.00  0.00    +0.000 C 
ATOM      6  C   UNL     1       1.566   3.725  20.889  0.00  0.00    +0.000 C 
ATOM      7  C   UNL     1       1.987   5.161  20.574  0.00  0.00    +0.000 C 
ATOM      8  C   UNL     1       2.650   2.748  21.353  0.00  0.00    +0.000 C 
ATOM      9  C   UNL     1       3.866   2.438  20.481  0.00  0.00    +0.000 C 
ATOM     10  C   UNL     1       4.266   3.366  19.343  0.00  0.00    +0.000 C 
ENDROOT
TORSDOF 0
ENDMDL
MODEL 2
REMARK VINA RESULT:      -5.6      1.069      2.383
REMARK  Name = 
REMARK  2 active torsions:
REMARK  status: ('A' for Active; 'I' for Inactive)
REMARK    1  A    between atoms: C_1  and  C_2
REMARK    2  A    between atoms: C_6  and  C_7
REMARK                            x       y       z     vdW  Elec       q    Type
REMARK                         _______ _______ _______ _____ _____    ______ ____
ROOT
ATOM      1  C   UNL     1       5.588   4.471  18.758  0.00  0.00    +0.000 C 
ATOM      2  C   UNL     1       4.101   4.334  19.032  0.00  0.00    +0.000 C 
ATOM      3  C   UNL     1       3.497   5.366  19.642  0.00  0.00    +0.000 C 
ATOM      4  C   UNL     1       2.147   5.626  20.083  0.00  0.00    +0.000 C 
ATOM      5  C   UNL     1       1.214   4.800  20.547  0.00  0.00    +0.000 C 
ATOM      6  C   UNL     1       1.230   3.302  20.618  0.00  0.00    +0.000 C 
ATOM      7  C   UNL     1       2.356   2.711  21.466  0.00  0.00    +0.000 C 
ATOM      8  C   UNL     1       1.020   2.733  19.211  0.00  0.00    +0.000 C 
ATOM      9  C   UNL     1       2.133   2.772  18.165  0.00  0.00    +0.000 C 
ATOM     10  C   UNL     1       3.583   2.981  18.577  0.00  0.00    +0.000 C 
ENDROOT
TORSDOF 0
ENDMDL
MODEL 3
REMARK VINA RESULT:      -5.6      1.287      3.237
REMARK  Name = 
REMARK  2 active torsions:
REMARK  status: ('A' for Active; 'I' for Inactive)
REMARK    1  A    between atoms: C_1  and  C_2
REMARK    2  A    between atoms: C_6  and  C_7
REMARK                            x       y       z     vdW  Elec       q    Type
REMARK                         _______ _______ _______ _____ _____    ______ ____
ROOT
ATOM      1  C   UNL     1       2.306   7.109  19.887  0.00  0.00    +0.000 C 
ATOM      2  C   UNL     1       2.064   5.629  19.647  0.00  0.00    +0.000 C 
ATOM      3  C   UNL     1       1.586   4.915  20.678  0.00  0.00    +0.000 C 
ATOM      4  C   UNL     1       1.242   3.526  20.869  0.00  0.00    +0.000 C 
ATOM      5  C   UNL     1       1.771   2.424  20.346  0.00  0.00    +0.000 C 
ATOM      6  C   UNL     1       2.806   2.293  19.269  0.00  0.00    +0.000 C 
ATOM      7  C   UNL     1       4.154   2.940  19.591  0.00  0.00    +0.000 C 
ATOM      8  C   UNL     1       2.164   2.616  17.916  0.00  0.00    +0.000 C 
ATOM      9  C   UNL     1       1.824   4.052  17.521  0.00  0.00    +0.000 C 
ATOM     10  C   UNL     1       2.467   5.230  18.237  0.00  0.00    +0.000 C 
ENDROOT
TORSDOF 0
ENDMDL
MODEL 4
REMARK VINA RESULT:      -5.6      1.281      3.518
REMARK  Name = 
REMARK  2 active torsions:
REMARK  status: ('A' for Active; 'I' for Inactive)
REMARK    1  A    between atoms: C_1  and  C_2
REMARK    2  A    between atoms: C_6  and  C_7
REMARK                            x       y       z     vdW  Elec       q    Type
REMARK                         _______ _______ _______ _____ _____    ______ ____
ROOT
ATOM      1  C   UNL     1       1.473   2.512  21.947  0.00  0.00    +0.000 C 
ATOM      2  C   UNL     1       1.611   3.386  20.712  0.00  0.00    +0.000 C 
ATOM      3  C   UNL     1       1.226   2.853  19.542  0.00  0.00    +0.000 C 
ATOM      4  C   UNL     1       1.206   3.324  18.177  0.00  0.00    +0.000 C 
ATOM      5  C   UNL     1       2.026   4.150  17.535  0.00  0.00    +0.000 C 
ATOM      6  C   UNL     1       3.155   4.972  18.081  0.00  0.00    +0.000 C 
ATOM      7  C   UNL     1       4.276   4.167  18.739  0.00  0.00    +0.000 C 
ATOM      8  C   UNL     1       2.579   6.161  18.855  0.00  0.00    +0.000 C 
ATOM      9  C   UNL     1       1.945   5.979  20.233  0.00  0.00    +0.000 C 
ATOM     10  C   UNL     1       2.222   4.733  21.060  0.00  0.00    +0.000 C 
ENDROOT
TORSDOF 0
ENDMDL
MODEL 5
REMARK VINA RESULT:      -5.5      1.348      2.493
REMARK  Name = 
REMARK  2 active torsions:
REMARK  status: ('A' for Active; 'I' for Inactive)
REMARK    1  A    between atoms: C_1  and  C_2
REMARK    2  A    between atoms: C_6  and  C_7
REMARK                            x       y       z     vdW  Elec       q    Type
REMARK                         _______ _______ _______ _____ _____    ______ ____
ROOT
ATOM      1  C   UNL     1       5.618   5.205  19.146  0.00  0.00    +0.000 C 
ATOM      2  C   UNL     1       4.338   4.425  19.393  0.00  0.00    +0.000 C 
ATOM      3  C   UNL     1       4.350   3.120  19.078  0.00  0.00    +0.000 C 
ATOM      4  C   UNL     1       3.373   2.059  19.142  0.00  0.00    +0.000 C 
ATOM      5  C   UNL     1       2.053   2.088  18.987  0.00  0.00    +0.000 C 
ATOM      6  C   UNL     1       1.146   3.273  18.844  0.00  0.00    +0.000 C 
ATOM      7  C   UNL     1       1.434   4.160  17.633  0.00  0.00    +0.000 C 
ATOM      8  C   UNL     1       0.992   3.953  20.208  0.00  0.00    +0.000 C 
ATOM      9  C   UNL     1       2.119   4.792  20.808  0.00  0.00    +0.000 C 
ATOM     10  C   UNL     1       3.243   5.328  19.933  0.00  0.00    +0.000 C 
ENDROOT
TORSDOF 0
ENDMDL
MODEL 6
REMARK VINA RESULT:      -5.5      0.798      2.386
REMARK  Name = 
REMARK  2 active torsions:
REMARK  status: ('A' for Active; 'I' for Inactive)
REMARK    1  A    between atoms: C_1  and  C_2
REMARK    2  A    between atoms: C_6  and  C_7
REMARK                            x       y       z     vdW  Elec       q    Type
REMARK                         _______ _______ _______ _____ _____    ______ ____
ROOT
ATOM      1  C   UNL     1       4.404   3.879  16.868  0.00  0.00    +0.000 C 
ATOM      2  C   UNL     1       3.714   3.892  18.221  0.00  0.00    +0.000 C 
ATOM      3  C   UNL     1       4.077   2.944  19.099  0.00  0.00    +0.000 C 
ATOM      4  C   UNL     1       3.670   2.605  20.442  0.00  0.00    +0.000 C 
ATOM      5  C   UNL     1       2.489   2.713  21.041  0.00  0.00    +0.000 C 
ATOM      6  C   UNL     1       1.234   3.366  20.544  0.00  0.00    +0.000 C 
ATOM      7  C   UNL     1       0.668   2.771  19.255  0.00  0.00    +0.000 C 
ATOM      8  C   UNL     1       1.399   4.887  20.616  0.00  0.00    +0.000 C 
ATOM      9  C   UNL     1       2.277   5.639  19.617  0.00  0.00    +0.000 C 
ATOM     10  C   UNL     1       2.677   5.000  18.296  0.00  0.00    +0.000 C 
ENDROOT
TORSDOF 0
ENDMDL
MODEL 7
REMARK VINA RESULT:      -5.5      0.740      2.308
REMARK  Name = 
REMARK  2 active torsions:
REMARK  status: ('A' for Active; 'I' for Inactive)
REMARK    1  A    between atoms: C_1  and  C_2
REMARK    2  A    between atoms: C_6  and  C_7
REMARK                            x       y       z     vdW  Elec       q    Type
REMARK                         _______ _______ _______ _____ _____    ______ ____
ROOT
ATOM      1  C   UNL     1       4.465   3.740  16.983  0.00  0.00    +0.000 C 
ATOM      2  C   UNL     1       3.346   3.922  17.994  0.00  0.00    +0.000 C 
ATOM      3  C   UNL     1       3.315   5.085  18.664  0.00  0.00    +0.000 C 
ATOM      4  C   UNL     1       2.457   5.636  19.686  0.00  0.00    +0.000 C 
ATOM      5  C   UNL     1       1.801   5.042  20.678  0.00  0.00    +0.000 C 
ATOM      6  C   UNL     1       1.631   3.579  20.953  0.00  0.00    +0.000 C 
ATOM      7  C   UNL     1       2.933   2.813  21.188  0.00  0.00    +0.000 C 
ATOM      8  C   UNL     1       0.628   2.994  19.953  0.00  0.00    +0.000 C 
ATOM      9  C   UNL     1       1.012   2.753  18.494  0.00  0.00    +0.000 C 
ATOM     10  C   UNL     1       2.473   2.682  18.074  0.00  0.00    +0.000 C 
ENDROOT
TORSDOF 0
ENDMDL
MODEL 8
REMARK VINA RESULT:      -5.4      1.402      2.809
REMARK  Name = 
REMARK  2 active torsions:
REMARK  status: ('A' for Active; 'I' for Inactive)
REMARK    1  A    between atoms: C_1  and  C_2
REMARK    2  A    between atoms: C_6  and  C_7
REMARK                            x       y       z     vdW  Elec       q    Type
REMARK                         _______ _______ _______ _____ _____    ______ ____
ROOT
ATOM      1  C   UNL     1       4.001   6.547  17.766  0.00  0.00    +0.000 C 
ATOM      2  C   UNL     1       3.024   5.609  18.454  0.00  0.00    +0.000 C 
ATOM      3  C   UNL     1       2.621   5.948  19.688  0.00  0.00    +0.000 C 
ATOM      4  C   UNL     1       1.741   5.347  20.662  0.00  0.00    +0.000 C 
ATOM      5  C   UNL     1       1.486   4.069  20.926  0.00  0.00    +0.000 C 
ATOM      6  C   UNL     1       1.932   2.845  20.184  0.00  0.00    +0.000 C 
ATOM      7  C   UNL     1       3.447   2.659  20.103  0.00  0.00    +0.000 C 
ATOM      8  C   UNL     1       1.127   2.727  18.885  0.00  0.00    +0.000 C 
ATOM      9  C   UNL     1       1.403   3.643  17.695  0.00  0.00    +0.000 C 
ATOM     10  C   UNL     1       2.718   4.402  17.583  0.00  0.00    +0.000 C 
ENDROOT
TORSDOF 0
ENDMDL
MODEL 9
REMARK VINA RESULT:      -5.4      1.404      2.614
REMARK  Name = 
REMARK  2 active torsions:
REMARK  status: ('A' for Active; 'I' for Inactive)
REMARK    1  A    between atoms: C_1  and  C_2
REMARK    2  A    between atoms: C_6  and  C_7
REMARK                            x       y       z     vdW  Elec       q    Type
REMARK                         _______ _______ _______ _____ _____    ______ ____
ROOT
ATOM      1  C   UNL     1       2.579   6.731  18.260  0.00  0.00    +0.000 C 
ATOM      2  C   UNL     1       2.698   5.337  18.852  0.00  0.00    +0.000 C 
ATOM      3  C   UNL     1       3.436   4.447  18.170  0.00  0.00    +0.000 C 
ATOM      4  C   UNL     1       3.780   3.059  18.370  0.00  0.00    +0.000 C 
ATOM      5  C   UNL     1       3.089   2.068  18.925  0.00  0.00    +0.000 C 
ATOM      6  C   UNL     1       1.781   2.122  19.655  0.00  0.00    +0.000 C 
ATOM      7  C   UNL     1       0.606   2.648  18.830  0.00  0.00    +0.000 C 
ATOM      8  C   UNL     1       2.007   2.728  21.043  0.00  0.00    +0.000 C 
ATOM      9  C   UNL     1       2.258   4.224  21.225  0.00  0.00    +0.000 C 
ATOM     10  C   UNL     1       1.888   5.215  20.131  0.00  0.00    +0.000 C 
ENDROOT
TORSDOF 0
ENDMDL
