MODEL 1
REMARK VINA RESULT:      -7.6      0.000      0.000
REMARK  Name = 
REMARK  5 active torsions:
REMARK  status: ('A' for Active; 'I' for Inactive)
REMARK    1  A    between atoms: C_1  and  C_2
REMARK    2  A    between atoms: C_2  and  C_3
REMARK    3  A    between atoms: N_11  and  C_12
REMARK    4  A    between atoms: C_16  and  C_17
REMARK    5  A    between atoms: C_18  and  C_19
REMARK                            x       y       z     vdW  Elec       q    Type
REMARK                         _______ _______ _______ _____ _____    ______ ____
ROOT
ATOM      1  C   UNL     1       6.685   6.652  17.598  0.00  0.00    +0.000 A 
ATOM      2  N   UNL     1       7.832   5.946  17.480  0.00  0.00    +0.000 NA
ATOM      3  C   UNL     1       7.718   4.615  17.545  0.00  0.00    +0.000 A 
ATOM      4  N   UNL     1       6.580   3.927  17.697  0.00  0.00    +0.000 NA
ATOM      5  C   UNL     1       5.434   4.633  17.789  0.00  0.00    +0.000 A 
ATOM      6  N   UNL     1       4.266   3.930  18.030  0.00  0.00    +0.000 N 
ATOM      7  C   UNL     1       4.352   2.618  18.666  0.00  0.00    +0.000 C 
ATOM      8  C   UNL     1       3.113   2.519  19.568  0.00  0.00    +0.000 C 
ATOM      9  N   UNL     1       1.872   2.704  18.806  0.00  0.00    +0.000 N 
ATOM     10  C   UNL     1       0.635   2.209  19.366  0.00  0.00    +0.000 C 
ATOM     11  C   UNL     1       1.799   3.721  17.842  0.00  0.00    +0.000 C 
ATOM     12  O   UNL     1       0.732   4.236  17.506  0.00  0.00    +0.000 OA
ATOM     13  C   UNL     1       3.120   4.048  17.113  0.00  0.00    +0.000 C 
ATOM     14  C   UNL     1       5.446   6.036  17.744  0.00  0.00    +0.000 A 
ENDROOT
BRANCH   1  16
ATOM     15  C   UNL     1       8.219   8.584  17.973  0.00  0.00    +0.000 C 
ATOM     16  C   UNL     1       6.830   8.150  17.531  0.00  0.00    +0.000 C 
ENDBRANCH   1  16
BRANCH  14  17
ATOM     17  C   UNL     1       4.251   6.811  17.934  0.00  0.00    +0.000 C 
ATOM     18  C   UNL     1       3.277   7.481  18.168  0.00  0.00    +0.000 C 
BRANCH  18  19
ATOM     19  C   UNL     1       2.171   8.308  18.524  0.00  0.00    +0.000 A 
ATOM     20  C   UNL     1       1.516   9.073  17.564  0.00  0.00    +0.000 A 
ATOM     21  C   UNL     1       0.444   9.879  17.947  0.00  0.00    +0.000 A 
ATOM     22  C   UNL     1       0.063   9.903  19.281  0.00  0.00    +0.000 A 
ATOM     23  N   UNL     1      -1.030  10.664  19.686  0.00  0.00    +0.000 N 
ATOM     24  N   UNL     1       0.677   9.175  20.228  0.00  0.00    +0.000 NA
ATOM     25  C   UNL     1       1.718   8.398  19.832  0.00  0.00    +0.000 A 
ATOM     26  H   UNL     1      -0.951  11.627  19.383  0.00  0.00    +0.000 HD
ATOM     27  H   UNL     1      -1.089  10.586  20.698  0.00  0.00    +0.000 HD
ENDBRANCH  18  19
ENDBRANCH  14  17
TORSDOF 3
ENDMDL
MODEL 2
REMARK VINA RESULT:      -7.2      0.935      1.225
REMARK  Name = 
REMARK  5 active torsions:
REMARK  status: ('A' for Active; 'I' for Inactive)
REMARK    1  A    between atoms: C_1  and  C_2
REMARK    2  A    between atoms: C_2  and  C_3
REMARK    3  A    between atoms: N_11  and  C_12
REMARK    4  A    between atoms: C_16  and  C_17
REMARK    5  A    between atoms: C_18  and  C_19
REMARK                            x       y       z     vdW  Elec       q    Type
REMARK                         _______ _______ _______ _____ _____    ______ ____
ROOT
ATOM      1  C   UNL     1       6.528   6.529  17.458  0.00  0.00    +0.000 A 
ATOM      2  N   UNL     1       7.679   5.843  17.280  0.00  0.00    +0.000 NA
ATOM      3  C   UNL     1       7.654   4.548  17.617  0.00  0.00    +0.000 A 
ATOM      4  N   UNL     1       6.598   3.877  18.091  0.00  0.00    +0.000 NA
ATOM      5  C   UNL     1       5.444   4.558  18.243  0.00  0.00    +0.000 A 
ATOM      6  N   UNL     1       4.374   3.889  18.811  0.00  0.00    +0.000 N 
ATOM      7  C   UNL     1       4.639   2.731  19.661  0.00  0.00    +0.000 C 
ATOM      8  C   UNL     1       3.573   2.782  20.765  0.00  0.00    +0.000 C 
ATOM      9  N   UNL     1       2.214   2.782  20.208  0.00  0.00    +0.000 N 
ATOM     10  C   UNL     1       1.117   2.377  21.056  0.00  0.00    +0.000 C 
ATOM     11  C   UNL     1       1.926   3.586  19.095  0.00  0.00    +0.000 C 
ATOM     12  O   UNL     1       0.791   3.999  18.855  0.00  0.00    +0.000 OA
ATOM     13  C   UNL     1       3.088   3.795  18.101  0.00  0.00    +0.000 C 
ATOM     14  C   UNL     1       5.368   5.925  17.930  0.00  0.00    +0.000 A 
ENDROOT
BRANCH   1  16
ATOM     15  C   UNL     1       7.816   8.659  17.649  0.00  0.00    +0.000 C 
ATOM     16  C   UNL     1       6.574   7.988  17.083  0.00  0.00    +0.000 C 
ENDBRANCH   1  16
BRANCH  14  17
ATOM     17  C   UNL     1       4.177   6.693  18.172  0.00  0.00    +0.000 C 
ATOM     18  C   UNL     1       3.223   7.384  18.426  0.00  0.00    +0.000 C 
BRANCH  18  19
ATOM     19  C   UNL     1       2.155   8.264  18.771  0.00  0.00    +0.000 A 
ATOM     20  C   UNL     1       1.660   8.306  20.070  0.00  0.00    +0.000 A 
ATOM     21  C   UNL     1       0.608   9.171  20.372  0.00  0.00    +0.000 A 
ATOM     22  C   UNL     1       0.076   9.962  19.365  0.00  0.00    +0.000 A 
ATOM     23  N   UNL     1      -0.945  10.865  19.645  0.00  0.00    +0.000 N 
ATOM     24  N   UNL     1       0.535   9.942  18.102  0.00  0.00    +0.000 NA
ATOM     25  C   UNL     1       1.560   9.092  17.831  0.00  0.00    +0.000 A 
ATOM     26  H   UNL     1      -1.724  10.419  20.114  0.00  0.00    +0.000 HD
ATOM     27  H   UNL     1      -1.221  11.287  18.763  0.00  0.00    +0.000 HD
ENDBRANCH  18  19
ENDBRANCH  14  17
TORSDOF 3
ENDMDL
MODEL 3
REMARK VINA RESULT:      -6.6      1.562      1.996
REMARK  Name = 
REMARK  5 active torsions:
REMARK  status: ('A' for Active; 'I' for Inactive)
REMARK    1  A    between atoms: C_1  and  C_2
REMARK    2  A    between atoms: C_2  and  C_3
REMARK    3  A    between atoms: N_11  and  C_12
REMARK    4  A    between atoms: C_16  and  C_17
REMARK    5  A    between atoms: C_18  and  C_19
REMARK                            x       y       z     vdW  Elec       q    Type
REMARK                         _______ _______ _______ _____ _____    ______ ____
ROOT
ATOM      1  C   UNL     1       5.276   5.787  16.383  0.00  0.00    +0.000 A 
ATOM      2  N   UNL     1       6.033   4.917  15.677  0.00  0.00    +0.000 NA
ATOM      3  C   UNL     1       5.870   3.621  15.965  0.00  0.00    +0.000 A 
ATOM      4  N   UNL     1       5.021   3.115  16.868  0.00  0.00    +0.000 NA
ATOM      5  C   UNL     1       4.249   3.983  17.551  0.00  0.00    +0.000 A 
ATOM      6  N   UNL     1       3.431   3.470  18.543  0.00  0.00    +0.000 N 
ATOM      7  C   UNL     1       3.781   2.189  19.153  0.00  0.00    +0.000 C 
ATOM      8  C   UNL     1       3.372   2.313  20.627  0.00  0.00    +0.000 C 
ATOM      9  N   UNL     1       1.949   2.643  20.770  0.00  0.00    +0.000 N 
ATOM     10  C   UNL     1       1.294   2.359  22.027  0.00  0.00    +0.000 C 
ATOM     11  C   UNL     1       1.379   3.615  19.934  0.00  0.00    +0.000 C 
ATOM     12  O   UNL     1       0.385   4.265  20.260  0.00  0.00    +0.000 OA
ATOM     13  C   UNL     1       1.979   3.712  18.515  0.00  0.00    +0.000 C 
ATOM     14  C   UNL     1       4.352   5.366  17.333  0.00  0.00    +0.000 A 
ENDROOT
BRANCH   1  16
ATOM     15  C   UNL     1       6.573   7.852  16.913  0.00  0.00    +0.000 C 
ATOM     16  C   UNL     1       5.477   7.244  16.053  0.00  0.00    +0.000 C 
ENDBRANCH   1  16
BRANCH  14  17
ATOM     17  C   UNL     1       3.609   6.315  18.115  0.00  0.00    +0.000 C 
ATOM     18  C   UNL     1       2.923   7.100  18.720  0.00  0.00    +0.000 C 
BRANCH  18  19
ATOM     19  C   UNL     1       2.035   7.999  19.382  0.00  0.00    +0.000 A 
ATOM     20  C   UNL     1       1.635   7.766  20.694  0.00  0.00    +0.000 A 
ATOM     21  C   UNL     1       0.757   8.659  21.309  0.00  0.00    +0.000 A 
ATOM     22  C   UNL     1       0.299   9.755  20.592  0.00  0.00    +0.000 A 
ATOM     23  N   UNL     1      -0.543  10.686  21.193  0.00  0.00    +0.000 N 
ATOM     24  N   UNL     1       0.670  10.004  19.325  0.00  0.00    +0.000 NA
ATOM     25  C   UNL     1       1.524   9.121  18.746  0.00  0.00    +0.000 A 
ATOM     26  H   UNL     1      -1.353  10.245  21.612  0.00  0.00    +0.000 HD
ATOM     27  H   UNL     1      -0.801  11.360  20.477  0.00  0.00    +0.000 HD
ENDBRANCH  18  19
ENDBRANCH  14  17
TORSDOF 3
ENDMDL
MODEL 4
REMARK VINA RESULT:      -6.4      5.874     10.133
REMARK  Name = 
REMARK  5 active torsions:
REMARK  status: ('A' for Active; 'I' for Inactive)
REMARK    1  A    between atoms: C_1  and  C_2
REMARK    2  A    between atoms: C_2  and  C_3
REMARK    3  A    between atoms: N_11  and  C_12
REMARK    4  A    between atoms: C_16  and  C_17
REMARK    5  A    between atoms: C_18  and  C_19
REMARK                            x       y       z     vdW  Elec       q    Type
REMARK                         _______ _______ _______ _____ _____    ______ ____
ROOT
ATOM      1  C   UNL     1      -4.373  13.482  22.029  0.00  0.00    +0.000 A 
ATOM      2  N   UNL     1      -4.513  13.821  23.330  0.00  0.00    +0.000 NA
ATOM      3  C   UNL     1      -3.590  13.340  24.170  0.00  0.00    +0.000 A 
ATOM      4  N   UNL     1      -2.541  12.576  23.837  0.00  0.00    +0.000 NA
ATOM      5  C   UNL     1      -2.389  12.262  22.534  0.00  0.00    +0.000 A 
ATOM      6  N   UNL     1      -1.356  11.405  22.198  0.00  0.00    +0.000 N 
ATOM      7  C   UNL     1      -0.828  10.503  23.218  0.00  0.00    +0.000 C 
ATOM      8  C   UNL     1      -0.465   9.210  22.473  0.00  0.00    +0.000 C 
ATOM      9  N   UNL     1       0.488   9.461  21.385  0.00  0.00    +0.000 N 
ATOM     10  C   UNL     1       1.274   8.357  20.884  0.00  0.00    +0.000 C 
ATOM     11  C   UNL     1       0.303  10.572  20.549  0.00  0.00    +0.000 C 
ATOM     12  O   UNL     1       0.736  10.610  19.396  0.00  0.00    +0.000 OA
ATOM     13  C   UNL     1      -0.341  11.809  21.212  0.00  0.00    +0.000 C 
ATOM     14  C   UNL     1      -3.311  12.707  21.573  0.00  0.00    +0.000 A 
ENDROOT
BRANCH   1  16
ATOM     15  C   UNL     1      -6.698  13.197  21.171  0.00  0.00    +0.000 C 
ATOM     16  C   UNL     1      -5.425  14.025  21.096  0.00  0.00    +0.000 C 
ENDBRANCH   1  16
BRANCH  14  17
ATOM     17  C   UNL     1      -3.224  12.307  20.195  0.00  0.00    +0.000 C 
ATOM     18  C   UNL     1      -3.188  11.903  19.061  0.00  0.00    +0.000 C 
BRANCH  18  19
ATOM     19  C   UNL     1      -3.208  11.352  17.746  0.00  0.00    +0.000 A 
ATOM     20  C   UNL     1      -2.201  10.492  17.320  0.00  0.00    +0.000 A 
ATOM     21  C   UNL     1      -2.244   9.978  16.023  0.00  0.00    +0.000 A 
ATOM     22  C   UNL     1      -3.288  10.346  15.187  0.00  0.00    +0.000 A 
ATOM     23  N   UNL     1      -3.381   9.817  13.904  0.00  0.00    +0.000 N 
ATOM     24  N   UNL     1      -4.274  11.174  15.573  0.00  0.00    +0.000 NA
ATOM     25  C   UNL     1      -4.211  11.662  16.839  0.00  0.00    +0.000 A 
ATOM     26  H   UNL     1      -2.524   9.945  13.381  0.00  0.00    +0.000 HD
ATOM     27  H   UNL     1      -4.175  10.265  13.454  0.00  0.00    +0.000 HD
ENDBRANCH  18  19
ENDBRANCH  14  17
TORSDOF 3
ENDMDL
MODEL 5
REMARK VINA RESULT:      -6.4      4.582      8.975
REMARK  Name = 
REMARK  5 active torsions:
REMARK  status: ('A' for Active; 'I' for Inactive)
REMARK    1  A    between atoms: C_1  and  C_2
REMARK    2  A    between atoms: C_2  and  C_3
REMARK    3  A    between atoms: N_11  and  C_12
REMARK    4  A    between atoms: C_16  and  C_17
REMARK    5  A    between atoms: C_18  and  C_19
REMARK                            x       y       z     vdW  Elec       q    Type
REMARK                         _______ _______ _______ _____ _____    ______ ____
ROOT
ATOM      1  C   UNL     1      -2.768  13.103  21.492  0.00  0.00    +0.000 A 
ATOM      2  N   UNL     1      -2.510  13.586  22.728  0.00  0.00    +0.000 NA
ATOM      3  C   UNL     1      -1.405  13.126  23.325  0.00  0.00    +0.000 A 
ATOM      4  N   UNL     1      -0.533  12.254  22.805  0.00  0.00    +0.000 NA
ATOM      5  C   UNL     1      -0.778  11.794  21.561  0.00  0.00    +0.000 A 
ATOM      6  N   UNL     1       0.075  10.830  21.054  0.00  0.00    +0.000 N 
ATOM      7  C   UNL     1       0.836  10.002  21.987  0.00  0.00    +0.000 C 
ATOM      8  C   UNL     1       0.912   8.614  21.333  0.00  0.00    +0.000 C 
ATOM      9  N   UNL     1       1.519   8.676  19.998  0.00  0.00    +0.000 N 
ATOM     10  C   UNL     1       2.078   7.468  19.435  0.00  0.00    +0.000 C 
ATOM     11  C   UNL     1       1.148   9.704  19.118  0.00  0.00    +0.000 C 
ATOM     12  O   UNL     1       1.230   9.587  17.895  0.00  0.00    +0.000 OA
ATOM     13  C   UNL     1       0.778  11.049  19.779  0.00  0.00    +0.000 C 
ATOM     14  C   UNL     1      -1.919  12.205  20.853  0.00  0.00    +0.000 A 
ENDROOT
BRANCH   1  16
ATOM     15  C   UNL     1      -5.240  12.831  21.280  0.00  0.00    +0.000 C 
ATOM     16  C   UNL     1      -4.021  13.623  20.835  0.00  0.00    +0.000 C 
ENDBRANCH   1  16
BRANCH  14  17
ATOM     17  C   UNL     1      -2.251  11.657  19.566  0.00  0.00    +0.000 C 
ATOM     18  C   UNL     1      -2.521  11.272  18.457  0.00  0.00    +0.000 C 
BRANCH  18  19
ATOM     19  C   UNL     1      -2.812  10.905  17.110  0.00  0.00    +0.000 A 
ATOM     20  C   UNL     1      -2.110   9.880  16.485  0.00  0.00    +0.000 A 
ATOM     21  C   UNL     1      -2.412   9.552  15.162  0.00  0.00    +0.000 A 
ATOM     22  C   UNL     1      -3.401  10.265  14.501  0.00  0.00    +0.000 A 
ATOM     23  N   UNL     1      -3.754   9.933  13.196  0.00  0.00    +0.000 N 
ATOM     24  N   UNL     1      -4.095  11.260  15.081  0.00  0.00    +0.000 NA
ATOM     25  C   UNL     1      -3.784  11.561  16.368  0.00  0.00    +0.000 A 
ATOM     26  H   UNL     1      -2.948   9.907  12.584  0.00  0.00    +0.000 HD
ATOM     27  H   UNL     1      -4.444  10.615  12.892  0.00  0.00    +0.000 HD
ENDBRANCH  18  19
ENDBRANCH  14  17
TORSDOF 3
ENDMDL
MODEL 6
REMARK VINA RESULT:      -6.4      2.118      5.938
REMARK  Name = 
REMARK  5 active torsions:
REMARK  status: ('A' for Active; 'I' for Inactive)
REMARK    1  A    between atoms: C_1  and  C_2
REMARK    2  A    between atoms: C_2  and  C_3
REMARK    3  A    between atoms: N_11  and  C_12
REMARK    4  A    between atoms: C_16  and  C_17
REMARK    5  A    between atoms: C_18  and  C_19
REMARK                            x       y       z     vdW  Elec       q    Type
REMARK                         _______ _______ _______ _____ _____    ______ ____
ROOT
ATOM      1  C   UNL     1       1.724   8.955  19.184  0.00  0.00    +0.000 A 
ATOM      2  N   UNL     1       0.763   9.312  20.066  0.00  0.00    +0.000 NA
ATOM      3  C   UNL     1       0.333   8.352  20.893  0.00  0.00    +0.000 A 
ATOM      4  N   UNL     1       0.777   7.090  20.936  0.00  0.00    +0.000 NA
ATOM      5  C   UNL     1       1.754   6.744  20.072  0.00  0.00    +0.000 A 
ATOM      6  N   UNL     1       2.156   5.420  20.056  0.00  0.00    +0.000 N 
ATOM      7  C   UNL     1       1.232   4.397  20.540  0.00  0.00    +0.000 C 
ATOM      8  C   UNL     1       1.474   3.172  19.646  0.00  0.00    +0.000 C 
ATOM      9  N   UNL     1       2.877   2.740  19.688  0.00  0.00    +0.000 N 
ATOM     10  C   UNL     1       3.197   1.386  19.296  0.00  0.00    +0.000 C 
ATOM     11  C   UNL     1       3.897   3.701  19.632  0.00  0.00    +0.000 C 
ATOM     12  O   UNL     1       5.024   3.443  19.209  0.00  0.00    +0.000 OA
ATOM     13  C   UNL     1       3.567   5.065  20.276  0.00  0.00    +0.000 C 
ATOM     14  C   UNL     1       2.266   7.674  19.154  0.00  0.00    +0.000 A 
ENDROOT
BRANCH   1  16
ATOM     15  C   UNL     1       1.578  11.383  18.628  0.00  0.00    +0.000 C 
ATOM     16  C   UNL     1       2.193  10.044  18.253  0.00  0.00    +0.000 C 
ENDBRANCH   1  16
BRANCH  14  17
ATOM     17  C   UNL     1       3.238   7.304  18.162  0.00  0.00    +0.000 C 
ATOM     18  C   UNL     1       4.082   6.939  17.383  0.00  0.00    +0.000 C 
BRANCH  18  19
ATOM     19  C   UNL     1       5.100   6.432  16.523  0.00  0.00    +0.000 A 
ATOM     20  C   UNL     1       4.772   5.674  15.404  0.00  0.00    +0.000 A 
ATOM     21  C   UNL     1       5.792   5.184  14.587  0.00  0.00    +0.000 A 
ATOM     22  C   UNL     1       7.111   5.459  14.919  0.00  0.00    +0.000 A 
ATOM     23  N   UNL     1       8.148   5.020  14.101  0.00  0.00    +0.000 N 
ATOM     24  N   UNL     1       7.455   6.189  15.994  0.00  0.00    +0.000 NA
ATOM     25  C   UNL     1       6.446   6.655  16.774  0.00  0.00    +0.000 A 
ATOM     26  H   UNL     1       8.089   4.026  13.920  0.00  0.00    +0.000 HD
ATOM     27  H   UNL     1       9.018   5.275  14.561  0.00  0.00    +0.000 HD
ENDBRANCH  18  19
ENDBRANCH  14  17
TORSDOF 3
ENDMDL
MODEL 7
REMARK VINA RESULT:      -6.4      7.081     11.114
REMARK  Name = 
REMARK  5 active torsions:
REMARK  status: ('A' for Active; 'I' for Inactive)
REMARK    1  A    between atoms: C_1  and  C_2
REMARK    2  A    between atoms: C_2  and  C_3
REMARK    3  A    between atoms: N_11  and  C_12
REMARK    4  A    between atoms: C_16  and  C_17
REMARK    5  A    between atoms: C_18  and  C_19
REMARK                            x       y       z     vdW  Elec       q    Type
REMARK                         _______ _______ _______ _____ _____    ______ ____
ROOT
ATOM      1  C   UNL     1      -6.009  13.135  21.784  0.00  0.00    +0.000 A 
ATOM      2  N   UNL     1      -6.355  13.451  23.052  0.00  0.00    +0.000 NA
ATOM      3  C   UNL     1      -5.391  13.344  23.973  0.00  0.00    +0.000 A 
ATOM      4  N   UNL     1      -4.124  12.974  23.749  0.00  0.00    +0.000 NA
ATOM      5  C   UNL     1      -3.775  12.685  22.479  0.00  0.00    +0.000 A 
ATOM      6  N   UNL     1      -2.490  12.221  22.256  0.00  0.00    +0.000 N 
ATOM      7  C   UNL     1      -1.768  11.591  23.358  0.00  0.00    +0.000 C 
ATOM      8  C   UNL     1      -0.933  10.475  22.714  0.00  0.00    +0.000 C 
ATOM      9  N   UNL     1      -0.040  10.998  21.673  0.00  0.00    +0.000 N 
ATOM     10  C   UNL     1       1.109  10.212  21.286  0.00  0.00    +0.000 C 
ATOM     11  C   UNL     1      -0.526  11.948  20.762  0.00  0.00    +0.000 C 
ATOM     12  O   UNL     1      -0.044  12.091  19.638  0.00  0.00    +0.000 OA
ATOM     13  C   UNL     1      -1.599  12.913  21.311  0.00  0.00    +0.000 C 
ATOM     14  C   UNL     1      -4.716  12.754  21.439  0.00  0.00    +0.000 A 
ENDROOT
BRANCH   1  16
ATOM     15  C   UNL     1      -7.295  14.697  20.322  0.00  0.00    +0.000 C 
ATOM     16  C   UNL     1      -7.108  13.252  20.759  0.00  0.00    +0.000 C 
ENDBRANCH   1  16
BRANCH  14  17
ATOM     17  C   UNL     1      -4.393  12.359  20.095  0.00  0.00    +0.000 C 
ATOM     18  C   UNL     1      -4.096  11.958  18.999  0.00  0.00    +0.000 C 
BRANCH  18  19
ATOM     19  C   UNL     1      -3.730  11.394  17.741  0.00  0.00    +0.000 A 
ATOM     20  C   UNL     1      -2.613  10.573  17.628  0.00  0.00    +0.000 A 
ATOM     21  C   UNL     1      -2.277  10.045  16.380  0.00  0.00    +0.000 A 
ATOM     22  C   UNL     1      -3.062  10.361  15.281  0.00  0.00    +0.000 A 
ATOM     23  N   UNL     1      -2.777   9.816  14.033  0.00  0.00    +0.000 N 
ATOM     24  N   UNL     1      -4.146  11.152  15.363  0.00  0.00    +0.000 NA
ATOM     25  C   UNL     1      -4.454  11.654  16.587  0.00  0.00    +0.000 A 
ATOM     26  H   UNL     1      -1.813   9.975  13.765  0.00  0.00    +0.000 HD
ATOM     27  H   UNL     1      -3.431  10.227  13.372  0.00  0.00    +0.000 HD
ENDBRANCH  18  19
ENDBRANCH  14  17
TORSDOF 3
ENDMDL
MODEL 8
REMARK VINA RESULT:      -6.4      7.822     10.967
REMARK  Name = 
REMARK  5 active torsions:
REMARK  status: ('A' for Active; 'I' for Inactive)
REMARK    1  A    between atoms: C_1  and  C_2
REMARK    2  A    between atoms: C_2  and  C_3
REMARK    3  A    between atoms: N_11  and  C_12
REMARK    4  A    between atoms: C_16  and  C_17
REMARK    5  A    between atoms: C_18  and  C_19
REMARK                            x       y       z     vdW  Elec       q    Type
REMARK                         _______ _______ _______ _____ _____    ______ ____
ROOT
ATOM      1  C   UNL     1       9.730  11.413  18.963  0.00  0.00    +0.000 A 
ATOM      2  N   UNL     1      10.281  11.618  17.745  0.00  0.00    +0.000 NA
ATOM      3  C   UNL     1      10.636  12.876  17.460  0.00  0.00    +0.000 A 
ATOM      4  N   UNL     1      10.513  13.933  18.272  0.00  0.00    +0.000 NA
ATOM      5  C   UNL     1       9.988  13.721  19.496  0.00  0.00    +0.000 A 
ATOM      6  N   UNL     1       9.781  14.824  20.305  0.00  0.00    +0.000 N 
ATOM      7  C   UNL     1       9.638  16.138  19.682  0.00  0.00    +0.000 C 
ATOM      8  C   UNL     1       8.608  16.887  20.540  0.00  0.00    +0.000 C 
ATOM      9  N   UNL     1       9.027  16.964  21.945  0.00  0.00    +0.000 N 
ATOM     10  C   UNL     1       8.445  17.985  22.787  0.00  0.00    +0.000 C 
ATOM     11  C   UNL     1       9.574  15.831  22.565  0.00  0.00    +0.000 C 
ATOM     12  O   UNL     1       9.522  15.655  23.783  0.00  0.00    +0.000 OA
ATOM     13  C   UNL     1      10.383  14.890  21.647  0.00  0.00    +0.000 C 
ATOM     14  C   UNL     1       9.571  12.439  19.888  0.00  0.00    +0.000 A 
ENDROOT
BRANCH   1  16
ATOM     15  C   UNL     1       8.431   9.434  18.172  0.00  0.00    +0.000 C 
ATOM     16  C   UNL     1       9.327   9.993  19.266  0.00  0.00    +0.000 C 
ENDBRANCH   1  16
BRANCH  14  17
ATOM     17  C   UNL     1       8.922  12.205  21.149  0.00  0.00    +0.000 C 
ATOM     18  C   UNL     1       8.365  12.090  22.211  0.00  0.00    +0.000 C 
BRANCH  18  19
ATOM     19  C   UNL     1       7.678  12.047  23.460  0.00  0.00    +0.000 A 
ATOM     20  C   UNL     1       8.363  12.233  24.656  0.00  0.00    +0.000 A 
ATOM     21  C   UNL     1       7.663  12.175  25.862  0.00  0.00    +0.000 A 
ATOM     22  C   UNL     1       6.299  11.924  25.837  0.00  0.00    +0.000 A 
ATOM     23  N   UNL     1       5.566  11.903  27.019  0.00  0.00    +0.000 N 
ATOM     24  N   UNL     1       5.612  11.741  24.696  0.00  0.00    +0.000 NA
ATOM     25  C   UNL     1       6.315  11.802  23.535  0.00  0.00    +0.000 A 
ATOM     26  H   UNL     1       5.971  11.273  27.702  0.00  0.00    +0.000 HD
ATOM     27  H   UNL     1       4.614  11.642  26.776  0.00  0.00    +0.000 HD
ENDBRANCH  18  19
ENDBRANCH  14  17
TORSDOF 3
ENDMDL
MODEL 9
REMARK VINA RESULT:      -6.3      7.930     11.109
REMARK  Name = 
REMARK  5 active torsions:
REMARK  status: ('A' for Active; 'I' for Inactive)
REMARK    1  A    between atoms: C_1  and  C_2
REMARK    2  A    between atoms: C_2  and  C_3
REMARK    3  A    between atoms: N_11  and  C_12
REMARK    4  A    between atoms: C_16  and  C_17
REMARK    5  A    between atoms: C_18  and  C_19
REMARK                            x       y       z     vdW  Elec       q    Type
REMARK                         _______ _______ _______ _____ _____    ______ ____
ROOT
ATOM      1  C   UNL     1      -5.469  12.227  19.640  0.00  0.00    +0.000 A 
ATOM      2  N   UNL     1      -5.914  11.802  18.436  0.00  0.00    +0.000 NA
ATOM      3  C   UNL     1      -4.977  11.514  17.527  0.00  0.00    +0.000 A 
ATOM      4  N   UNL     1      -3.652  11.590  17.708  0.00  0.00    +0.000 NA
ATOM      5  C   UNL     1      -3.211  11.988  18.918  0.00  0.00    +0.000 A 
ATOM      6  N   UNL     1      -1.846  12.149  19.082  0.00  0.00    +0.000 N 
ATOM      7  C   UNL     1      -1.019  12.390  17.903  0.00  0.00    +0.000 C 
ATOM      8  C   UNL     1       0.082  13.354  18.367  0.00  0.00    +0.000 C 
ATOM      9  N   UNL     1       0.844  12.805  19.496  0.00  0.00    +0.000 N 
ATOM     10  C   UNL     1       2.161  13.333  19.767  0.00  0.00    +0.000 C 
ATOM     11  C   UNL     1       0.161  12.167  20.543  0.00  0.00    +0.000 C 
ATOM     12  O   UNL     1       0.620  12.097  21.684  0.00  0.00    +0.000 OA
ATOM     13  C   UNL     1      -1.131  11.422  20.144  0.00  0.00    +0.000 C 
ATOM     14  C   UNL     1      -4.114  12.327  19.939  0.00  0.00    +0.000 A 
ENDROOT
BRANCH   1  16
ATOM     15  C   UNL     1      -7.428  11.353  20.916  0.00  0.00    +0.000 C 
ATOM     16  C   UNL     1      -6.537  12.556  20.652  0.00  0.00    +0.000 C 
ENDBRANCH   1  16
BRANCH  14  17
ATOM     17  C   UNL     1      -3.670  12.844  21.204  0.00  0.00    +0.000 C 
ATOM     18  C   UNL     1      -3.258  13.336  22.224  0.00  0.00    +0.000 C 
BRANCH  18  19
ATOM     19  C   UNL     1      -2.739  13.995  23.377  0.00  0.00    +0.000 A 
ATOM     20  C   UNL     1      -3.582  14.388  24.411  0.00  0.00    +0.000 A 
ATOM     21  C   UNL     1      -3.045  15.040  25.522  0.00  0.00    +0.000 A 
ATOM     22  C   UNL     1      -1.680  15.286  25.562  0.00  0.00    +0.000 A 
ATOM     23  N   UNL     1      -1.109  15.896  26.675  0.00  0.00    +0.000 N 
ATOM     24  N   UNL     1      -0.843  14.917  24.578  0.00  0.00    +0.000 NA
ATOM     25  C   UNL     1      -1.389  14.285  23.507  0.00  0.00    +0.000 A 
ATOM     26  H   UNL     1      -1.574  16.765  26.909  0.00  0.00    +0.000 HD
ATOM     27  H   UNL     1      -0.124  16.034  26.466  0.00  0.00    +0.000 HD
ENDBRANCH  18  19
ENDBRANCH  14  17
TORSDOF 3
ENDMDL
