MODEL 1
REMARK VINA RESULT:      -7.1      0.000      0.000
REMARK  Name = 
REMARK  8 active torsions:
REMARK  status: ('A' for Active; 'I' for Inactive)
REMARK    1  A    between atoms: C_1  and  C_2
REMARK    2  A    between atoms: C_2  and  C_3
REMARK    3  A    between atoms: C_3  and  C_4
REMARK    4  A    between atoms: C_4  and  C_5
REMARK    5  A    between atoms: C_5  and  C_6
REMARK    6  A    between atoms: C_6  and  S_7
REMARK    7  A    between atoms: S_7  and  C_8
REMARK    8  A    between atoms: C_12  and  C_13
REMARK                            x       y       z     vdW  Elec       q    Type
REMARK                         _______ _______ _______ _____ _____    ______ ____
ROOT
ATOM      1  C   UNL     1       6.206   5.584  17.553  0.00  0.00    +0.000 A 
ATOM      2  N   UNL     1       7.478   5.997  17.479  0.00  0.00    +0.000 NA
ATOM      3  S   UNL     1       8.059   5.947  19.028  0.00  0.00    +0.000 S 
ATOM      4  N   UNL     1       6.718   5.360  19.816  0.00  0.00    +0.000 NA
ATOM      5  C   UNL     1       5.756   5.223  18.890  0.00  0.00    +0.000 A 
ENDROOT
BRANCH   5   6
ATOM      6  C   UNL     1       4.415   4.785  19.468  0.00  0.00    +0.000 C 
ATOM      7  C   UNL     1       3.115   5.545  19.161  0.00  0.00    +0.000 C 
ATOM      8  N   UNL     1       2.041   4.519  19.287  0.00  0.00    +0.000 NA
ATOM      9  C   UNL     1       1.732   3.882  17.977  0.00  0.00    +0.000 C 
ATOM     10  C   UNL     1       2.113   2.386  17.863  0.00  0.00    +0.000 C 
ATOM     11  C   UNL     1       3.460   2.051  18.546  0.00  0.00    +0.000 C 
ATOM     12  C   UNL     1       4.040   3.250  19.373  0.00  0.00    +0.000 C 
ATOM     13  C   UNL     1       2.703   3.529  20.151  0.00  0.00    +0.000 C 
ENDBRANCH   5   6
BRANCH   1  14
ATOM     14  S   UNL     1       5.306   5.523  16.036  0.00  0.00    +0.000 S 
BRANCH  14  15
ATOM     15  C   UNL     1       6.394   4.411  15.070  0.00  0.00    +0.000 C 
BRANCH  15  16
ATOM     16  C   UNL     1       5.651   3.654  13.962  0.00  0.00    +0.000 C 
BRANCH  16  17
ATOM     17  C   UNL     1       6.463   3.687  12.655  0.00  0.00    +0.000 C 
BRANCH  17  18
ATOM     18  C   UNL     1       5.668   3.134  11.468  0.00  0.00    +0.000 C 
BRANCH  18  20
ATOM     19  C   UNL     1       3.499   3.632  10.286  0.00  0.00    +0.000 C 
ATOM     20  C   UNL     1       4.163   3.361  11.630  0.00  0.00    +0.000 C 
ENDBRANCH  18  20
ENDBRANCH  17  18
ENDBRANCH  16  17
ENDBRANCH  15  16
ENDBRANCH  14  15
ENDBRANCH   1  14
TORSDOF 7
ENDMDL
MODEL 2
REMARK VINA RESULT:      -7.0      0.843      1.073
REMARK  Name = 
REMARK  8 active torsions:
REMARK  status: ('A' for Active; 'I' for Inactive)
REMARK    1  A    between atoms: C_1  and  C_2
REMARK    2  A    between atoms: C_2  and  C_3
REMARK    3  A    between atoms: C_3  and  C_4
REMARK    4  A    between atoms: C_4  and  C_5
REMARK    5  A    between atoms: C_5  and  C_6
REMARK    6  A    between atoms: C_6  and  S_7
REMARK    7  A    between atoms: S_7  and  C_8
REMARK    8  A    between atoms: C_12  and  C_13
REMARK                            x       y       z     vdW  Elec       q    Type
REMARK                         _______ _______ _______ _____ _____    ______ ____
ROOT
ATOM      1  C   UNL     1       6.239   5.894  17.636  0.00  0.00    +0.000 A 
ATOM      2  N   UNL     1       7.528   6.252  17.609  0.00  0.00    +0.000 NA
ATOM      3  S   UNL     1       8.117   5.932  19.123  0.00  0.00    +0.000 S 
ATOM      4  N   UNL     1       6.753   5.295  19.829  0.00  0.00    +0.000 NA
ATOM      5  C   UNL     1       5.780   5.351  18.907  0.00  0.00    +0.000 A 
ENDROOT
BRANCH   5   6
ATOM      6  C   UNL     1       4.422   4.892  19.428  0.00  0.00    +0.000 C 
ATOM      7  C   UNL     1       3.123   5.626  19.057  0.00  0.00    +0.000 C 
ATOM      8  N   UNL     1       2.063   4.581  19.144  0.00  0.00    +0.000 NA
ATOM      9  C   UNL     1       1.825   3.929  17.826  0.00  0.00    +0.000 C 
ATOM     10  C   UNL     1       2.238   2.439  17.743  0.00  0.00    +0.000 C 
ATOM     11  C   UNL     1       3.559   2.134  18.488  0.00  0.00    +0.000 C 
ATOM     12  C   UNL     1       4.079   3.351  19.330  0.00  0.00    +0.000 C 
ATOM     13  C   UNL     1       2.704   3.611  20.045  0.00  0.00    +0.000 C 
ENDBRANCH   5   6
BRANCH   1  14
ATOM     14  S   UNL     1       5.326   6.115  16.141  0.00  0.00    +0.000 S 
BRANCH  14  15
ATOM     15  C   UNL     1       4.905   4.371  15.770  0.00  0.00    +0.000 C 
BRANCH  15  16
ATOM     16  C   UNL     1       6.014   3.631  15.013  0.00  0.00    +0.000 C 
BRANCH  16  17
ATOM     17  C   UNL     1       6.776   4.604  14.095  0.00  0.00    +0.000 C 
BRANCH  17  18
ATOM     18  C   UNL     1       6.722   4.173  12.626  0.00  0.00    +0.000 C 
BRANCH  18  20
ATOM     19  C   UNL     1       5.846   2.067  11.556  0.00  0.00    +0.000 C 
ATOM     20  C   UNL     1       5.479   3.331  12.320  0.00  0.00    +0.000 C 
ENDBRANCH  18  20
ENDBRANCH  17  18
ENDBRANCH  16  17
ENDBRANCH  15  16
ENDBRANCH  14  15
ENDBRANCH   1  14
TORSDOF 7
ENDMDL
MODEL 3
REMARK VINA RESULT:      -7.0      1.390      2.230
REMARK  Name = 
REMARK  8 active torsions:
REMARK  status: ('A' for Active; 'I' for Inactive)
REMARK    1  A    between atoms: C_1  and  C_2
REMARK    2  A    between atoms: C_2  and  C_3
REMARK    3  A    between atoms: C_3  and  C_4
REMARK    4  A    between atoms: C_4  and  C_5
REMARK    5  A    between atoms: C_5  and  C_6
REMARK    6  A    between atoms: C_6  and  S_7
REMARK    7  A    between atoms: S_7  and  C_8
REMARK    8  A    between atoms: C_12  and  C_13
REMARK                            x       y       z     vdW  Elec       q    Type
REMARK                         _______ _______ _______ _____ _____    ______ ____
ROOT
ATOM      1  C   UNL     1       6.071   5.290  16.897  0.00  0.00    +0.000 A 
ATOM      2  N   UNL     1       7.204   5.764  17.430  0.00  0.00    +0.000 NA
ATOM      3  S   UNL     1       7.142   5.381  19.039  0.00  0.00    +0.000 S 
ATOM      4  N   UNL     1       5.691   4.570  19.082  0.00  0.00    +0.000 NA
ATOM      5  C   UNL     1       5.190   4.610  17.837  0.00  0.00    +0.000 A 
ENDROOT
BRANCH   5   6
ATOM      6  C   UNL     1       3.801   3.993  17.721  0.00  0.00    +0.000 C 
ATOM      7  C   UNL     1       3.568   2.485  17.905  0.00  0.00    +0.000 C 
ATOM      8  N   UNL     1       2.162   2.378  18.389  0.00  0.00    +0.000 NA
ATOM      9  C   UNL     1       2.093   2.357  19.877  0.00  0.00    +0.000 C 
ATOM     10  C   UNL     1       1.430   3.598  20.523  0.00  0.00    +0.000 C 
ATOM     11  C   UNL     1       1.811   4.923  19.821  0.00  0.00    +0.000 C 
ATOM     12  C   UNL     1       2.615   4.701  18.493  0.00  0.00    +0.000 C 
ATOM     13  C   UNL     1       1.605   3.650  17.905  0.00  0.00    +0.000 C 
ENDBRANCH   5   6
BRANCH   1  14
ATOM     14  S   UNL     1       5.845   5.545  15.165  0.00  0.00    +0.000 S 
BRANCH  14  15
ATOM     15  C   UNL     1       6.059   3.827  14.566  0.00  0.00    +0.000 C 
BRANCH  15  16
ATOM     16  C   UNL     1       6.350   3.745  13.063  0.00  0.00    +0.000 C 
BRANCH  16  17
ATOM     17  C   UNL     1       5.035   3.628  12.269  0.00  0.00    +0.000 C 
BRANCH  17  18
ATOM     18  C   UNL     1       5.018   2.395  11.360  0.00  0.00    +0.000 C 
BRANCH  18  20
ATOM     19  C   UNL     1       6.159   0.152  11.241  0.00  0.00    +0.000 C 
ATOM     20  C   UNL     1       6.359   1.655  11.372  0.00  0.00    +0.000 C 
ENDBRANCH  18  20
ENDBRANCH  17  18
ENDBRANCH  16  17
ENDBRANCH  15  16
ENDBRANCH  14  15
ENDBRANCH   1  14
TORSDOF 7
ENDMDL
MODEL 4
REMARK VINA RESULT:      -6.9      3.621      5.938
REMARK  Name = 
REMARK  8 active torsions:
REMARK  status: ('A' for Active; 'I' for Inactive)
REMARK    1  A    between atoms: C_1  and  C_2
REMARK    2  A    between atoms: C_2  and  C_3
REMARK    3  A    between atoms: C_3  and  C_4
REMARK    4  A    between atoms: C_4  and  C_5
REMARK    5  A    between atoms: C_5  and  C_6
REMARK    6  A    between atoms: C_6  and  S_7
REMARK    7  A    between atoms: S_7  and  C_8
REMARK    8  A    between atoms: C_12  and  C_13
REMARK                            x       y       z     vdW  Elec       q    Type
REMARK                         _______ _______ _______ _____ _____    ______ ____
ROOT
ATOM      1  C   UNL     1       6.910   5.515  17.137  0.00  0.00    +0.000 A 
ATOM      2  N   UNL     1       7.386   5.696  15.898  0.00  0.00    +0.000 NA
ATOM      3  S   UNL     1       6.451   4.749  14.913  0.00  0.00    +0.000 S 
ATOM      4  N   UNL     1       5.398   4.122  16.038  0.00  0.00    +0.000 NA
ATOM      5  C   UNL     1       5.775   4.608  17.231  0.00  0.00    +0.000 A 
ENDROOT
BRANCH   5   6
ATOM      6  C   UNL     1       4.968   4.049  18.397  0.00  0.00    +0.000 C 
ATOM      7  C   UNL     1       4.303   4.966  19.436  0.00  0.00    +0.000 C 
ATOM      8  N   UNL     1       3.137   4.185  19.936  0.00  0.00    +0.000 NA
ATOM      9  C   UNL     1       1.897   4.500  19.174  0.00  0.00    +0.000 C 
ATOM     10  C   UNL     1       1.345   3.344  18.304  0.00  0.00    +0.000 C 
ATOM     11  C   UNL     1       2.457   2.532  17.599  0.00  0.00    +0.000 C 
ATOM     12  C   UNL     1       3.898   2.927  18.078  0.00  0.00    +0.000 C 
ATOM     13  C   UNL     1       3.559   2.815  19.610  0.00  0.00    +0.000 C 
ENDBRANCH   5   6
BRANCH   1  14
ATOM     14  S   UNL     1       7.712   6.412  18.429  0.00  0.00    +0.000 S 
BRANCH  14  15
ATOM     15  C   UNL     1       7.803   8.068  17.653  0.00  0.00    +0.000 C 
BRANCH  15  16
ATOM     16  C   UNL     1       8.633   9.069  18.464  0.00  0.00    +0.000 C 
BRANCH  16  17
ATOM     17  C   UNL     1       8.449  10.493  17.907  0.00  0.00    +0.000 C 
BRANCH  17  18
ATOM     18  C   UNL     1       9.370  11.505  18.593  0.00  0.00    +0.000 C 
BRANCH  18  20
ATOM     19  C   UNL     1      10.973  12.903  17.242  0.00  0.00    +0.000 C 
ATOM     20  C   UNL     1      10.751  11.565  17.932  0.00  0.00    +0.000 C 
ENDBRANCH  18  20
ENDBRANCH  17  18
ENDBRANCH  16  17
ENDBRANCH  15  16
ENDBRANCH  14  15
ENDBRANCH   1  14
TORSDOF 7
ENDMDL
MODEL 5
REMARK VINA RESULT:      -6.9      1.666      2.322
REMARK  Name = 
REMARK  8 active torsions:
REMARK  status: ('A' for Active; 'I' for Inactive)
REMARK    1  A    between atoms: C_1  and  C_2
REMARK    2  A    between atoms: C_2  and  C_3
REMARK    3  A    between atoms: C_3  and  C_4
REMARK    4  A    between atoms: C_4  and  C_5
REMARK    5  A    between atoms: C_5  and  C_6
REMARK    6  A    between atoms: C_6  and  S_7
REMARK    7  A    between atoms: S_7  and  C_8
REMARK    8  A    between atoms: C_12  and  C_13
REMARK                            x       y       z     vdW  Elec       q    Type
REMARK                         _______ _______ _______ _____ _____    ______ ____
ROOT
ATOM      1  C   UNL     1       5.614   5.034  16.284  0.00  0.00    +0.000 A 
ATOM      2  N   UNL     1       6.450   6.075  16.189  0.00  0.00    +0.000 NA
ATOM      3  S   UNL     1       5.867   7.218  17.236  0.00  0.00    +0.000 S 
ATOM      4  N   UNL     1       4.564   6.394  17.859  0.00  0.00    +0.000 NA
ATOM      5  C   UNL     1       4.524   5.207  17.233  0.00  0.00    +0.000 A 
ENDROOT
BRANCH   5   6
ATOM      6  C   UNL     1       3.318   4.358  17.619  0.00  0.00    +0.000 C 
ATOM      7  C   UNL     1       3.455   2.865  17.960  0.00  0.00    +0.000 C 
ATOM      8  N   UNL     1       2.321   2.585  18.886  0.00  0.00    +0.000 NA
ATOM      9  C   UNL     1       2.727   2.733  20.312  0.00  0.00    +0.000 C 
ATOM     10  C   UNL     1       2.070   3.915  21.066  0.00  0.00    +0.000 C 
ATOM     11  C   UNL     1       1.944   5.190  20.200  0.00  0.00    +0.000 C 
ATOM     12  C   UNL     1       2.319   4.947  18.696  0.00  0.00    +0.000 C 
ATOM     13  C   UNL     1       1.402   3.679  18.539  0.00  0.00    +0.000 C 
ENDBRANCH   5   6
BRANCH   1  14
ATOM     14  S   UNL     1       5.981   3.633  15.274  0.00  0.00    +0.000 S 
BRANCH  14  15
ATOM     15  C   UNL     1       6.716   4.475  13.824  0.00  0.00    +0.000 C 
BRANCH  15  16
ATOM     16  C   UNL     1       6.532   3.696  12.517  0.00  0.00    +0.000 C 
BRANCH  16  17
ATOM     17  C   UNL     1       5.077   3.207  12.385  0.00  0.00    +0.000 C 
BRANCH  17  18
ATOM     18  C   UNL     1       4.628   3.120  10.924  0.00  0.00    +0.000 C 
BRANCH  18  20
ATOM     19  C   UNL     1       2.945   4.189   9.383  0.00  0.00    +0.000 C 
ATOM     20  C   UNL     1       3.168   3.548  10.746  0.00  0.00    +0.000 C 
ENDBRANCH  18  20
ENDBRANCH  17  18
ENDBRANCH  16  17
ENDBRANCH  15  16
ENDBRANCH  14  15
ENDBRANCH   1  14
TORSDOF 7
ENDMDL
MODEL 6
REMARK VINA RESULT:      -6.9      1.657      2.615
REMARK  Name = 
REMARK  8 active torsions:
REMARK  status: ('A' for Active; 'I' for Inactive)
REMARK    1  A    between atoms: C_1  and  C_2
REMARK    2  A    between atoms: C_2  and  C_3
REMARK    3  A    between atoms: C_3  and  C_4
REMARK    4  A    between atoms: C_4  and  C_5
REMARK    5  A    between atoms: C_5  and  C_6
REMARK    6  A    between atoms: C_6  and  S_7
REMARK    7  A    between atoms: S_7  and  C_8
REMARK    8  A    between atoms: C_12  and  C_13
REMARK                            x       y       z     vdW  Elec       q    Type
REMARK                         _______ _______ _______ _____ _____    ______ ____
ROOT
ATOM      1  C   UNL     1       4.893   5.627  17.418  0.00  0.00    +0.000 A 
ATOM      2  N   UNL     1       5.065   6.942  17.234  0.00  0.00    +0.000 NA
ATOM      3  S   UNL     1       3.594   7.637  17.540  0.00  0.00    +0.000 S 
ATOM      4  N   UNL     1       2.721   6.283  17.953  0.00  0.00    +0.000 NA
ATOM      5  C   UNL     1       3.550   5.236  17.823  0.00  0.00    +0.000 A 
ENDROOT
BRANCH   5   6
ATOM      6  C   UNL     1       2.873   3.892  18.069  0.00  0.00    +0.000 C 
ATOM      7  C   UNL     1       3.670   2.654  18.510  0.00  0.00    +0.000 C 
ATOM      8  N   UNL     1       2.689   1.826  19.268  0.00  0.00    +0.000 NA
ATOM      9  C   UNL     1       2.737   2.117  20.728  0.00  0.00    +0.000 C 
ATOM     10  C   UNL     1       1.474   2.800  21.306  0.00  0.00    +0.000 C 
ATOM     11  C   UNL     1       0.876   3.869  20.361  0.00  0.00    +0.000 C 
ATOM     12  C   UNL     1       1.557   3.882  18.947  0.00  0.00    +0.000 C 
ATOM     13  C   UNL     1       1.420   2.332  18.724  0.00  0.00    +0.000 C 
ENDBRANCH   5   6
BRANCH   1  14
ATOM     14  S   UNL     1       6.308   4.602  17.165  0.00  0.00    +0.000 S 
BRANCH  14  15
ATOM     15  C   UNL     1       6.656   4.976  15.407  0.00  0.00    +0.000 C 
BRANCH  15  16
ATOM     16  C   UNL     1       5.970   4.007  14.437  0.00  0.00    +0.000 C 
BRANCH  16  17
ATOM     17  C   UNL     1       6.769   3.909  13.124  0.00  0.00    +0.000 C 
BRANCH  17  18
ATOM     18  C   UNL     1       5.986   3.185  12.024  0.00  0.00    +0.000 C 
BRANCH  18  20
ATOM     19  C   UNL     1       3.778   3.174  10.811  0.00  0.00    +0.000 C 
ATOM     20  C   UNL     1       4.479   3.430  12.138  0.00  0.00    +0.000 C 
ENDBRANCH  18  20
ENDBRANCH  17  18
ENDBRANCH  16  17
ENDBRANCH  15  16
ENDBRANCH  14  15
ENDBRANCH   1  14
TORSDOF 7
ENDMDL
MODEL 7
REMARK VINA RESULT:      -6.9      3.721      5.853
REMARK  Name = 
REMARK  8 active torsions:
REMARK  status: ('A' for Active; 'I' for Inactive)
REMARK    1  A    between atoms: C_1  and  C_2
REMARK    2  A    between atoms: C_2  and  C_3
REMARK    3  A    between atoms: C_3  and  C_4
REMARK    4  A    between atoms: C_4  and  C_5
REMARK    5  A    between atoms: C_5  and  C_6
REMARK    6  A    between atoms: C_6  and  S_7
REMARK    7  A    between atoms: S_7  and  C_8
REMARK    8  A    between atoms: C_12  and  C_13
REMARK                            x       y       z     vdW  Elec       q    Type
REMARK                         _______ _______ _______ _____ _____    ______ ____
ROOT
ATOM      1  C   UNL     1       4.338   6.357  17.341  0.00  0.00    +0.000 A 
ATOM      2  N   UNL     1       4.046   7.658  17.216  0.00  0.00    +0.000 NA
ATOM      3  S   UNL     1       2.610   7.876  18.010  0.00  0.00    +0.000 S 
ATOM      4  N   UNL     1       2.353   6.330  18.564  0.00  0.00    +0.000 NA
ATOM      5  C   UNL     1       3.370   5.583  18.106  0.00  0.00    +0.000 A 
ENDROOT
BRANCH   5   6
ATOM      6  C   UNL     1       3.236   4.102  18.442  0.00  0.00    +0.000 C 
ATOM      7  C   UNL     1       4.256   3.379  19.337  0.00  0.00    +0.000 C 
ATOM      8  N   UNL     1       3.486   2.266  19.961  0.00  0.00    +0.000 NA
ATOM      9  C   UNL     1       2.921   2.660  21.282  0.00  0.00    +0.000 C 
ATOM     10  C   UNL     1       1.377   2.760  21.336  0.00  0.00    +0.000 C 
ATOM     11  C   UNL     1       0.764   3.380  20.058  0.00  0.00    +0.000 C 
ATOM     12  C   UNL     1       1.817   3.581  18.913  0.00  0.00    +0.000 C 
ATOM     13  C   UNL     1       2.383   2.117  18.999  0.00  0.00    +0.000 C 
ENDBRANCH   5   6
BRANCH   1  14
ATOM     14  S   UNL     1       5.838   5.808  16.590  0.00  0.00    +0.000 S 
BRANCH  14  15
ATOM     15  C   UNL     1       7.053   6.497  17.775  0.00  0.00    +0.000 C 
BRANCH  15  16
ATOM     16  C   UNL     1       7.551   7.893  17.385  0.00  0.00    +0.000 C 
BRANCH  16  17
ATOM     17  C   UNL     1       8.501   8.443  18.465  0.00  0.00    +0.000 C 
BRANCH  17  18
ATOM     18  C   UNL     1       8.738   9.949  18.311  0.00  0.00    +0.000 C 
BRANCH  18  20
ATOM     19  C   UNL     1      10.645  11.350  19.179  0.00  0.00    +0.000 C 
ATOM     20  C   UNL     1       9.401  10.555  19.552  0.00  0.00    +0.000 C 
ENDBRANCH  18  20
ENDBRANCH  17  18
ENDBRANCH  16  17
ENDBRANCH  15  16
ENDBRANCH  14  15
ENDBRANCH   1  14
TORSDOF 7
ENDMDL
MODEL 8
REMARK VINA RESULT:      -6.8      1.813      2.496
REMARK  Name = 
REMARK  8 active torsions:
REMARK  status: ('A' for Active; 'I' for Inactive)
REMARK    1  A    between atoms: C_1  and  C_2
REMARK    2  A    between atoms: C_2  and  C_3
REMARK    3  A    between atoms: C_3  and  C_4
REMARK    4  A    between atoms: C_4  and  C_5
REMARK    5  A    between atoms: C_5  and  C_6
REMARK    6  A    between atoms: C_6  and  S_7
REMARK    7  A    between atoms: S_7  and  C_8
REMARK    8  A    between atoms: C_12  and  C_13
REMARK                            x       y       z     vdW  Elec       q    Type
REMARK                         _______ _______ _______ _____ _____    ______ ____
ROOT
ATOM      1  C   UNL     1       5.651   5.515  16.849  0.00  0.00    +0.000 A 
ATOM      2  N   UNL     1       5.621   6.818  16.542  0.00  0.00    +0.000 NA
ATOM      3  S   UNL     1       4.200   7.396  17.165  0.00  0.00    +0.000 S 
ATOM      4  N   UNL     1       3.615   6.010  17.872  0.00  0.00    +0.000 NA
ATOM      5  C   UNL     1       4.501   5.038  17.605  0.00  0.00    +0.000 A 
ENDROOT
BRANCH   5   6
ATOM      6  C   UNL     1       4.064   3.664  18.101  0.00  0.00    +0.000 C 
ATOM      7  C   UNL     1       4.503   3.120  19.470  0.00  0.00    +0.000 C 
ATOM      8  N   UNL     1       3.416   2.182  19.869  0.00  0.00    +0.000 NA
ATOM      9  C   UNL     1       2.384   2.858  20.703  0.00  0.00    +0.000 C 
ATOM     10  C   UNL     1       0.993   3.005  20.041  0.00  0.00    +0.000 C 
ATOM     11  C   UNL     1       1.071   3.358  18.537  0.00  0.00    +0.000 C 
ATOM     12  C   UNL     1       2.532   3.289  17.969  0.00  0.00    +0.000 C 
ATOM     13  C   UNL     1       2.831   1.862  18.558  0.00  0.00    +0.000 C 
ENDBRANCH   5   6
BRANCH   1  14
ATOM     14  S   UNL     1       7.069   4.610  16.314  0.00  0.00    +0.000 S 
BRANCH  14  15
ATOM     15  C   UNL     1       6.420   3.906  14.753  0.00  0.00    +0.000 C 
BRANCH  15  16
ATOM     16  C   UNL     1       6.799   4.731  13.517  0.00  0.00    +0.000 C 
BRANCH  16  17
ATOM     17  C   UNL     1       6.840   3.833  12.266  0.00  0.00    +0.000 C 
BRANCH  17  18
ATOM     18  C   UNL     1       5.479   3.198  11.966  0.00  0.00    +0.000 C 
BRANCH  18  20
ATOM     19  C   UNL     1       7.051   1.486  10.994  0.00  0.00    +0.000 C 
ATOM     20  C   UNL     1       5.618   1.775  11.416  0.00  0.00    +0.000 C 
ENDBRANCH  18  20
ENDBRANCH  17  18
ENDBRANCH  16  17
ENDBRANCH  15  16
ENDBRANCH  14  15
ENDBRANCH   1  14
TORSDOF 7
ENDMDL
MODEL 9
REMARK VINA RESULT:      -6.8      1.233      1.371
REMARK  Name = 
REMARK  8 active torsions:
REMARK  status: ('A' for Active; 'I' for Inactive)
REMARK    1  A    between atoms: C_1  and  C_2
REMARK    2  A    between atoms: C_2  and  C_3
REMARK    3  A    between atoms: C_3  and  C_4
REMARK    4  A    between atoms: C_4  and  C_5
REMARK    5  A    between atoms: C_5  and  C_6
REMARK    6  A    between atoms: C_6  and  S_7
REMARK    7  A    between atoms: S_7  and  C_8
REMARK    8  A    between atoms: C_12  and  C_13
REMARK                            x       y       z     vdW  Elec       q    Type
REMARK                         _______ _______ _______ _____ _____    ______ ____
ROOT
ATOM      1  C   UNL     1       6.314   4.558  17.584  0.00  0.00    +0.000 A 
ATOM      2  N   UNL     1       7.611   4.870  17.466  0.00  0.00    +0.000 NA
ATOM      3  S   UNL     1       8.047   5.544  18.914  0.00  0.00    +0.000 S 
ATOM      4  N   UNL     1       6.606   5.414  19.733  0.00  0.00    +0.000 NA
ATOM      5  C   UNL     1       5.724   4.873  18.878  0.00  0.00    +0.000 A 
ENDROOT
BRANCH   5   6
ATOM      6  C   UNL     1       4.312   4.776  19.443  0.00  0.00    +0.000 C 
ATOM      7  C   UNL     1       3.158   5.627  18.889  0.00  0.00    +0.000 C 
ATOM      8  N   UNL     1       1.933   4.823  19.161  0.00  0.00    +0.000 NA
ATOM      9  C   UNL     1       1.574   3.959  18.002  0.00  0.00    +0.000 C 
ATOM     10  C   UNL     1       1.719   2.437  18.244  0.00  0.00    +0.000 C 
ATOM     11  C   UNL     1       2.972   2.072  19.074  0.00  0.00    +0.000 C 
ATOM     12  C   UNL     1       3.704   3.331  19.659  0.00  0.00    +0.000 C 
ATOM     13  C   UNL     1       2.401   3.969  20.263  0.00  0.00    +0.000 C 
ENDBRANCH   5   6
BRANCH   1  14
ATOM     14  S   UNL     1       5.551   3.806  16.181  0.00  0.00    +0.000 S 
BRANCH  14  15
ATOM     15  C   UNL     1       5.878   5.094  14.920  0.00  0.00    +0.000 C 
BRANCH  15  16
ATOM     16  C   UNL     1       6.870   4.642  13.841  0.00  0.00    +0.000 C 
BRANCH  16  17
ATOM     17  C   UNL     1       6.226   3.578  12.934  0.00  0.00    +0.000 C 
BRANCH  17  18
ATOM     18  C   UNL     1       6.897   3.510  11.558  0.00  0.00    +0.000 C 
BRANCH  18  20
ATOM     19  C   UNL     1       6.077   1.151  11.219  0.00  0.00    +0.000 C 
ATOM     20  C   UNL     1       7.285   2.077  11.180  0.00  0.00    +0.000 C 
ENDBRANCH  18  20
ENDBRANCH  17  18
ENDBRANCH  16  17
ENDBRANCH  15  16
ENDBRANCH  14  15
ENDBRANCH   1  14
TORSDOF 7
ENDMDL
