MODEL 1
REMARK VINA RESULT:      -8.8      0.000      0.000
REMARK  Name = 
REMARK  8 active torsions:
REMARK  status: ('A' for Active; 'I' for Inactive)
REMARK    1  A    between atoms: C_4  and  C_5
REMARK    2  A    between atoms: C_5  and  N_6
REMARK    3  A    between atoms: N_6  and  C_7
REMARK    4  A    between atoms: N_10  and  C_11
REMARK    5  A    between atoms: C_11  and  C_12
REMARK    6  A    between atoms: C_12  and  C_13
REMARK    7  A    between atoms: C_13  and  C_14
REMARK    8  A    between atoms: C_20  and  N_21
REMARK                            x       y       z     vdW  Elec       q    Type
REMARK                         _______ _______ _______ _____ _____    ______ ____
ROOT
ATOM      1  C   UNL     1       8.364   9.340  18.002  0.00  0.00    +0.000 C 
ENDROOT
BRANCH   1   2
ATOM      2  C   UNL     1       8.009   7.810  18.151  0.00  0.00    +0.000 C 
BRANCH   2   6
ATOM      3  C   UNL     1       5.385   4.870  16.231  0.00  0.00    +0.000 C 
ATOM      4  C   UNL     1       6.895   4.613  16.361  0.00  0.00    +0.000 C 
ATOM      5  C   UNL     1       7.589   5.559  17.352  0.00  0.00    +0.000 C 
ATOM      6  N   UNL     1       7.329   7.007  17.103  0.00  0.00    +0.000 NA
ATOM      7  C   UNL     1       5.885   7.245  17.076  0.00  0.00    +0.000 C 
ATOM      8  C   UNL     1       5.186   6.378  16.022  0.00  0.00    +0.000 C 
BRANCH   3   9
ATOM      9  N   UNL     1       4.650   4.296  17.381  0.00  0.00    +0.000 NA
ATOM     10  H   UNL     1       4.532   3.294  17.221  0.00  0.00    +0.000 HD
BRANCH   9  11
ATOM     11  C   UNL     1       3.300   4.865  17.529  0.00  0.00    +0.000 C 
BRANCH  11  15
ATOM     12  C   UNL     1       0.960   3.168  20.746  0.00  0.00    +0.000 A 
ATOM     13  C   UNL     1       1.898   4.163  21.012  0.00  0.00    +0.000 A 
ATOM     14  C   UNL     1       2.668   4.692  19.976  0.00  0.00    +0.000 A 
ATOM     15  C   UNL     1       2.518   4.229  18.660  0.00  0.00    +0.000 A 
ATOM     16  C   UNL     1       1.570   3.227  18.405  0.00  0.00    +0.000 A 
ATOM     17  C   UNL     1       0.801   2.694  19.444  0.00  0.00    +0.000 A 
ENDBRANCH  11  15
ENDBRANCH   9  11
ENDBRANCH   3   9
ENDBRANCH   2   6
ENDBRANCH   1   2
BRANCH   1  18
ATOM     18  C   UNL     1       9.117  10.211  19.085  0.00  0.00    +0.000 C 
BRANCH  18  19
ATOM     19  C   UNL     1       9.646  11.550  18.618  0.00  0.00    +0.000 A 
ATOM     20  C   UNL     1      10.567  11.640  17.591  0.00  0.00    +0.000 A 
ATOM     21  N   UNL     1      11.375  12.611  18.075  0.00  0.00    +0.000 N 
ATOM     22  C   UNL     1      10.542  13.629  18.412  0.00  0.00    +0.000 A 
ATOM     23  C   UNL     1      10.791  14.991  18.372  0.00  0.00    +0.000 A 
ATOM     24  C   UNL     1       9.713  15.801  18.647  0.00  0.00    +0.000 A 
ATOM     25  C   UNL     1       8.478  15.266  19.053  0.00  0.00    +0.000 A 
ATOM     26  C   UNL     1       8.328  13.857  19.299  0.00  0.00    +0.000 A 
ATOM     27  C   UNL     1       9.369  12.987  18.843  0.00  0.00    +0.000 A 
ATOM     28  H   UNL     1      12.361  12.543  18.273  0.00  0.00    +0.000 HD
BRANCH  25  29
ATOM     29  N   UNL     1       7.394  16.196  19.098  0.00  0.00    +0.000 N 
ATOM     30  C   UNL     1       7.418  17.470  19.648  0.00  0.00    +0.000 A 
ATOM     31  N   UNL     1       6.245  18.040  19.523  0.00  0.00    +0.000 NA
ATOM     32  N   UNL     1       5.423  17.161  18.872  0.00  0.00    +0.000 NA
ATOM     33  C   UNL     1       6.117  16.076  18.605  0.00  0.00    +0.000 A 
ENDBRANCH  25  29
ENDBRANCH  18  19
ENDBRANCH   1  18
TORSDOF 8
ENDMDL
MODEL 2
REMARK VINA RESULT:      -8.6      1.178      1.256
REMARK  Name = 
REMARK  8 active torsions:
REMARK  status: ('A' for Active; 'I' for Inactive)
REMARK    1  A    between atoms: C_4  and  C_5
REMARK    2  A    between atoms: C_5  and  N_6
REMARK    3  A    between atoms: N_6  and  C_7
REMARK    4  A    between atoms: N_10  and  C_11
REMARK    5  A    between atoms: C_11  and  C_12
REMARK    6  A    between atoms: C_12  and  C_13
REMARK    7  A    between atoms: C_13  and  C_14
REMARK    8  A    between atoms: C_20  and  N_21
REMARK                            x       y       z     vdW  Elec       q    Type
REMARK                         _______ _______ _______ _____ _____    ______ ____
ROOT
ATOM      1  C   UNL     1       8.402   9.562  17.779  0.00  0.00    +0.000 C 
ENDROOT
BRANCH   1   2
ATOM      2  C   UNL     1       7.126   8.643  17.651  0.00  0.00    +0.000 C 
BRANCH   2   6
ATOM      3  C   UNL     1       6.357   4.344  17.285  0.00  0.00    +0.000 C 
ATOM      4  C   UNL     1       7.706   4.861  17.809  0.00  0.00    +0.000 C 
ATOM      5  C   UNL     1       7.676   6.347  18.201  0.00  0.00    +0.000 C 
ATOM      6  N   UNL     1       7.152   7.251  17.136  0.00  0.00    +0.000 NA
ATOM      7  C   UNL     1       5.826   6.793  16.717  0.00  0.00    +0.000 C 
ATOM      8  C   UNL     1       5.855   5.339  16.230  0.00  0.00    +0.000 C 
BRANCH   3   9
ATOM      9  N   UNL     1       5.418   4.089  18.401  0.00  0.00    +0.000 NA
ATOM     10  H   UNL     1       5.885   3.491  19.086  0.00  0.00    +0.000 HD
BRANCH   9  11
ATOM     11  C   UNL     1       4.207   3.374  17.968  0.00  0.00    +0.000 C 
BRANCH  11  15
ATOM     12  C   UNL     1       1.316   3.165  21.178  0.00  0.00    +0.000 A 
ATOM     13  C   UNL     1       2.584   2.613  21.342  0.00  0.00    +0.000 A 
ATOM     14  C   UNL     1       3.507   2.661  20.296  0.00  0.00    +0.000 A 
ATOM     15  C   UNL     1       3.173   3.254  19.069  0.00  0.00    +0.000 A 
ATOM     16  C   UNL     1       1.892   3.807  18.918  0.00  0.00    +0.000 A 
ATOM     17  C   UNL     1       0.966   3.756  19.964  0.00  0.00    +0.000 A 
ENDBRANCH  11  15
ENDBRANCH   9  11
ENDBRANCH   3   9
ENDBRANCH   2   6
ENDBRANCH   1   2
BRANCH   1  18
ATOM     18  C   UNL     1       9.098   9.971  19.139  0.00  0.00    +0.000 C 
BRANCH  18  19
ATOM     19  C   UNL     1       9.961  11.214  19.102  0.00  0.00    +0.000 A 
ATOM     20  C   UNL     1      11.207  11.207  18.504  0.00  0.00    +0.000 A 
ATOM     21  N   UNL     1      11.904  11.957  19.388  0.00  0.00    +0.000 N 
ATOM     22  C   UNL     1      11.169  13.088  19.550  0.00  0.00    +0.000 A 
ATOM     23  C   UNL     1      11.616  14.372  19.807  0.00  0.00    +0.000 A 
ATOM     24  C   UNL     1      10.651  15.353  19.792  0.00  0.00    +0.000 A 
ATOM     25  C   UNL     1       9.289  15.039  19.638  0.00  0.00    +0.000 A 
ATOM     26  C   UNL     1       8.845  13.671  19.598  0.00  0.00    +0.000 A 
ATOM     27  C   UNL     1       9.838  12.655  19.425  0.00  0.00    +0.000 A 
ATOM     28  H   UNL     1      12.717  11.681  19.917  0.00  0.00    +0.000 HD
BRANCH  25  29
ATOM     29  N   UNL     1       8.423  16.156  19.427  0.00  0.00    +0.000 N 
ATOM     30  C   UNL     1       8.628  17.457  19.865  0.00  0.00    +0.000 A 
ATOM     31  N   UNL     1       7.628  18.221  19.501  0.00  0.00    +0.000 NA
ATOM     32  N   UNL     1       6.747  17.445  18.800  0.00  0.00    +0.000 NA
ATOM     33  C   UNL     1       7.235  16.225  18.741  0.00  0.00    +0.000 A 
ENDBRANCH  25  29
ENDBRANCH  18  19
ENDBRANCH   1  18
TORSDOF 8
ENDMDL
MODEL 3
REMARK VINA RESULT:      -8.5      2.978      3.547
REMARK  Name = 
REMARK  8 active torsions:
REMARK  status: ('A' for Active; 'I' for Inactive)
REMARK    1  A    between atoms: C_4  and  C_5
REMARK    2  A    between atoms: C_5  and  N_6
REMARK    3  A    between atoms: N_6  and  C_7
REMARK    4  A    between atoms: N_10  and  C_11
REMARK    5  A    between atoms: C_11  and  C_12
REMARK    6  A    between atoms: C_12  and  C_13
REMARK    7  A    between atoms: C_13  and  C_14
REMARK    8  A    between atoms: C_20  and  N_21
REMARK                            x       y       z     vdW  Elec       q    Type
REMARK                         _______ _______ _______ _____ _____    ______ ____
ROOT
ATOM      1  C   UNL     1       7.995   9.228  18.118  0.00  0.00    +0.000 C 
ENDROOT
BRANCH   1   2
ATOM      2  C   UNL     1       7.907   7.653  18.110  0.00  0.00    +0.000 C 
BRANCH   2   6
ATOM      3  C   UNL     1       5.424   4.687  16.049  0.00  0.00    +0.000 C 
ATOM      4  C   UNL     1       6.939   4.477  16.202  0.00  0.00    +0.000 C 
ATOM      5  C   UNL     1       7.580   5.415  17.236  0.00  0.00    +0.000 C 
ATOM      6  N   UNL     1       7.276   6.861  17.024  0.00  0.00    +0.000 NA
ATOM      7  C   UNL     1       5.826   7.050  16.973  0.00  0.00    +0.000 C 
ATOM      8  C   UNL     1       5.178   6.193  15.880  0.00  0.00    +0.000 C 
BRANCH   3   9
ATOM      9  N   UNL     1       4.686   4.054  17.165  0.00  0.00    +0.000 NA
ATOM     10  H   UNL     1       4.991   3.082  17.245  0.00  0.00    +0.000 HD
BRANCH   9  11
ATOM     11  C   UNL     1       3.232   4.026  16.936  0.00  0.00    +0.000 C 
BRANCH  11  15
ATOM     12  C   UNL     1       1.078   4.006  20.688  0.00  0.00    +0.000 A 
ATOM     13  C   UNL     1       0.956   2.935  19.804  0.00  0.00    +0.000 A 
ATOM     14  C   UNL     1       1.634   2.955  18.584  0.00  0.00    +0.000 A 
ATOM     15  C   UNL     1       2.437   4.048  18.226  0.00  0.00    +0.000 A 
ATOM     16  C   UNL     1       2.552   5.120  19.125  0.00  0.00    +0.000 A 
ATOM     17  C   UNL     1       1.871   5.102  20.345  0.00  0.00    +0.000 A 
ENDBRANCH  11  15
ENDBRANCH   9  11
ENDBRANCH   3   9
ENDBRANCH   2   6
ENDBRANCH   1   2
BRANCH   1  18
ATOM     18  C   UNL     1       9.334  10.067  18.060  0.00  0.00    +0.000 C 
BRANCH  18  19
ATOM     19  C   UNL     1       9.334  11.381  18.811  0.00  0.00    +0.000 A 
ATOM     20  C   UNL     1       9.215  12.588  18.148  0.00  0.00    +0.000 A 
ATOM     21  N   UNL     1      10.104  13.334  18.842  0.00  0.00    +0.000 N 
ATOM     22  C   UNL     1       9.763  13.171  20.146  0.00  0.00    +0.000 A 
ATOM     23  C   UNL     1       9.882  14.079  21.184  0.00  0.00    +0.000 A 
ATOM     24  C   UNL     1       9.332  13.687  22.383  0.00  0.00    +0.000 A 
ATOM     25  C   UNL     1       8.791  12.401  22.557  0.00  0.00    +0.000 A 
ATOM     26  C   UNL     1       8.890  11.411  21.518  0.00  0.00    +0.000 A 
ATOM     27  C   UNL     1       9.285  11.851  20.215  0.00  0.00    +0.000 A 
ATOM     28  H   UNL     1      10.925  13.797  18.483  0.00  0.00    +0.000 HD
BRANCH  25  29
ATOM     29  N   UNL     1       8.066  12.200  23.772  0.00  0.00    +0.000 N 
ATOM     30  C   UNL     1       8.497  12.512  25.054  0.00  0.00    +0.000 A 
ATOM     31  N   UNL     1       7.581  12.185  25.932  0.00  0.00    +0.000 NA
ATOM     32  N   UNL     1       6.517  11.664  25.249  0.00  0.00    +0.000 NA
ATOM     33  C   UNL     1       6.803  11.695  23.965  0.00  0.00    +0.000 A 
ENDBRANCH  25  29
ENDBRANCH  18  19
ENDBRANCH   1  18
TORSDOF 8
ENDMDL
MODEL 4
REMARK VINA RESULT:      -8.5      3.058      3.638
REMARK  Name = 
REMARK  8 active torsions:
REMARK  status: ('A' for Active; 'I' for Inactive)
REMARK    1  A    between atoms: C_4  and  C_5
REMARK    2  A    between atoms: C_5  and  N_6
REMARK    3  A    between atoms: N_6  and  C_7
REMARK    4  A    between atoms: N_10  and  C_11
REMARK    5  A    between atoms: C_11  and  C_12
REMARK    6  A    between atoms: C_12  and  C_13
REMARK    7  A    between atoms: C_13  and  C_14
REMARK    8  A    between atoms: C_20  and  N_21
REMARK                            x       y       z     vdW  Elec       q    Type
REMARK                         _______ _______ _______ _____ _____    ______ ____
ROOT
ATOM      1  C   UNL     1       8.627   9.333  18.496  0.00  0.00    +0.000 C 
ENDROOT
BRANCH   1   2
ATOM      2  C   UNL     1       7.427   8.786  17.630  0.00  0.00    +0.000 C 
BRANCH   2   6
ATOM      3  C   UNL     1       6.204   4.588  17.933  0.00  0.00    +0.000 C 
ATOM      4  C   UNL     1       7.668   5.001  18.155  0.00  0.00    +0.000 C 
ATOM      5  C   UNL     1       7.848   6.512  18.359  0.00  0.00    +0.000 C 
ATOM      6  N   UNL     1       7.229   7.354  17.294  0.00  0.00    +0.000 NA
ATOM      7  C   UNL     1       5.812   7.008  17.164  0.00  0.00    +0.000 C 
ATOM      8  C   UNL     1       5.616   5.518  16.863  0.00  0.00    +0.000 C 
BRANCH   3   9
ATOM      9  N   UNL     1       5.461   4.562  19.214  0.00  0.00    +0.000 NA
ATOM     10  H   UNL     1       6.118   4.760  19.972  0.00  0.00    +0.000 HD
BRANCH   9  11
ATOM     11  C   UNL     1       4.871   3.243  19.497  0.00  0.00    +0.000 C 
BRANCH  11  15
ATOM     12  C   UNL     1       0.548   3.191  19.642  0.00  0.00    +0.000 A 
ATOM     13  C   UNL     1       1.223   2.508  18.632  0.00  0.00    +0.000 A 
ATOM     14  C   UNL     1       2.617   2.546  18.575  0.00  0.00    +0.000 A 
ATOM     15  C   UNL     1       3.356   3.274  19.519  0.00  0.00    +0.000 A 
ATOM     16  C   UNL     1       2.664   3.957  20.532  0.00  0.00    +0.000 A 
ATOM     17  C   UNL     1       1.268   3.922  20.588  0.00  0.00    +0.000 A 
ENDBRANCH  11  15
ENDBRANCH   9  11
ENDBRANCH   3   9
ENDBRANCH   2   6
ENDBRANCH   1   2
BRANCH   1  18
ATOM     18  C   UNL     1       9.587  10.519  18.079  0.00  0.00    +0.000 C 
BRANCH  18  19
ATOM     19  C   UNL     1       9.518  11.767  18.932  0.00  0.00    +0.000 A 
ATOM     20  C   UNL     1       9.578  13.028  18.368  0.00  0.00    +0.000 A 
ATOM     21  N   UNL     1      10.367  13.658  19.267  0.00  0.00    +0.000 N 
ATOM     22  C   UNL     1       9.793  13.415  20.474  0.00  0.00    +0.000 A 
ATOM     23  C   UNL     1       9.771  14.229  21.593  0.00  0.00    +0.000 A 
ATOM     24  C   UNL     1       8.999  13.781  22.640  0.00  0.00    +0.000 A 
ATOM     25  C   UNL     1       8.373  12.523  22.604  0.00  0.00    +0.000 A 
ATOM     26  C   UNL     1       8.605  11.613  21.514  0.00  0.00    +0.000 A 
ATOM     27  C   UNL     1       9.245  12.128  20.343  0.00  0.00    +0.000 A 
ATOM     28  H   UNL     1      11.260  14.095  19.098  0.00  0.00    +0.000 HD
BRANCH  25  29
ATOM     29  N   UNL     1       7.435  12.274  23.653  0.00  0.00    +0.000 N 
ATOM     30  C   UNL     1       6.099  12.648  23.676  0.00  0.00    +0.000 A 
ATOM     31  N   UNL     1       5.540  12.266  24.798  0.00  0.00    +0.000 NA
ATOM     32  N   UNL     1       6.490  11.616  25.535  0.00  0.00    +0.000 NA
ATOM     33  C   UNL     1       7.608  11.606  24.841  0.00  0.00    +0.000 A 
ENDBRANCH  25  29
ENDBRANCH  18  19
ENDBRANCH   1  18
TORSDOF 8
ENDMDL
MODEL 5
REMARK VINA RESULT:      -8.5      5.994     10.309
REMARK  Name = 
REMARK  8 active torsions:
REMARK  status: ('A' for Active; 'I' for Inactive)
REMARK    1  A    between atoms: C_4  and  C_5
REMARK    2  A    between atoms: C_5  and  N_6
REMARK    3  A    between atoms: N_6  and  C_7
REMARK    4  A    between atoms: N_10  and  C_11
REMARK    5  A    between atoms: C_11  and  C_12
REMARK    6  A    between atoms: C_12  and  C_13
REMARK    7  A    between atoms: C_13  and  C_14
REMARK    8  A    between atoms: C_20  and  N_21
REMARK                            x       y       z     vdW  Elec       q    Type
REMARK                         _______ _______ _______ _____ _____    ______ ____
ROOT
ATOM      1  C   UNL     1       2.654   8.198  17.777  0.00  0.00    +0.000 C 
ENDROOT
BRANCH   1   2
ATOM      2  C   UNL     1       1.515   9.283  17.901  0.00  0.00    +0.000 C 
BRANCH   2   6
ATOM      3  C   UNL     1      -0.101  12.367  20.563  0.00  0.00    +0.000 C 
ATOM      4  C   UNL     1       1.279  12.535  19.909  0.00  0.00    +0.000 C 
ATOM      5  C   UNL     1       1.528  11.552  18.755  0.00  0.00    +0.000 C 
ATOM      6  N   UNL     1       1.292  10.121  19.105  0.00  0.00    +0.000 NA
ATOM      7  C   UNL     1      -0.062   9.969  19.641  0.00  0.00    +0.000 C 
ATOM      8  C   UNL     1      -0.298  10.873  20.857  0.00  0.00    +0.000 C 
BRANCH   3   9
ATOM      9  N   UNL     1      -1.160  12.985  19.733  0.00  0.00    +0.000 NA
ATOM     10  H   UNL     1      -1.263  13.962  20.016  0.00  0.00    +0.000 HD
BRANCH   9  11
ATOM     11  C   UNL     1      -2.472  12.346  19.924  0.00  0.00    +0.000 C 
BRANCH  11  15
ATOM     12  C   UNL     1      -4.180  11.001  16.185  0.00  0.00    +0.000 A 
ATOM     13  C   UNL     1      -5.006  11.278  17.272  0.00  0.00    +0.000 A 
ATOM     14  C   UNL     1      -4.450  11.689  18.484  0.00  0.00    +0.000 A 
ATOM     15  C   UNL     1      -3.061  11.822  18.630  0.00  0.00    +0.000 A 
ATOM     16  C   UNL     1      -2.240  11.540  17.527  0.00  0.00    +0.000 A 
ATOM     17  C   UNL     1      -2.796  11.125  16.314  0.00  0.00    +0.000 A 
ENDBRANCH  11  15
ENDBRANCH   9  11
ENDBRANCH   3   9
ENDBRANCH   2   6
ENDBRANCH   1   2
BRANCH   1  18
ATOM     18  C   UNL     1       2.576   6.725  18.348  0.00  0.00    +0.000 C 
BRANCH  18  19
ATOM     19  C   UNL     1       3.857   5.919  18.297  0.00  0.00    +0.000 A 
ATOM     20  C   UNL     1       4.196   5.043  19.310  0.00  0.00    +0.000 A 
ATOM     21  N   UNL     1       5.523   5.284  19.405  0.00  0.00    +0.000 N 
ATOM     22  C   UNL     1       5.996   5.165  18.137  0.00  0.00    +0.000 A 
ATOM     23  C   UNL     1       7.238   4.718  17.723  0.00  0.00    +0.000 A 
ATOM     24  C   UNL     1       7.398   4.579  16.363  0.00  0.00    +0.000 A 
ATOM     25  C   UNL     1       6.395   4.978  15.463  0.00  0.00    +0.000 A 
ATOM     26  C   UNL     1       5.209   5.646  15.925  0.00  0.00    +0.000 A 
ATOM     27  C   UNL     1       4.943   5.631  17.332  0.00  0.00    +0.000 A 
ATOM     28  H   UNL     1       6.028   5.614  20.212  0.00  0.00    +0.000 HD
BRANCH  25  29
ATOM     29  N   UNL     1       6.600   4.584  14.104  0.00  0.00    +0.000 N 
ATOM     30  C   UNL     1       5.854   3.656  13.390  0.00  0.00    +0.000 A 
ATOM     31  N   UNL     1       6.326   3.534  12.174  0.00  0.00    +0.000 NA
ATOM     32  N   UNL     1       7.385   4.390  12.052  0.00  0.00    +0.000 NA
ATOM     33  C   UNL     1       7.530   5.026  13.195  0.00  0.00    +0.000 A 
ENDBRANCH  25  29
ENDBRANCH  18  19
ENDBRANCH   1  18
TORSDOF 8
ENDMDL
MODEL 6
REMARK VINA RESULT:      -8.3      6.086      8.670
REMARK  Name = 
REMARK  8 active torsions:
REMARK  status: ('A' for Active; 'I' for Inactive)
REMARK    1  A    between atoms: C_4  and  C_5
REMARK    2  A    between atoms: C_5  and  N_6
REMARK    3  A    between atoms: N_6  and  C_7
REMARK    4  A    between atoms: N_10  and  C_11
REMARK    5  A    between atoms: C_11  and  C_12
REMARK    6  A    between atoms: C_12  and  C_13
REMARK    7  A    between atoms: C_13  and  C_14
REMARK    8  A    between atoms: C_20  and  N_21
REMARK                            x       y       z     vdW  Elec       q    Type
REMARK                         _______ _______ _______ _____ _____    ______ ____
ROOT
ATOM      1  C   UNL     1       1.677   7.125  20.171  0.00  0.00    +0.000 C 
ENDROOT
BRANCH   1   2
ATOM      2  C   UNL     1       1.790   5.620  20.632  0.00  0.00    +0.000 C 
BRANCH   2   6
ATOM      3  C   UNL     1       3.196   2.589  17.795  0.00  0.00    +0.000 C 
ATOM      4  C   UNL     1       2.376   3.797  17.315  0.00  0.00    +0.000 C 
ATOM      5  C   UNL     1       2.275   4.917  18.362  0.00  0.00    +0.000 C 
ATOM      6  N   UNL     1       1.795   4.464  19.701  0.00  0.00    +0.000 NA
ATOM      7  C   UNL     1       2.647   3.374  20.179  0.00  0.00    +0.000 C 
ATOM      8  C   UNL     1       2.683   2.203  19.190  0.00  0.00    +0.000 C 
BRANCH   3   9
ATOM      9  N   UNL     1       4.647   2.870  17.718  0.00  0.00    +0.000 NA
ATOM     10  H   UNL     1       4.944   3.280  18.606  0.00  0.00    +0.000 HD
BRANCH   9  11
ATOM     11  C   UNL     1       4.979   3.845  16.667  0.00  0.00    +0.000 C 
BRANCH  11  15
ATOM     12  C   UNL     1       7.660   6.912  18.124  0.00  0.00    +0.000 A 
ATOM     13  C   UNL     1       6.687   7.224  17.177  0.00  0.00    +0.000 A 
ATOM     14  C   UNL     1       5.839   6.228  16.691  0.00  0.00    +0.000 A 
ATOM     15  C   UNL     1       5.956   4.903  17.139  0.00  0.00    +0.000 A 
ATOM     16  C   UNL     1       6.939   4.602  18.094  0.00  0.00    +0.000 A 
ATOM     17  C   UNL     1       7.791   5.599  18.578  0.00  0.00    +0.000 A 
ENDBRANCH  11  15
ENDBRANCH   9  11
ENDBRANCH   3   9
ENDBRANCH   2   6
ENDBRANCH   1   2
BRANCH   1  18
ATOM     18  C   UNL     1       1.560   8.369  21.141  0.00  0.00    +0.000 C 
BRANCH  18  19
ATOM     19  C   UNL     1       0.915   9.610  20.563  0.00  0.00    +0.000 A 
ATOM     20  C   UNL     1       0.991   9.897  19.213  0.00  0.00    +0.000 A 
ATOM     21  N   UNL     1       1.193  11.233  19.261  0.00  0.00    +0.000 N 
ATOM     22  C   UNL     1       0.208  11.712  20.063  0.00  0.00    +0.000 A 
ATOM     23  C   UNL     1      -0.435  12.936  19.996  0.00  0.00    +0.000 A 
ATOM     24  C   UNL     1      -1.491  13.102  20.862  0.00  0.00    +0.000 A 
ATOM     25  C   UNL     1      -1.811  12.129  21.824  0.00  0.00    +0.000 A 
ATOM     26  C   UNL     1      -0.978  10.971  22.009  0.00  0.00    +0.000 A 
ATOM     27  C   UNL     1       0.004  10.690  21.006  0.00  0.00    +0.000 A 
ATOM     28  H   UNL     1       1.982  11.746  18.896  0.00  0.00    +0.000 HD
BRANCH  25  29
ATOM     29  N   UNL     1      -3.049  12.327  22.509  0.00  0.00    +0.000 N 
ATOM     30  C   UNL     1      -3.276  12.175  23.870  0.00  0.00    +0.000 A 
ATOM     31  N   UNL     1      -4.531  12.430  24.151  0.00  0.00    +0.000 NA
ATOM     32  N   UNL     1      -5.157  12.772  22.985  0.00  0.00    +0.000 NA
ATOM     33  C   UNL     1      -4.267  12.729  22.016  0.00  0.00    +0.000 A 
ENDBRANCH  25  29
ENDBRANCH  18  19
ENDBRANCH   1  18
TORSDOF 8
ENDMDL
MODEL 7
REMARK VINA RESULT:      -8.3      2.840      3.217
REMARK  Name = 
REMARK  8 active torsions:
REMARK  status: ('A' for Active; 'I' for Inactive)
REMARK    1  A    between atoms: C_4  and  C_5
REMARK    2  A    between atoms: C_5  and  N_6
REMARK    3  A    between atoms: N_6  and  C_7
REMARK    4  A    between atoms: N_10  and  C_11
REMARK    5  A    between atoms: C_11  and  C_12
REMARK    6  A    between atoms: C_12  and  C_13
REMARK    7  A    between atoms: C_13  and  C_14
REMARK    8  A    between atoms: C_20  and  N_21
REMARK                            x       y       z     vdW  Elec       q    Type
REMARK                         _______ _______ _______ _____ _____    ______ ____
ROOT
ATOM      1  C   UNL     1       8.915   9.645  18.654  0.00  0.00    +0.000 C 
ENDROOT
BRANCH   1   2
ATOM      2  C   UNL     1       7.743   8.985  17.829  0.00  0.00    +0.000 C 
BRANCH   2   6
ATOM      3  C   UNL     1       6.503   4.786  17.628  0.00  0.00    +0.000 C 
ATOM      4  C   UNL     1       7.749   5.202  18.426  0.00  0.00    +0.000 C 
ATOM      5  C   UNL     1       7.830   6.716  18.678  0.00  0.00    +0.000 C 
ATOM      6  N   UNL     1       7.700   7.551  17.448  0.00  0.00    +0.000 NA
ATOM      7  C   UNL     1       6.460   7.201  16.753  0.00  0.00    +0.000 C 
ATOM      8  C   UNL     1       6.403   5.709  16.406  0.00  0.00    +0.000 C 
BRANCH   3   9
ATOM      9  N   UNL     1       5.302   4.764  18.494  0.00  0.00    +0.000 NA
ATOM     10  H   UNL     1       5.584   5.019  19.443  0.00  0.00    +0.000 HD
BRANCH   9  11
ATOM     11  C   UNL     1       4.690   3.428  18.576  0.00  0.00    +0.000 C 
BRANCH  11  15
ATOM     12  C   UNL     1       0.700   3.636  20.235  0.00  0.00    +0.000 A 
ATOM     13  C   UNL     1       1.720   4.424  20.764  0.00  0.00    +0.000 A 
ATOM     14  C   UNL     1       3.012   4.338  20.242  0.00  0.00    +0.000 A 
ATOM     15  C   UNL     1       3.305   3.457  19.190  0.00  0.00    +0.000 A 
ATOM     16  C   UNL     1       2.268   2.669  18.666  0.00  0.00    +0.000 A 
ATOM     17  C   UNL     1       0.975   2.752  19.191  0.00  0.00    +0.000 A 
ENDBRANCH  11  15
ENDBRANCH   9  11
ENDBRANCH   3   9
ENDBRANCH   2   6
ENDBRANCH   1   2
BRANCH   1  18
ATOM     18  C   UNL     1       9.808  10.854  18.162  0.00  0.00    +0.000 C 
BRANCH  18  19
ATOM     19  C   UNL     1       9.783  12.099  19.024  0.00  0.00    +0.000 A 
ATOM     20  C   UNL     1      10.092  13.341  18.502  0.00  0.00    +0.000 A 
ATOM     21  N   UNL     1      10.819  13.856  19.519  0.00  0.00    +0.000 N 
ATOM     22  C   UNL     1      10.048  13.691  20.625  0.00  0.00    +0.000 A 
ATOM     23  C   UNL     1       9.972  14.498  21.747  0.00  0.00    +0.000 A 
ATOM     24  C   UNL     1       9.003  14.156  22.662  0.00  0.00    +0.000 A 
ATOM     25  C   UNL     1       8.227  12.994  22.508  0.00  0.00    +0.000 A 
ATOM     26  C   UNL     1       8.492  12.063  21.444  0.00  0.00    +0.000 A 
ATOM     27  C   UNL     1       9.359  12.490  20.388  0.00  0.00    +0.000 A 
ATOM     28  H   UNL     1      11.777  14.169  19.489  0.00  0.00    +0.000 HD
BRANCH  25  29
ATOM     29  N   UNL     1       7.122  12.872  23.406  0.00  0.00    +0.000 N 
ATOM     30  C   UNL     1       6.315  13.901  23.870  0.00  0.00    +0.000 A 
ATOM     31  N   UNL     1       5.404  13.430  24.687  0.00  0.00    +0.000 NA
ATOM     32  N   UNL     1       5.580  12.076  24.768  0.00  0.00    +0.000 NA
ATOM     33  C   UNL     1       6.588  11.748  23.989  0.00  0.00    +0.000 A 
ENDBRANCH  25  29
ENDBRANCH  18  19
ENDBRANCH   1  18
TORSDOF 8
ENDMDL
MODEL 8
REMARK VINA RESULT:      -8.2      2.281      3.948
REMARK  Name = 
REMARK  8 active torsions:
REMARK  status: ('A' for Active; 'I' for Inactive)
REMARK    1  A    between atoms: C_4  and  C_5
REMARK    2  A    between atoms: C_5  and  N_6
REMARK    3  A    between atoms: N_6  and  C_7
REMARK    4  A    between atoms: N_10  and  C_11
REMARK    5  A    between atoms: C_11  and  C_12
REMARK    6  A    between atoms: C_12  and  C_13
REMARK    7  A    between atoms: C_13  and  C_14
REMARK    8  A    between atoms: C_20  and  N_21
REMARK                            x       y       z     vdW  Elec       q    Type
REMARK                         _______ _______ _______ _____ _____    ______ ____
ROOT
ATOM      1  C   UNL     1       8.265   9.815  17.971  0.00  0.00    +0.000 C 
ENDROOT
BRANCH   1   2
ATOM      2  C   UNL     1       7.874   8.420  17.346  0.00  0.00    +0.000 C 
BRANCH   2   6
ATOM      3  C   UNL     1       5.601   4.753  18.118  0.00  0.00    +0.000 C 
ATOM      4  C   UNL     1       4.899   6.025  17.618  0.00  0.00    +0.000 C 
ATOM      5  C   UNL     1       5.872   7.081  17.072  0.00  0.00    +0.000 C 
ATOM      6  N   UNL     1       6.981   7.435  18.005  0.00  0.00    +0.000 NA
ATOM      7  C   UNL     1       7.694   6.218  18.396  0.00  0.00    +0.000 C 
ATOM      8  C   UNL     1       6.755   5.187  19.034  0.00  0.00    +0.000 C 
BRANCH   3   9
ATOM      9  N   UNL     1       5.996   3.886  16.985  0.00  0.00    +0.000 NA
ATOM     10  H   UNL     1       6.917   4.184  16.656  0.00  0.00    +0.000 HD
BRANCH   9  11
ATOM     11  C   UNL     1       5.079   4.002  15.839  0.00  0.00    +0.000 C 
BRANCH  11  15
ATOM     12  C   UNL     1       7.260   4.339  12.119  0.00  0.00    +0.000 A 
ATOM     13  C   UNL     1       7.689   5.034  13.248  0.00  0.00    +0.000 A 
ATOM     14  C   UNL     1       6.970   4.942  14.440  0.00  0.00    +0.000 A 
ATOM     15  C   UNL     1       5.807   4.161  14.520  0.00  0.00    +0.000 A 
ATOM     16  C   UNL     1       5.386   3.465  13.376  0.00  0.00    +0.000 A 
ATOM     17  C   UNL     1       6.104   3.560  12.181  0.00  0.00    +0.000 A 
ENDBRANCH  11  15
ENDBRANCH   9  11
ENDBRANCH   3   9
ENDBRANCH   2   6
ENDBRANCH   1   2
BRANCH   1  18
ATOM     18  C   UNL     1       9.216  10.022  19.218  0.00  0.00    +0.000 C 
BRANCH  18  19
ATOM     19  C   UNL     1      10.080  11.265  19.201  0.00  0.00    +0.000 A 
ATOM     20  C   UNL     1      11.373  11.236  18.714  0.00  0.00    +0.000 A 
ATOM     21  N   UNL     1      11.991  12.025  19.622  0.00  0.00    +0.000 N 
ATOM     22  C   UNL     1      11.247  13.159  19.671  0.00  0.00    +0.000 A 
ATOM     23  C   UNL     1      11.671  14.455  19.911  0.00  0.00    +0.000 A 
ATOM     24  C   UNL     1      10.711  15.431  19.771  0.00  0.00    +0.000 A 
ATOM     25  C   UNL     1       9.368  15.107  19.514  0.00  0.00    +0.000 A 
ATOM     26  C   UNL     1       8.928  13.738  19.494  0.00  0.00    +0.000 A 
ATOM     27  C   UNL     1       9.931  12.718  19.451  0.00  0.00    +0.000 A 
ATOM     28  H   UNL     1      12.756  11.774  20.230  0.00  0.00    +0.000 HD
BRANCH  25  29
ATOM     29  N   UNL     1       8.524  16.212  19.181  0.00  0.00    +0.000 N 
ATOM     30  C   UNL     1       8.935  17.474  18.776  0.00  0.00    +0.000 A 
ATOM     31  N   UNL     1       7.895  18.242  18.562  0.00  0.00    +0.000 NA
ATOM     32  N   UNL     1       6.773  17.499  18.806  0.00  0.00    +0.000 NA
ATOM     33  C   UNL     1       7.153  16.288  19.153  0.00  0.00    +0.000 A 
ENDBRANCH  25  29
ENDBRANCH  18  19
ENDBRANCH   1  18
TORSDOF 8
ENDMDL
MODEL 9
REMARK VINA RESULT:      -8.2      2.656      3.203
REMARK  Name = 
REMARK  8 active torsions:
REMARK  status: ('A' for Active; 'I' for Inactive)
REMARK    1  A    between atoms: C_4  and  C_5
REMARK    2  A    between atoms: C_5  and  N_6
REMARK    3  A    between atoms: N_6  and  C_7
REMARK    4  A    between atoms: N_10  and  C_11
REMARK    5  A    between atoms: C_11  and  C_12
REMARK    6  A    between atoms: C_12  and  C_13
REMARK    7  A    between atoms: C_13  and  C_14
REMARK    8  A    between atoms: C_20  and  N_21
REMARK                            x       y       z     vdW  Elec       q    Type
REMARK                         _______ _______ _______ _____ _____    ______ ____
ROOT
ATOM      1  C   UNL     1       8.401   8.558  18.819  0.00  0.00    +0.000 C 
ENDROOT
BRANCH   1   2
ATOM      2  C   UNL     1       8.137   7.043  18.466  0.00  0.00    +0.000 C 
BRANCH   2   6
ATOM      3  C   UNL     1       5.181   4.947  16.001  0.00  0.00    +0.000 C 
ATOM      4  C   UNL     1       6.650   4.494  16.027  0.00  0.00    +0.000 C 
ATOM      5  C   UNL     1       7.452   5.100  17.188  0.00  0.00    +0.000 C 
ATOM      6  N   UNL     1       7.367   6.587  17.282  0.00  0.00    +0.000 NA
ATOM      7  C   UNL     1       5.961   6.990  17.350  0.00  0.00    +0.000 C 
ATOM      8  C   UNL     1       5.163   6.475  16.146  0.00  0.00    +0.000 C 
BRANCH   3   9
ATOM      9  N   UNL     1       4.383   4.214  17.010  0.00  0.00    +0.000 NA
ATOM     10  H   UNL     1       4.165   3.287  16.639  0.00  0.00    +0.000 HD
BRANCH   9  11
ATOM     11  C   UNL     1       3.097   4.870  17.297  0.00  0.00    +0.000 C 
BRANCH  11  15
ATOM     12  C   UNL     1       0.960   3.261  20.696  0.00  0.00    +0.000 A 
ATOM     13  C   UNL     1       1.572   4.510  20.781  0.00  0.00    +0.000 A 
ATOM     14  C   UNL     1       2.281   5.016  19.690  0.00  0.00    +0.000 A 
ATOM     15  C   UNL     1       2.395   4.279  18.502  0.00  0.00    +0.000 A 
ATOM     16  C   UNL     1       1.773   3.023  18.430  0.00  0.00    +0.000 A 
ATOM     17  C   UNL     1       1.066   2.514  19.523  0.00  0.00    +0.000 A 
ENDBRANCH  11  15
ENDBRANCH   9  11
ENDBRANCH   3   9
ENDBRANCH   2   6
ENDBRANCH   1   2
BRANCH   1  18
ATOM     18  C   UNL     1       8.661   9.708  17.765  0.00  0.00    +0.000 C 
BRANCH  18  19
ATOM     19  C   UNL     1       9.005  11.069  18.330  0.00  0.00    +0.000 A 
ATOM     20  C   UNL     1       9.001  12.200  17.536  0.00  0.00    +0.000 A 
ATOM     21  N   UNL     1      10.102  12.829  18.003  0.00  0.00    +0.000 N 
ATOM     22  C   UNL     1       9.940  12.873  19.351  0.00  0.00    +0.000 A 
ATOM     23  C   UNL     1      10.373  13.845  20.237  0.00  0.00    +0.000 A 
ATOM     24  C   UNL     1       9.951  13.695  21.538  0.00  0.00    +0.000 A 
ATOM     25  C   UNL     1       9.226  12.563  21.948  0.00  0.00    +0.000 A 
ATOM     26  C   UNL     1       8.991  11.468  21.045  0.00  0.00    +0.000 A 
ATOM     27  C   UNL     1       9.254  11.685  19.654  0.00  0.00    +0.000 A 
ATOM     28  H   UNL     1      10.927  13.086  17.483  0.00  0.00    +0.000 HD
BRANCH  25  29
ATOM     29  N   UNL     1       8.670  12.634  23.262  0.00  0.00    +0.000 N 
ATOM     30  C   UNL     1       8.130  11.583  23.991  0.00  0.00    +0.000 A 
ATOM     31  N   UNL     1       7.705  12.010  25.155  0.00  0.00    +0.000 NA
ATOM     32  N   UNL     1       7.971  13.349  25.229  0.00  0.00    +0.000 NA
ATOM     33  C   UNL     1       8.562  13.710  24.110  0.00  0.00    +0.000 A 
ENDBRANCH  25  29
ENDBRANCH  18  19
ENDBRANCH   1  18
TORSDOF 8
ENDMDL
