MODEL 1
REMARK VINA RESULT:      -7.2      0.000      0.000
REMARK  Name = 
REMARK  5 active torsions:
REMARK  status: ('A' for Active; 'I' for Inactive)
REMARK    1  A    between atoms: O5*_1  and  C5*_2
REMARK    2  A    between atoms: C5*_2  and  C4*_3
REMARK    3  A    between atoms: C1*_5  and  N_6
REMARK    4  A    between atoms: C2*_17  and  O2*_18
REMARK    5  A    between atoms: C3*_19  and  O3*_20
REMARK                            x       y       z     vdW  Elec       q    Type
REMARK                         _______ _______ _______ _____ _____    ______ ____
ROOT
ATOM      1  C4* UNL     1       2.934   2.971  20.558  0.00  0.00    +0.000 C 
ATOM      2  O4* UNL     1       3.384   4.283  20.143  0.00  0.00    +0.000 OA
ATOM      3  C1* UNL     1       2.576   4.711  19.022  0.00  0.00    +0.000 C 
ATOM      4  C2* UNL     1       2.001   3.449  18.387  0.00  0.00    +0.000 C 
ATOM      5  C3* UNL     1       1.825   2.544  19.599  0.00  0.00    +0.000 C 
ENDROOT
BRANCH   3   6
ATOM      6  N   UNL     1       3.348   5.542  18.104  0.00  0.00    +0.000 N 
ATOM      7  C   UNL     1       3.269   6.910  18.005  0.00  0.00    +0.000 A 
ATOM      8 CL   UNL     1       2.246   7.840  18.999  0.00  0.00    +0.000 Cl
ATOM      9  N   UNL     1       4.054   7.409  17.086  0.00  0.00    +0.000 NA
ATOM     10  C   UNL     1       4.678   6.323  16.536  0.00  0.00    +0.000 A 
ATOM     11  C   UNL     1       5.623   6.280  15.500  0.00  0.00    +0.000 A 
ATOM     12  C   UNL     1       6.120   5.037  15.102  0.00  0.00    +0.000 A 
ATOM     13 CL   UNL     1       7.279   4.951  13.833  0.00  0.00    +0.000 Cl
ATOM     14  C   UNL     1       5.698   3.861  15.717  0.00  0.00    +0.000 A 
ATOM     15  C   UNL     1       4.766   3.893  16.760  0.00  0.00    +0.000 A 
ATOM     16  C   UNL     1       4.264   5.139  17.149  0.00  0.00    +0.000 A 
ENDBRANCH   3   6
BRANCH   4  17
ATOM     17  O2* UNL     1       0.750   3.673  17.734  0.00  0.00    +0.000 OA
ATOM     18  H2* UNL     1       0.902   3.522  16.778  0.00  0.00    +0.000 HD
ENDBRANCH   4  17
BRANCH   5  19
ATOM     19  O3* UNL     1       0.521   2.796  20.166  0.00  0.00    +0.000 OA
ATOM     20  H3* UNL     1      -0.146   2.262  19.697  0.00  0.00    +0.000 HD
ENDBRANCH   5  19
BRANCH   1  21
ATOM     21  C5* UNL     1       4.116   1.998  20.609  0.00  0.00    +0.000 C 
BRANCH  21  22
ATOM     22  O5* UNL     1       5.227   2.493  19.871  0.00  0.00    +0.000 OA
ATOM     23  H5* UNL     1       5.617   3.216  20.395  0.00  0.00    +0.000 HD
ENDBRANCH  21  22
ENDBRANCH   1  21
TORSDOF 5
ENDMDL
MODEL 2
REMARK VINA RESULT:      -7.2      2.384      2.823
REMARK  Name = 
REMARK  5 active torsions:
REMARK  status: ('A' for Active; 'I' for Inactive)
REMARK    1  A    between atoms: O5*_1  and  C5*_2
REMARK    2  A    between atoms: C5*_2  and  C4*_3
REMARK    3  A    between atoms: C1*_5  and  N_6
REMARK    4  A    between atoms: C2*_17  and  O2*_18
REMARK    5  A    between atoms: C3*_19  and  O3*_20
REMARK                            x       y       z     vdW  Elec       q    Type
REMARK                         _______ _______ _______ _____ _____    ______ ____
ROOT
ATOM      1  C4* UNL     1       3.485   2.939  19.916  0.00  0.00    +0.000 C 
ATOM      2  O4* UNL     1       4.856   3.190  19.523  0.00  0.00    +0.000 OA
ATOM      3  C1* UNL     1       4.987   4.590  19.186  0.00  0.00    +0.000 C 
ATOM      4  C2* UNL     1       3.591   5.091  18.833  0.00  0.00    +0.000 C 
ATOM      5  C3* UNL     1       2.717   4.249  19.754  0.00  0.00    +0.000 C 
ENDROOT
BRANCH   3   6
ATOM      6  N   UNL     1       5.976   4.787  18.132  0.00  0.00    +0.000 N 
ATOM      7  C   UNL     1       7.217   5.352  18.294  0.00  0.00    +0.000 A 
ATOM      8 CL   UNL     1       7.787   5.886  19.807  0.00  0.00    +0.000 Cl
ATOM      9  N   UNL     1       7.900   5.430  17.182  0.00  0.00    +0.000 NA
ATOM     10  C   UNL     1       7.073   4.903  16.229  0.00  0.00    +0.000 A 
ATOM     11  C   UNL     1       7.300   4.746  14.853  0.00  0.00    +0.000 A 
ATOM     12  C   UNL     1       6.291   4.179  14.071  0.00  0.00    +0.000 A 
ATOM     13 CL   UNL     1       6.539   3.974  12.381  0.00  0.00    +0.000 Cl
ATOM     14  C   UNL     1       5.085   3.771  14.636  0.00  0.00    +0.000 A 
ATOM     15  C   UNL     1       4.853   3.911  16.007  0.00  0.00    +0.000 A 
ATOM     16  C   UNL     1       5.862   4.488  16.785  0.00  0.00    +0.000 A 
ENDBRANCH   3   6
BRANCH   4  17
ATOM     17  O2* UNL     1       3.413   6.484  19.098  0.00  0.00    +0.000 OA
ATOM     18  H2* UNL     1       2.685   6.555  19.750  0.00  0.00    +0.000 HD
ENDBRANCH   4  17
BRANCH   5  19
ATOM     19  O3* UNL     1       2.594   4.940  21.016  0.00  0.00    +0.000 OA
ATOM     20  H3* UNL     1       2.627   5.902  20.865  0.00  0.00    +0.000 HD
ENDBRANCH   5  19
BRANCH   1  21
ATOM     21  C5* UNL     1       2.905   1.778  19.102  0.00  0.00    +0.000 C 
BRANCH  21  22
ATOM     22  O5* UNL     1       3.897   1.177  18.278  0.00  0.00    +0.000 OA
ATOM     23  H5* UNL     1       4.168   0.350  18.716  0.00  0.00    +0.000 HD
ENDBRANCH  21  22
ENDBRANCH   1  21
TORSDOF 5
ENDMDL
MODEL 3
REMARK VINA RESULT:      -6.9      2.051      4.581
REMARK  Name = 
REMARK  5 active torsions:
REMARK  status: ('A' for Active; 'I' for Inactive)
REMARK    1  A    between atoms: O5*_1  and  C5*_2
REMARK    2  A    between atoms: C5*_2  and  C4*_3
REMARK    3  A    between atoms: C1*_5  and  N_6
REMARK    4  A    between atoms: C2*_17  and  O2*_18
REMARK    5  A    between atoms: C3*_19  and  O3*_20
REMARK                            x       y       z     vdW  Elec       q    Type
REMARK                         _______ _______ _______ _____ _____    ______ ____
ROOT
ATOM      1  C4* UNL     1       2.496   2.394  19.825  0.00  0.00    +0.000 C 
ATOM      2  O4* UNL     1       2.212   3.488  18.920  0.00  0.00    +0.000 OA
ATOM      3  C1* UNL     1       3.464   4.102  18.537  0.00  0.00    +0.000 C 
ATOM      4  C2* UNL     1       4.475   3.756  19.624  0.00  0.00    +0.000 C 
ATOM      5  C3* UNL     1       4.006   2.373  20.056  0.00  0.00    +0.000 C 
ENDROOT
BRANCH   3   6
ATOM      6  N   UNL     1       3.299   5.534  18.309  0.00  0.00    +0.000 N 
ATOM      7  C   UNL     1       3.877   6.254  17.293  0.00  0.00    +0.000 A 
ATOM      8 CL   UNL     1       4.870   5.533  16.112  0.00  0.00    +0.000 Cl
ATOM      9  N   UNL     1       3.583   7.528  17.328  0.00  0.00    +0.000 NA
ATOM     10  C   UNL     1       2.781   7.668  18.427  0.00  0.00    +0.000 A 
ATOM     11  C   UNL     1       2.182   8.829  18.939  0.00  0.00    +0.000 A 
ATOM     12  C   UNL     1       1.399   8.723  20.090  0.00  0.00    +0.000 A 
ATOM     13 CL   UNL     1       0.652  10.130  20.744  0.00  0.00    +0.000 Cl
ATOM     14  C   UNL     1       1.206   7.496  20.721  0.00  0.00    +0.000 A 
ATOM     15  C   UNL     1       1.787   6.331  20.212  0.00  0.00    +0.000 A 
ATOM     16  C   UNL     1       2.578   6.443  19.064  0.00  0.00    +0.000 A 
ENDBRANCH   3   6
BRANCH   4  17
ATOM     17  O2* UNL     1       5.819   3.708  19.142  0.00  0.00    +0.000 OA
ATOM     18  H2* UNL     1       6.301   3.077  19.717  0.00  0.00    +0.000 HD
ENDBRANCH   4  17
BRANCH   5  19
ATOM     19  O3* UNL     1       4.648   1.393  19.213  0.00  0.00    +0.000 OA
ATOM     20  H3* UNL     1       4.555   1.657  18.279  0.00  0.00    +0.000 HD
ENDBRANCH   5  19
BRANCH   1  21
ATOM     21  C5* UNL     1       1.675   2.542  21.110  0.00  0.00    +0.000 C 
BRANCH  21  22
ATOM     22  O5* UNL     1       2.516   2.634  22.253  0.00  0.00    +0.000 OA
ATOM     23  H5* UNL     1       2.522   1.755  22.674  0.00  0.00    +0.000 HD
ENDBRANCH  21  22
ENDBRANCH   1  21
TORSDOF 5
ENDMDL
MODEL 4
REMARK VINA RESULT:      -6.8      1.893      2.448
REMARK  Name = 
REMARK  5 active torsions:
REMARK  status: ('A' for Active; 'I' for Inactive)
REMARK    1  A    between atoms: O5*_1  and  C5*_2
REMARK    2  A    between atoms: C5*_2  and  C4*_3
REMARK    3  A    between atoms: C1*_5  and  N_6
REMARK    4  A    between atoms: C2*_17  and  O2*_18
REMARK    5  A    between atoms: C3*_19  and  O3*_20
REMARK                            x       y       z     vdW  Elec       q    Type
REMARK                         _______ _______ _______ _____ _____    ______ ____
ROOT
ATOM      1  C4* UNL     1       1.513   3.834  19.116  0.00  0.00    +0.000 C 
ATOM      2  O4* UNL     1       2.308   4.526  18.123  0.00  0.00    +0.000 OA
ATOM      3  C1* UNL     1       3.330   3.622  17.643  0.00  0.00    +0.000 C 
ATOM      4  C2* UNL     1       3.524   2.564  18.724  0.00  0.00    +0.000 C 
ATOM      5  C3* UNL     1       2.119   2.444  19.298  0.00  0.00    +0.000 C 
ENDROOT
BRANCH   3   6
ATOM      6  N   UNL     1       4.547   4.344  17.288  0.00  0.00    +0.000 N 
ATOM      7  C   UNL     1       5.255   5.176  18.120  0.00  0.00    +0.000 A 
ATOM      8 CL   UNL     1       4.800   5.453  19.738  0.00  0.00    +0.000 Cl
ATOM      9  N   UNL     1       6.299   5.716  17.547  0.00  0.00    +0.000 NA
ATOM     10  C   UNL     1       6.281   5.233  16.268  0.00  0.00    +0.000 A 
ATOM     11  C   UNL     1       7.170   5.493  15.214  0.00  0.00    +0.000 A 
ATOM     12  C   UNL     1       6.941   4.879  13.981  0.00  0.00    +0.000 A 
ATOM     13 CL   UNL     1       8.014   5.179  12.669  0.00  0.00    +0.000 Cl
ATOM     14  C   UNL     1       5.859   4.022  13.792  0.00  0.00    +0.000 A 
ATOM     15  C   UNL     1       4.974   3.746  14.838  0.00  0.00    +0.000 A 
ATOM     16  C   UNL     1       5.202   4.370  16.069  0.00  0.00    +0.000 A 
ENDBRANCH   3   6
BRANCH   4  17
ATOM     17  O2* UNL     1       3.969   1.310  18.204  0.00  0.00    +0.000 OA
ATOM     18  H2* UNL     1       3.445   1.140  17.394  0.00  0.00    +0.000 HD
ENDBRANCH   4  17
BRANCH   5  19
ATOM     19  O3* UNL     1       1.399   1.457  18.529  0.00  0.00    +0.000 OA
ATOM     20  H3* UNL     1       1.000   0.803  19.132  0.00  0.00    +0.000 HD
ENDBRANCH   5  19
BRANCH   1  21
ATOM     21  C5* UNL     1       1.448   4.656  20.407  0.00  0.00    +0.000 C 
BRANCH  21  22
ATOM     22  O5* UNL     1       2.098   3.985  21.480  0.00  0.00    +0.000 OA
ATOM     23  H5* UNL     1       2.832   3.474  21.094  0.00  0.00    +0.000 HD
ENDBRANCH  21  22
ENDBRANCH   1  21
TORSDOF 5
ENDMDL
MODEL 5
REMARK VINA RESULT:      -6.8      3.084      5.091
REMARK  Name = 
REMARK  5 active torsions:
REMARK  status: ('A' for Active; 'I' for Inactive)
REMARK    1  A    between atoms: O5*_1  and  C5*_2
REMARK    2  A    between atoms: C5*_2  and  C4*_3
REMARK    3  A    between atoms: C1*_5  and  N_6
REMARK    4  A    between atoms: C2*_17  and  O2*_18
REMARK    5  A    between atoms: C3*_19  and  O3*_20
REMARK                            x       y       z     vdW  Elec       q    Type
REMARK                         _______ _______ _______ _____ _____    ______ ____
ROOT
ATOM      1  C4* UNL     1       3.596   3.049  17.782  0.00  0.00    +0.000 C 
ATOM      2  O4* UNL     1       2.675   4.157  17.930  0.00  0.00    +0.000 OA
ATOM      3  C1* UNL     1       3.435   5.345  18.247  0.00  0.00    +0.000 C 
ATOM      4  C2* UNL     1       4.758   4.876  18.843  0.00  0.00    +0.000 C 
ATOM      5  C3* UNL     1       4.997   3.577  18.084  0.00  0.00    +0.000 C 
ENDROOT
BRANCH   3   6
ATOM      6  N   UNL     1       2.675   6.241  19.113  0.00  0.00    +0.000 N 
ATOM      7  C   UNL     1       2.171   5.921  20.350  0.00  0.00    +0.000 A 
ATOM      8 CL   UNL     1       2.406   4.393  21.064  0.00  0.00    +0.000 Cl
ATOM      9  N   UNL     1       1.508   6.900  20.908  0.00  0.00    +0.000 NA
ATOM     10  C   UNL     1       1.561   7.919  19.997  0.00  0.00    +0.000 A 
ATOM     11  C   UNL     1       1.008   9.205  20.080  0.00  0.00    +0.000 A 
ATOM     12  C   UNL     1       1.193  10.081  19.008  0.00  0.00    +0.000 A 
ATOM     13 CL   UNL     1       0.526  11.666  19.079  0.00  0.00    +0.000 Cl
ATOM     14  C   UNL     1       1.913   9.697  17.879  0.00  0.00    +0.000 A 
ATOM     15  C   UNL     1       2.480   8.422  17.791  0.00  0.00    +0.000 A 
ATOM     16  C   UNL     1       2.284   7.544  18.863  0.00  0.00    +0.000 A 
ENDBRANCH   3   6
BRANCH   4  17
ATOM     17  O2* UNL     1       5.828   5.797  18.622  0.00  0.00    +0.000 OA
ATOM     18  H2* UNL     1       5.856   6.386  19.405  0.00  0.00    +0.000 HD
ENDBRANCH   4  17
BRANCH   5  19
ATOM     19  O3* UNL     1       5.710   3.888  16.868  0.00  0.00    +0.000 OA
ATOM     20  H3* UNL     1       6.564   4.303  17.089  0.00  0.00    +0.000 HD
ENDBRANCH   5  19
BRANCH   1  21
ATOM     21  C5* UNL     1       3.168   1.882  18.678  0.00  0.00    +0.000 C 
BRANCH  21  22
ATOM     22  O5* UNL     1       3.924   0.710  18.397  0.00  0.00    +0.000 OA
ATOM     23  H5* UNL     1       4.244   0.366  19.250  0.00  0.00    +0.000 HD
ENDBRANCH  21  22
ENDBRANCH   1  21
TORSDOF 5
ENDMDL
MODEL 6
REMARK VINA RESULT:      -6.7      1.623      4.133
REMARK  Name = 
REMARK  5 active torsions:
REMARK  status: ('A' for Active; 'I' for Inactive)
REMARK    1  A    between atoms: O5*_1  and  C5*_2
REMARK    2  A    between atoms: C5*_2  and  C4*_3
REMARK    3  A    between atoms: C1*_5  and  N_6
REMARK    4  A    between atoms: C2*_17  and  O2*_18
REMARK    5  A    between atoms: C3*_19  and  O3*_20
REMARK                            x       y       z     vdW  Elec       q    Type
REMARK                         _______ _______ _______ _____ _____    ______ ____
ROOT
ATOM      1  C4* UNL     1       2.233   2.024  18.044  0.00  0.00    +0.000 C 
ATOM      2  O4* UNL     1       2.657   3.065  17.132  0.00  0.00    +0.000 OA
ATOM      3  C1* UNL     1       3.984   3.495  17.512  0.00  0.00    +0.000 C 
ATOM      4  C2* UNL     1       4.163   3.123  18.980  0.00  0.00    +0.000 C 
ATOM      5  C3* UNL     1       3.341   1.846  19.080  0.00  0.00    +0.000 C 
ENDROOT
BRANCH   3   6
ATOM      6  N   UNL     1       4.181   4.912  17.227  0.00  0.00    +0.000 N 
ATOM      7  C   UNL     1       5.216   5.445  16.499  0.00  0.00    +0.000 A 
ATOM      8 CL   UNL     1       6.426   4.480  15.789  0.00  0.00    +0.000 Cl
ATOM      9  N   UNL     1       5.169   6.749  16.409  0.00  0.00    +0.000 NA
ATOM     10  C   UNL     1       4.056   7.105  17.121  0.00  0.00    +0.000 A 
ATOM     11  C   UNL     1       3.534   8.385  17.358  0.00  0.00    +0.000 A 
ATOM     12  C   UNL     1       2.374   8.500  18.127  0.00  0.00    +0.000 A 
ATOM     13 CL   UNL     1       1.710  10.057  18.437  0.00  0.00    +0.000 Cl
ATOM     14  C   UNL     1       1.740   7.375  18.649  0.00  0.00    +0.000 A 
ATOM     15  C   UNL     1       2.245   6.093  18.408  0.00  0.00    +0.000 A 
ATOM     16  C   UNL     1       3.412   5.983  17.644  0.00  0.00    +0.000 A 
ENDBRANCH   3   6
BRANCH   4  17
ATOM     17  O2* UNL     1       5.527   2.878  19.332  0.00  0.00    +0.000 OA
ATOM     18  H2* UNL     1       5.767   3.550  20.005  0.00  0.00    +0.000 HD
ENDBRANCH   4  17
BRANCH   5  19
ATOM     19  O3* UNL     1       4.193   0.730  18.744  0.00  0.00    +0.000 OA
ATOM     20  H3* UNL     1       4.384   0.744  17.788  0.00  0.00    +0.000 HD
ENDBRANCH   5  19
BRANCH   1  21
ATOM     21  C5* UNL     1       0.870   2.374  18.650  0.00  0.00    +0.000 C 
BRANCH  21  22
ATOM     22  O5* UNL     1       0.971   2.614  20.049  0.00  0.00    +0.000 OA
ATOM     23  H5* UNL     1       1.556   1.926  20.414  0.00  0.00    +0.000 HD
ENDBRANCH  21  22
ENDBRANCH   1  21
TORSDOF 5
ENDMDL
MODEL 7
REMARK VINA RESULT:      -6.7      3.108      5.627
REMARK  Name = 
REMARK  5 active torsions:
REMARK  status: ('A' for Active; 'I' for Inactive)
REMARK    1  A    between atoms: O5*_1  and  C5*_2
REMARK    2  A    between atoms: C5*_2  and  C4*_3
REMARK    3  A    between atoms: C1*_5  and  N_6
REMARK    4  A    between atoms: C2*_17  and  O2*_18
REMARK    5  A    between atoms: C3*_19  and  O3*_20
REMARK                            x       y       z     vdW  Elec       q    Type
REMARK                         _______ _______ _______ _____ _____    ______ ____
ROOT
ATOM      1  C4* UNL     1       7.470   4.870  18.115  0.00  0.00    +0.000 C 
ATOM      2  O4* UNL     1       6.443   4.078  18.758  0.00  0.00    +0.000 OA
ATOM      3  C1* UNL     1       5.292   4.024  17.885  0.00  0.00    +0.000 C 
ATOM      4  C2* UNL     1       5.387   5.230  16.957  0.00  0.00    +0.000 C 
ATOM      5  C3* UNL     1       6.894   5.381  16.796  0.00  0.00    +0.000 C 
ENDROOT
BRANCH   3   6
ATOM      6  N   UNL     1       4.053   3.957  18.652  0.00  0.00    +0.000 N 
ATOM      7  C   UNL     1       3.352   2.812  18.941  0.00  0.00    +0.000 A 
ATOM      8 CL   UNL     1       3.878   1.270  18.448  0.00  0.00    +0.000 Cl
ATOM      9  N   UNL     1       2.260   3.032  19.627  0.00  0.00    +0.000 NA
ATOM     10  C   UNL     1       2.223   4.389  19.794  0.00  0.00    +0.000 A 
ATOM     11  C   UNL     1       1.263   5.171  20.453  0.00  0.00    +0.000 A 
ATOM     12  C   UNL     1       1.440   6.555  20.490  0.00  0.00    +0.000 A 
ATOM     13 CL   UNL     1       0.278   7.541  21.290  0.00  0.00    +0.000 Cl
ATOM     14  C   UNL     1       2.544   7.157  19.891  0.00  0.00    +0.000 A 
ATOM     15  C   UNL     1       3.514   6.387  19.242  0.00  0.00    +0.000 A 
ATOM     16  C   UNL     1       3.329   5.001  19.200  0.00  0.00    +0.000 A 
ENDBRANCH   3   6
BRANCH   4  17
ATOM     17  O2* UNL     1       4.761   5.012  15.691  0.00  0.00    +0.000 OA
ATOM     18  H2* UNL     1       4.642   4.043  15.600  0.00  0.00    +0.000 HD
ENDBRANCH   4  17
BRANCH   5  19
ATOM     19  O3* UNL     1       7.316   4.556  15.689  0.00  0.00    +0.000 OA
ATOM     20  H3* UNL     1       8.179   4.869  15.361  0.00  0.00    +0.000 HD
ENDBRANCH   5  19
BRANCH   1  21
ATOM     21  C5* UNL     1       7.946   5.983  19.054  0.00  0.00    +0.000 C 
BRANCH  21  22
ATOM     22  O5* UNL     1       7.927   5.558  20.412  0.00  0.00    +0.000 OA
ATOM     23  H5* UNL     1       8.782   5.813  20.802  0.00  0.00    +0.000 HD
ENDBRANCH  21  22
ENDBRANCH   1  21
TORSDOF 5
ENDMDL
MODEL 8
REMARK VINA RESULT:      -6.6      3.031      5.531
REMARK  Name = 
REMARK  5 active torsions:
REMARK  status: ('A' for Active; 'I' for Inactive)
REMARK    1  A    between atoms: O5*_1  and  C5*_2
REMARK    2  A    between atoms: C5*_2  and  C4*_3
REMARK    3  A    between atoms: C1*_5  and  N_6
REMARK    4  A    between atoms: C2*_17  and  O2*_18
REMARK    5  A    between atoms: C3*_19  and  O3*_20
REMARK                            x       y       z     vdW  Elec       q    Type
REMARK                         _______ _______ _______ _____ _____    ______ ____
ROOT
ATOM      1  C4* UNL     1       5.926   5.218  15.484  0.00  0.00    +0.000 C 
ATOM      2  O4* UNL     1       4.710   5.763  16.050  0.00  0.00    +0.000 OA
ATOM      3  C1* UNL     1       5.016   6.316  17.350  0.00  0.00    +0.000 C 
ATOM      4  C2* UNL     1       6.289   5.627  17.832  0.00  0.00    +0.000 C 
ATOM      5  C3* UNL     1       7.032   5.394  16.523  0.00  0.00    +0.000 C 
ENDROOT
BRANCH   3   6
ATOM      6  N   UNL     1       3.884   6.181  18.260  0.00  0.00    +0.000 N 
ATOM      7  C   UNL     1       2.940   7.147  18.511  0.00  0.00    +0.000 A 
ATOM      8 CL   UNL     1       2.961   8.666  17.741  0.00  0.00    +0.000 Cl
ATOM      9  N   UNL     1       2.041   6.778  19.385  0.00  0.00    +0.000 NA
ATOM     10  C   UNL     1       2.406   5.510  19.745  0.00  0.00    +0.000 A 
ATOM     11  C   UNL     1       1.793   4.642  20.660  0.00  0.00    +0.000 A 
ATOM     12  C   UNL     1       2.359   3.382  20.866  0.00  0.00    +0.000 A 
ATOM     13 CL   UNL     1       1.630   2.294  21.983  0.00  0.00    +0.000 Cl
ATOM     14  C   UNL     1       3.505   2.986  20.181  0.00  0.00    +0.000 A 
ATOM     15  C   UNL     1       4.118   3.838  19.257  0.00  0.00    +0.000 A 
ATOM     16  C   UNL     1       3.552   5.102  19.060  0.00  0.00    +0.000 A 
ENDBRANCH   3   6
BRANCH   4  17
ATOM     17  O2* UNL     1       7.062   6.438  18.718  0.00  0.00    +0.000 OA
ATOM     18  H2* UNL     1       8.001   6.316  18.462  0.00  0.00    +0.000 HD
ENDBRANCH   4  17
BRANCH   5  19
ATOM     19  O3* UNL     1       7.829   6.564  16.242  0.00  0.00    +0.000 OA
ATOM     20  H3* UNL     1       7.376   7.114  15.577  0.00  0.00    +0.000 HD
ENDBRANCH   5  19
BRANCH   1  21
ATOM     21  C5* UNL     1       5.706   3.764  15.056  0.00  0.00    +0.000 C 
BRANCH  21  22
ATOM     22  O5* UNL     1       6.412   3.464  13.858  0.00  0.00    +0.000 OA
ATOM     23  H5* UNL     1       6.712   4.313  13.485  0.00  0.00    +0.000 HD
ENDBRANCH  21  22
ENDBRANCH   1  21
TORSDOF 5
ENDMDL
MODEL 9
REMARK VINA RESULT:      -6.6      2.785      5.128
REMARK  Name = 
REMARK  5 active torsions:
REMARK  status: ('A' for Active; 'I' for Inactive)
REMARK    1  A    between atoms: O5*_1  and  C5*_2
REMARK    2  A    between atoms: C5*_2  and  C4*_3
REMARK    3  A    between atoms: C1*_5  and  N_6
REMARK    4  A    between atoms: C2*_17  and  O2*_18
REMARK    5  A    between atoms: C3*_19  and  O3*_20
REMARK                            x       y       z     vdW  Elec       q    Type
REMARK                         _______ _______ _______ _____ _____    ______ ____
ROOT
ATOM      1  C4* UNL     1       5.623   4.336  18.888  0.00  0.00    +0.000 C 
ATOM      2  O4* UNL     1       5.114   5.652  19.211  0.00  0.00    +0.000 OA
ATOM      3  C1* UNL     1       3.674   5.574  19.315  0.00  0.00    +0.000 C 
ATOM      4  C2* UNL     1       3.241   4.349  18.518  0.00  0.00    +0.000 C 
ATOM      5  C3* UNL     1       4.420   3.408  18.727  0.00  0.00    +0.000 C 
ENDROOT
BRANCH   3   6
ATOM      6  N   UNL     1       3.047   6.819  18.885  0.00  0.00    +0.000 N 
ATOM      7  C   UNL     1       3.284   7.465  17.697  0.00  0.00    +0.000 A 
ATOM      8 CL   UNL     1       4.356   6.855  16.523  0.00  0.00    +0.000 Cl
ATOM      9  N   UNL     1       2.606   8.576  17.567  0.00  0.00    +0.000 NA
ATOM     10  C   UNL     1       1.891   8.684  18.728  0.00  0.00    +0.000 A 
ATOM     11  C   UNL     1       0.999   9.692  19.124  0.00  0.00    +0.000 A 
ATOM     12  C   UNL     1       0.385   9.585  20.374  0.00  0.00    +0.000 A 
ATOM     13 CL   UNL     1      -0.713  10.806  20.889  0.00  0.00    +0.000 Cl
ATOM     14  C   UNL     1       0.642   8.504  21.214  0.00  0.00    +0.000 A 
ATOM     15  C   UNL     1       1.519   7.488  20.824  0.00  0.00    +0.000 A 
ATOM     16  C   UNL     1       2.139   7.603  19.576  0.00  0.00    +0.000 A 
ENDBRANCH   3   6
BRANCH   4  17
ATOM     17  O2* UNL     1       2.032   3.764  19.006  0.00  0.00    +0.000 OA
ATOM     18  H2* UNL     1       1.791   3.052  18.376  0.00  0.00    +0.000 HD
ENDBRANCH   4  17
BRANCH   5  19
ATOM     19  O3* UNL     1       4.184   2.648  19.932  0.00  0.00    +0.000 OA
ATOM     20  H3* UNL     1       3.324   2.903  20.314  0.00  0.00    +0.000 HD
ENDBRANCH   5  19
BRANCH   1  21
ATOM     21  C5* UNL     1       6.521   4.404  17.648  0.00  0.00    +0.000 C 
BRANCH  21  22
ATOM     22  O5* UNL     1       7.866   4.066  17.964  0.00  0.00    +0.000 OA
ATOM     23  H5* UNL     1       8.221   4.791  18.509  0.00  0.00    +0.000 HD
ENDBRANCH  21  22
ENDBRANCH   1  21
TORSDOF 5
ENDMDL
