MODEL 1
REMARK VINA RESULT:      -8.4      0.000      0.000
REMARK  Name = 
REMARK  6 active torsions:
REMARK  status: ('A' for Active; 'I' for Inactive)
REMARK    1  A    between atoms: C_1  and  C_2
REMARK    2  A    between atoms: C_6  and  N_7
REMARK    3  A    between atoms: C_8  and  S_9
REMARK    4  A    between atoms: N_10  and  N_11
REMARK    5  A    between atoms: C_12  and  C_14
REMARK    6  A    between atoms: C_21  and  C_22
REMARK                            x       y       z     vdW  Elec       q    Type
REMARK                         _______ _______ _______ _____ _____    ______ ____
ROOT
ATOM      1  N   UNL     1       2.045   7.955  19.223  0.00  0.00    +0.000 N 
ATOM      2  C   UNL     1       1.688   9.035  18.430  0.00  0.00    +0.000 C 
ATOM      3  O   UNL     1       2.112   9.241  17.299  0.00  0.00    +0.000 OA
ATOM      4  H   UNL     1       1.591   7.779  20.109  0.00  0.00    +0.000 HD
ENDROOT
BRANCH   2   5
ATOM      5  C   UNL     1       0.695   9.918  19.063  0.00  0.00    +0.000 A 
ATOM      6  C   UNL     1       0.891  10.600  20.254  0.00  0.00    +0.000 A 
ATOM      7  S   UNL     1      -0.450  11.557  20.714  0.00  0.00    +0.000 S 
ATOM      8  C   UNL     1      -1.306  11.111  19.319  0.00  0.00    +0.000 A 
ATOM      9  C   UNL     1      -0.609  10.216  18.527  0.00  0.00    +0.000 A 
ATOM     10  C   UNL     1      -1.190   9.673  17.251  0.00  0.00    +0.000 C 
ATOM     11  C   UNL     1      -2.704   9.913  17.167  0.00  0.00    +0.000 C 
ATOM     12  C   UNL     1      -3.057  11.363  17.558  0.00  0.00    +0.000 C 
ATOM     13  C   UNL     1      -4.535  11.651  17.311  0.00  0.00    +0.000 C 
ATOM     14  C   UNL     1      -2.681  11.633  19.031  0.00  0.00    +0.000 C 
ENDBRANCH   2   5
BRANCH   1  17
ATOM     15  N   UNL     1       3.607   4.728  18.900  0.00  0.00    +0.000 N 
ATOM     16  C   UNL     1       2.841   5.809  19.264  0.00  0.00    +0.000 C 
ATOM     17  N   UNL     1       2.899   7.003  18.757  0.00  0.00    +0.000 NA
ATOM     18  H   UNL     1       3.519   3.911  19.486  0.00  0.00    +0.000 HD
BRANCH  15  24
ATOM     19  C   UNL     1       5.624   4.266  14.379  0.00  0.00    +0.000 C 
ATOM     20  C   UNL     1       5.804   4.457  15.856  0.00  0.00    +0.000 A 
ATOM     21  C   UNL     1       7.055   4.681  16.429  0.00  0.00    +0.000 A 
ATOM     22  C   UNL     1       7.157   4.894  17.801  0.00  0.00    +0.000 A 
ATOM     23  C   UNL     1       6.009   4.908  18.603  0.00  0.00    +0.000 A 
ATOM     24  C   UNL     1       4.735   4.704  18.051  0.00  0.00    +0.000 A 
ATOM     25  C   UNL     1       4.665   4.445  16.677  0.00  0.00    +0.000 A 
ENDBRANCH  15  24
BRANCH  16  26
ATOM     26  S   UNL     1       1.703   5.433  20.571  0.00  0.00    +0.000 S 
ATOM     27  H   UNL     1       1.785   6.607  21.206  0.00  0.00    +0.000 HD
ENDBRANCH  16  26
ENDBRANCH   1  17
TORSDOF 4
ENDMDL
MODEL 2
REMARK VINA RESULT:      -7.9      0.757      1.380
REMARK  Name = 
REMARK  6 active torsions:
REMARK  status: ('A' for Active; 'I' for Inactive)
REMARK    1  A    between atoms: C_1  and  C_2
REMARK    2  A    between atoms: C_6  and  N_7
REMARK    3  A    between atoms: C_8  and  S_9
REMARK    4  A    between atoms: N_10  and  N_11
REMARK    5  A    between atoms: C_12  and  C_14
REMARK    6  A    between atoms: C_21  and  C_22
REMARK                            x       y       z     vdW  Elec       q    Type
REMARK                         _______ _______ _______ _____ _____    ______ ____
ROOT
ATOM      1  N   UNL     1       1.752   8.246  19.174  0.00  0.00    +0.000 N 
ATOM      2  C   UNL     1       1.469   9.401  18.461  0.00  0.00    +0.000 C 
ATOM      3  O   UNL     1       2.002   9.716  17.403  0.00  0.00    +0.000 OA
ATOM      4  H   UNL     1       1.213   7.986  19.989  0.00  0.00    +0.000 HD
ENDROOT
BRANCH   2   5
ATOM      5  C   UNL     1       0.413  10.221  19.076  0.00  0.00    +0.000 A 
ATOM      6  C   UNL     1       0.550  10.921  20.265  0.00  0.00    +0.000 A 
ATOM      7  S   UNL     1      -0.856  11.792  20.702  0.00  0.00    +0.000 S 
ATOM      8  C   UNL     1      -1.664  11.284  19.299  0.00  0.00    +0.000 A 
ATOM      9  C   UNL     1      -0.901  10.431  18.522  0.00  0.00    +0.000 A 
ATOM     10  C   UNL     1      -1.429   9.845  17.242  0.00  0.00    +0.000 C 
ATOM     11  C   UNL     1      -2.955   9.986  17.139  0.00  0.00    +0.000 C 
ATOM     12  C   UNL     1      -3.406  11.412  17.516  0.00  0.00    +0.000 C 
ATOM     13  C   UNL     1      -4.895  11.603  17.249  0.00  0.00    +0.000 C 
ATOM     14  C   UNL     1      -3.066  11.714  18.992  0.00  0.00    +0.000 C 
ENDBRANCH   2   5
BRANCH   1  17
ATOM     15  N   UNL     1       3.490   5.111  18.851  0.00  0.00    +0.000 N 
ATOM     16  C   UNL     1       2.668   6.148  19.218  0.00  0.00    +0.000 C 
ATOM     17  N   UNL     1       2.653   7.341  18.704  0.00  0.00    +0.000 NA
ATOM     18  H   UNL     1       3.455   4.293  19.442  0.00  0.00    +0.000 HD
BRANCH  15  24
ATOM     19  C   UNL     1       7.733   7.213  17.336  0.00  0.00    +0.000 C 
ATOM     20  C   UNL     1       6.694   6.145  17.168  0.00  0.00    +0.000 A 
ATOM     21  C   UNL     1       6.820   5.128  16.223  0.00  0.00    +0.000 A 
ATOM     22  C   UNL     1       5.844   4.138  16.140  0.00  0.00    +0.000 A 
ATOM     23  C   UNL     1       4.752   4.146  17.016  0.00  0.00    +0.000 A 
ATOM     24  C   UNL     1       4.608   5.146  17.990  0.00  0.00    +0.000 A 
ATOM     25  C   UNL     1       5.577   6.155  18.020  0.00  0.00    +0.000 A 
ENDBRANCH  15  24
BRANCH  16  26
ATOM     26  S   UNL     1       1.567   5.718  20.540  0.00  0.00    +0.000 S 
ATOM     27  H   UNL     1       2.339   6.141  21.546  0.00  0.00    +0.000 HD
ENDBRANCH  16  26
ENDBRANCH   1  17
TORSDOF 4
ENDMDL
MODEL 3
REMARK VINA RESULT:      -7.6      1.516      1.944
REMARK  Name = 
REMARK  6 active torsions:
REMARK  status: ('A' for Active; 'I' for Inactive)
REMARK    1  A    between atoms: C_1  and  C_2
REMARK    2  A    between atoms: C_6  and  N_7
REMARK    3  A    between atoms: C_8  and  S_9
REMARK    4  A    between atoms: N_10  and  N_11
REMARK    5  A    between atoms: C_12  and  C_14
REMARK    6  A    between atoms: C_21  and  C_22
REMARK                            x       y       z     vdW  Elec       q    Type
REMARK                         _______ _______ _______ _____ _____    ______ ____
ROOT
ATOM      1  N   UNL     1       2.436   7.088  20.234  0.00  0.00    +0.000 N 
ATOM      2  C   UNL     1       1.778   8.206  19.743  0.00  0.00    +0.000 C 
ATOM      3  O   UNL     1       1.813   8.580  18.576  0.00  0.00    +0.000 OA
ATOM      4  H   UNL     1       2.293   6.768  21.182  0.00  0.00    +0.000 HD
ENDROOT
BRANCH   2   5
ATOM      5  C   UNL     1       0.976   8.903  20.761  0.00  0.00    +0.000 A 
ATOM      6  C   UNL     1       1.022   8.637  22.121  0.00  0.00    +0.000 A 
ATOM      7  S   UNL     1      -0.021   9.632  23.041  0.00  0.00    +0.000 S 
ATOM      8  C   UNL     1      -0.530  10.462  21.652  0.00  0.00    +0.000 A 
ATOM      9  C   UNL     1       0.047   9.972  20.494  0.00  0.00    +0.000 A 
ATOM     10  C   UNL     1      -0.279  10.549  19.144  0.00  0.00    +0.000 C 
ATOM     11  C   UNL     1      -1.548  11.413  19.186  0.00  0.00    +0.000 C 
ATOM     12  C   UNL     1      -1.523  12.375  20.391  0.00  0.00    +0.000 C 
ATOM     13  C   UNL     1      -2.695  13.349  20.338  0.00  0.00    +0.000 C 
ATOM     14  C   UNL     1      -1.525  11.581  21.716  0.00  0.00    +0.000 C 
ENDBRANCH   2   5
BRANCH   1  17
ATOM     15  N   UNL     1       3.519   4.076  18.587  0.00  0.00    +0.000 N 
ATOM     16  C   UNL     1       2.903   5.018  19.376  0.00  0.00    +0.000 C 
ATOM     17  N   UNL     1       3.163   6.290  19.406  0.00  0.00    +0.000 NA
ATOM     18  H   UNL     1       3.281   3.115  18.785  0.00  0.00    +0.000 HD
BRANCH  15  24
ATOM     19  C   UNL     1       5.737   4.154  14.138  0.00  0.00    +0.000 C 
ATOM     20  C   UNL     1       5.843   4.250  15.632  0.00  0.00    +0.000 A 
ATOM     21  C   UNL     1       7.043   4.551  16.274  0.00  0.00    +0.000 A 
ATOM     22  C   UNL     1       7.073   4.669  17.661  0.00  0.00    +0.000 A 
ATOM     23  C   UNL     1       5.900   4.511  18.410  0.00  0.00    +0.000 A 
ATOM     24  C   UNL     1       4.674   4.226  17.790  0.00  0.00    +0.000 A 
ATOM     25  C   UNL     1       4.681   4.065  16.399  0.00  0.00    +0.000 A 
ENDBRANCH  15  24
BRANCH  16  26
ATOM     26  S   UNL     1       1.655   4.323  20.426  0.00  0.00    +0.000 S 
ATOM     27  H   UNL     1       0.598   4.686  19.692  0.00  0.00    +0.000 HD
ENDBRANCH  16  26
ENDBRANCH   1  17
TORSDOF 4
ENDMDL
MODEL 4
REMARK VINA RESULT:      -7.2      2.724      4.325
REMARK  Name = 
REMARK  6 active torsions:
REMARK  status: ('A' for Active; 'I' for Inactive)
REMARK    1  A    between atoms: C_1  and  C_2
REMARK    2  A    between atoms: C_6  and  N_7
REMARK    3  A    between atoms: C_8  and  S_9
REMARK    4  A    between atoms: N_10  and  N_11
REMARK    5  A    between atoms: C_12  and  C_14
REMARK    6  A    between atoms: C_21  and  C_22
REMARK                            x       y       z     vdW  Elec       q    Type
REMARK                         _______ _______ _______ _____ _____    ______ ____
ROOT
ATOM      1  N   UNL     1       4.334   6.457  17.387  0.00  0.00    +0.000 N 
ATOM      2  C   UNL     1       3.196   5.817  17.854  0.00  0.00    +0.000 C 
ATOM      3  O   UNL     1       2.786   4.736  17.446  0.00  0.00    +0.000 OA
ATOM      4  H   UNL     1       4.682   7.299  17.826  0.00  0.00    +0.000 HD
ENDROOT
BRANCH   2   5
ATOM      5  C   UNL     1       2.525   6.544  18.943  0.00  0.00    +0.000 A 
ATOM      6  C   UNL     1       2.284   6.028  20.207  0.00  0.00    +0.000 A 
ATOM      7  S   UNL     1       1.498   7.132  21.250  0.00  0.00    +0.000 S 
ATOM      8  C   UNL     1       1.494   8.333  20.052  0.00  0.00    +0.000 A 
ATOM      9  C   UNL     1       2.043   7.900  18.858  0.00  0.00    +0.000 A 
ATOM     10  C   UNL     1       2.123   8.797  17.655  0.00  0.00    +0.000 C 
ATOM     11  C   UNL     1       1.212  10.025  17.799  0.00  0.00    +0.000 C 
ATOM     12  C   UNL     1       1.372  10.673  19.190  0.00  0.00    +0.000 C 
ATOM     13  C   UNL     1       0.600  11.986  19.273  0.00  0.00    +0.000 C 
ATOM     14  C   UNL     1       0.919   9.695  20.296  0.00  0.00    +0.000 C 
ENDBRANCH   2   5
BRANCH   1  17
ATOM     15  N   UNL     1       7.203   4.846  15.926  0.00  0.00    +0.000 N 
ATOM     16  C   UNL     1       6.299   5.467  16.755  0.00  0.00    +0.000 C 
ATOM     17  N   UNL     1       5.112   5.882  16.429  0.00  0.00    +0.000 NA
ATOM     18  H   UNL     1       8.126   4.706  16.312  0.00  0.00    +0.000 HD
BRANCH  15  24
ATOM     19  C   UNL     1       5.313   2.644  11.889  0.00  0.00    +0.000 C 
ATOM     20  C   UNL     1       6.274   3.628  12.489  0.00  0.00    +0.000 A 
ATOM     21  C   UNL     1       7.074   4.457  11.705  0.00  0.00    +0.000 A 
ATOM     22  C   UNL     1       7.917   5.382  12.316  0.00  0.00    +0.000 A 
ATOM     23  C   UNL     1       7.946   5.498  13.711  0.00  0.00    +0.000 A 
ATOM     24  C   UNL     1       7.139   4.691  14.525  0.00  0.00    +0.000 A 
ATOM     25  C   UNL     1       6.337   3.737  13.888  0.00  0.00    +0.000 A 
ENDBRANCH  15  24
BRANCH  16  26
ATOM     26  S   UNL     1       6.915   5.684  18.403  0.00  0.00    +0.000 S 
ATOM     27  H   UNL     1       7.359   4.435  18.582  0.00  0.00    +0.000 HD
ENDBRANCH  16  26
ENDBRANCH   1  17
TORSDOF 4
ENDMDL
MODEL 5
REMARK VINA RESULT:      -7.2      1.864      2.672
REMARK  Name = 
REMARK  6 active torsions:
REMARK  status: ('A' for Active; 'I' for Inactive)
REMARK    1  A    between atoms: C_1  and  C_2
REMARK    2  A    between atoms: C_6  and  N_7
REMARK    3  A    between atoms: C_8  and  S_9
REMARK    4  A    between atoms: N_10  and  N_11
REMARK    5  A    between atoms: C_12  and  C_14
REMARK    6  A    between atoms: C_21  and  C_22
REMARK                            x       y       z     vdW  Elec       q    Type
REMARK                         _______ _______ _______ _____ _____    ______ ____
ROOT
ATOM      1  N   UNL     1       2.343   8.035  19.137  0.00  0.00    +0.000 N 
ATOM      2  C   UNL     1       1.929   9.069  18.312  0.00  0.00    +0.000 C 
ATOM      3  O   UNL     1       2.236   9.186  17.131  0.00  0.00    +0.000 OA
ATOM      4  H   UNL     1       1.980   7.933  20.075  0.00  0.00    +0.000 HD
ENDROOT
BRANCH   2   5
ATOM      5  C   UNL     1       1.029  10.022  18.981  0.00  0.00    +0.000 A 
ATOM      6  C   UNL     1      -0.097   9.667  19.708  0.00  0.00    +0.000 A 
ATOM      7  S   UNL     1      -0.923  11.009  20.374  0.00  0.00    +0.000 S 
ATOM      8  C   UNL     1       0.222  12.088  19.739  0.00  0.00    +0.000 A 
ATOM      9  C   UNL     1       1.201  11.453  18.995  0.00  0.00    +0.000 A 
ATOM     10  C   UNL     1       2.305  12.221  18.323  0.00  0.00    +0.000 C 
ATOM     11  C   UNL     1       1.987  13.722  18.244  0.00  0.00    +0.000 C 
ATOM     12  C   UNL     1       1.463  14.249  19.595  0.00  0.00    +0.000 C 
ATOM     13  C   UNL     1       1.311  15.767  19.568  0.00  0.00    +0.000 C 
ATOM     14  C   UNL     1       0.127  13.567  19.960  0.00  0.00    +0.000 C 
ENDBRANCH   2   5
BRANCH   1  17
ATOM     15  N   UNL     1       3.666   4.707  18.768  0.00  0.00    +0.000 N 
ATOM     16  C   UNL     1       2.984   5.837  19.151  0.00  0.00    +0.000 C 
ATOM     17  N   UNL     1       3.122   7.029  18.654  0.00  0.00    +0.000 NA
ATOM     18  H   UNL     1       3.526   3.893  19.348  0.00  0.00    +0.000 HD
BRANCH  15  24
ATOM     19  C   UNL     1       5.597   4.142  14.221  0.00  0.00    +0.000 C 
ATOM     20  C   UNL     1       5.806   4.307  15.697  0.00  0.00    +0.000 A 
ATOM     21  C   UNL     1       7.075   4.438  16.258  0.00  0.00    +0.000 A 
ATOM     22  C   UNL     1       7.207   4.631  17.631  0.00  0.00    +0.000 A 
ATOM     23  C   UNL     1       6.071   4.719  18.445  0.00  0.00    +0.000 A 
ATOM     24  C   UNL     1       4.780   4.611  17.907  0.00  0.00    +0.000 A 
ATOM     25  C   UNL     1       4.678   4.369  16.532  0.00  0.00    +0.000 A 
ENDBRANCH  15  24
BRANCH  16  26
ATOM     26  S   UNL     1       1.835   5.531  20.467  0.00  0.00    +0.000 S 
ATOM     27  H   UNL     1       1.094   4.617  19.833  0.00  0.00    +0.000 HD
ENDBRANCH  16  26
ENDBRANCH   1  17
TORSDOF 4
ENDMDL
MODEL 6
REMARK VINA RESULT:      -7.1      1.655      2.427
REMARK  Name = 
REMARK  6 active torsions:
REMARK  status: ('A' for Active; 'I' for Inactive)
REMARK    1  A    between atoms: C_1  and  C_2
REMARK    2  A    between atoms: C_6  and  N_7
REMARK    3  A    between atoms: C_8  and  S_9
REMARK    4  A    between atoms: N_10  and  N_11
REMARK    5  A    between atoms: C_12  and  C_14
REMARK    6  A    between atoms: C_21  and  C_22
REMARK                            x       y       z     vdW  Elec       q    Type
REMARK                         _______ _______ _______ _____ _____    ______ ____
ROOT
ATOM      1  N   UNL     1       2.156   7.483  20.280  0.00  0.00    +0.000 N 
ATOM      2  C   UNL     1       1.534   8.649  19.859  0.00  0.00    +0.000 C 
ATOM      3  O   UNL     1       1.613   9.113  18.727  0.00  0.00    +0.000 OA
ATOM      4  H   UNL     1       1.978   7.093  21.196  0.00  0.00    +0.000 HD
ENDROOT
BRANCH   2   5
ATOM      5  C   UNL     1       0.714   9.280  20.905  0.00  0.00    +0.000 A 
ATOM      6  C   UNL     1       0.725   8.919  22.243  0.00  0.00    +0.000 A 
ATOM      7  S   UNL     1      -0.332   9.858  23.206  0.00  0.00    +0.000 S 
ATOM      8  C   UNL     1      -0.801  10.788  21.867  0.00  0.00    +0.000 A 
ATOM      9  C   UNL     1      -0.200  10.375  20.691  0.00  0.00    +0.000 A 
ATOM     10  C   UNL     1      -0.488  11.048  19.378  0.00  0.00    +0.000 C 
ATOM     11  C   UNL     1      -1.751  11.919  19.451  0.00  0.00    +0.000 C 
ATOM     12  C   UNL     1      -1.747  12.794  20.721  0.00  0.00    +0.000 C 
ATOM     13  C   UNL     1      -2.910  13.781  20.708  0.00  0.00    +0.000 C 
ATOM     14  C   UNL     1      -1.788  11.910  21.987  0.00  0.00    +0.000 C 
ENDBRANCH   2   5
BRANCH   1  17
ATOM     15  N   UNL     1       3.378   4.551  18.587  0.00  0.00    +0.000 N 
ATOM     16  C   UNL     1       2.736   5.448  19.406  0.00  0.00    +0.000 C 
ATOM     17  N   UNL     1       2.895   6.737  19.414  0.00  0.00    +0.000 NA
ATOM     18  H   UNL     1       3.229   3.576  18.804  0.00  0.00    +0.000 HD
BRANCH  15  24
ATOM     19  C   UNL     1       7.508   7.046  17.389  0.00  0.00    +0.000 C 
ATOM     20  C   UNL     1       6.496   5.992  17.050  0.00  0.00    +0.000 A 
ATOM     21  C   UNL     1       6.624   5.173  15.929  0.00  0.00    +0.000 A 
ATOM     22  C   UNL     1       5.676   4.182  15.686  0.00  0.00    +0.000 A 
ATOM     23  C   UNL     1       4.611   3.989  16.574  0.00  0.00    +0.000 A 
ATOM     24  C   UNL     1       4.467   4.784  17.721  0.00  0.00    +0.000 A 
ATOM     25  C   UNL     1       5.406   5.804  17.915  0.00  0.00    +0.000 A 
ENDBRANCH  15  24
BRANCH  16  26
ATOM     26  S   UNL     1       1.612   4.667  20.533  0.00  0.00    +0.000 S 
ATOM     27  H   UNL     1       2.002   3.407  20.312  0.00  0.00    +0.000 HD
ENDBRANCH  16  26
ENDBRANCH   1  17
TORSDOF 4
ENDMDL
MODEL 7
REMARK VINA RESULT:      -7.0      1.131      1.621
REMARK  Name = 
REMARK  6 active torsions:
REMARK  status: ('A' for Active; 'I' for Inactive)
REMARK    1  A    between atoms: C_1  and  C_2
REMARK    2  A    between atoms: C_6  and  N_7
REMARK    3  A    between atoms: C_8  and  S_9
REMARK    4  A    between atoms: N_10  and  N_11
REMARK    5  A    between atoms: C_12  and  C_14
REMARK    6  A    between atoms: C_21  and  C_22
REMARK                            x       y       z     vdW  Elec       q    Type
REMARK                         _______ _______ _______ _____ _____    ______ ____
ROOT
ATOM      1  N   UNL     1       1.439   8.767  19.208  0.00  0.00    +0.000 N 
ATOM      2  C   UNL     1       1.388  10.038  18.656  0.00  0.00    +0.000 C 
ATOM      3  O   UNL     1       2.164  10.463  17.808  0.00  0.00    +0.000 OA
ATOM      4  H   UNL     1       0.714   8.434  19.830  0.00  0.00    +0.000 HD
ENDROOT
BRANCH   2   5
ATOM      5  C   UNL     1       0.264  10.845  19.158  0.00  0.00    +0.000 A 
ATOM      6  C   UNL     1       0.348  11.753  20.203  0.00  0.00    +0.000 A 
ATOM      7  S   UNL     1      -1.132  12.543  20.533  0.00  0.00    +0.000 S 
ATOM      8  C   UNL     1      -1.907  11.721  19.268  0.00  0.00    +0.000 A 
ATOM      9  C   UNL     1      -1.074  10.824  18.622  0.00  0.00    +0.000 A 
ATOM     10  C   UNL     1      -1.561   9.974  17.483  0.00  0.00    +0.000 C 
ATOM     11  C   UNL     1      -3.095   9.943  17.410  0.00  0.00    +0.000 C 
ATOM     12  C   UNL     1      -3.684  11.362  17.551  0.00  0.00    +0.000 C 
ATOM     13  C   UNL     1      -5.190  11.355  17.308  0.00  0.00    +0.000 C 
ATOM     14  C   UNL     1      -3.352  11.949  18.940  0.00  0.00    +0.000 C 
ENDBRANCH   2   5
BRANCH   1  17
ATOM     15  N   UNL     1       3.339   5.710  19.135  0.00  0.00    +0.000 N 
ATOM     16  C   UNL     1       2.472   6.735  19.427  0.00  0.00    +0.000 C 
ATOM     17  N   UNL     1       2.375   7.868  18.799  0.00  0.00    +0.000 NA
ATOM     18  H   UNL     1       3.366   4.956  19.806  0.00  0.00    +0.000 HD
BRANCH  15  24
ATOM     19  C   UNL     1       8.038   4.542  18.007  0.00  0.00    +0.000 C 
ATOM     20  C   UNL     1       6.746   5.201  17.622  0.00  0.00    +0.000 A 
ATOM     21  C   UNL     1       6.550   5.773  16.365  0.00  0.00    +0.000 A 
ATOM     22  C   UNL     1       5.316   6.334  16.047  0.00  0.00    +0.000 A 
ATOM     23  C   UNL     1       4.266   6.303  16.973  0.00  0.00    +0.000 A 
ATOM     24  C   UNL     1       4.427   5.717  18.237  0.00  0.00    +0.000 A 
ATOM     25  C   UNL     1       5.692   5.205  18.549  0.00  0.00    +0.000 A 
ENDBRANCH  15  24
BRANCH  16  26
ATOM     26  S   UNL     1       1.435   6.382  20.822  0.00  0.00    +0.000 S 
ATOM     27  H   UNL     1       2.407   6.307  21.737  0.00  0.00    +0.000 HD
ENDBRANCH  16  26
ENDBRANCH   1  17
TORSDOF 4
ENDMDL
MODEL 8
REMARK VINA RESULT:      -7.0      1.376      2.479
REMARK  Name = 
REMARK  6 active torsions:
REMARK  status: ('A' for Active; 'I' for Inactive)
REMARK    1  A    between atoms: C_1  and  C_2
REMARK    2  A    between atoms: C_6  and  N_7
REMARK    3  A    between atoms: C_8  and  S_9
REMARK    4  A    between atoms: N_10  and  N_11
REMARK    5  A    between atoms: C_12  and  C_14
REMARK    6  A    between atoms: C_21  and  C_22
REMARK                            x       y       z     vdW  Elec       q    Type
REMARK                         _______ _______ _______ _____ _____    ______ ____
ROOT
ATOM      1  N   UNL     1       1.590   7.795  18.652  0.00  0.00    +0.000 N 
ATOM      2  C   UNL     1       1.535   9.038  18.041  0.00  0.00    +0.000 C 
ATOM      3  O   UNL     1       2.405   9.496  17.308  0.00  0.00    +0.000 OA
ATOM      4  H   UNL     1       0.802   7.426  19.166  0.00  0.00    +0.000 HD
ENDROOT
BRANCH   2   5
ATOM      5  C   UNL     1       0.288   9.769  18.320  0.00  0.00    +0.000 A 
ATOM      6  C   UNL     1      -0.866   9.681  17.556  0.00  0.00    +0.000 A 
ATOM      7  S   UNL     1      -2.147  10.643  18.155  0.00  0.00    +0.000 S 
ATOM      8  C   UNL     1      -1.204  11.169  19.463  0.00  0.00    +0.000 A 
ATOM      9  C   UNL     1       0.082  10.660  19.434  0.00  0.00    +0.000 A 
ATOM     10  C   UNL     1       1.094  11.012  20.488  0.00  0.00    +0.000 C 
ATOM     11  C   UNL     1       0.662  12.239  21.305  0.00  0.00    +0.000 C 
ATOM     12  C   UNL     1      -0.814  12.124  21.736  0.00  0.00    +0.000 C 
ATOM     13  C   UNL     1      -1.195  13.254  22.688  0.00  0.00    +0.000 C 
ATOM     14  C   UNL     1      -1.739  12.110  20.499  0.00  0.00    +0.000 C 
ENDBRANCH   2   5
BRANCH   1  17
ATOM     15  N   UNL     1       3.817   5.014  19.167  0.00  0.00    +0.000 N 
ATOM     16  C   UNL     1       2.825   5.961  19.247  0.00  0.00    +0.000 C 
ATOM     17  N   UNL     1       2.644   6.962  18.439  0.00  0.00    +0.000 NA
ATOM     18  H   UNL     1       3.884   4.382  19.952  0.00  0.00    +0.000 HD
BRANCH  15  24
ATOM     19  C   UNL     1       5.965   4.129  14.771  0.00  0.00    +0.000 C 
ATOM     20  C   UNL     1       6.089   4.570  16.200  0.00  0.00    +0.000 A 
ATOM     21  C   UNL     1       7.288   5.047  16.729  0.00  0.00    +0.000 A 
ATOM     22  C   UNL     1       7.334   5.482  18.051  0.00  0.00    +0.000 A 
ATOM     23  C   UNL     1       6.179   5.466  18.842  0.00  0.00    +0.000 A 
ATOM     24  C   UNL     1       4.954   5.010  18.331  0.00  0.00    +0.000 A 
ATOM     25  C   UNL     1       4.946   4.533  17.015  0.00  0.00    +0.000 A 
ENDBRANCH  15  24
BRANCH  16  26
ATOM     26  S   UNL     1       1.745   5.709  20.632  0.00  0.00    +0.000 S 
ATOM     27  H   UNL     1       2.382   4.654  21.150  0.00  0.00    +0.000 HD
ENDBRANCH  16  26
ENDBRANCH   1  17
TORSDOF 4
ENDMDL
MODEL 9
REMARK VINA RESULT:      -6.8      1.680      2.338
REMARK  Name = 
REMARK  6 active torsions:
REMARK  status: ('A' for Active; 'I' for Inactive)
REMARK    1  A    between atoms: C_1  and  C_2
REMARK    2  A    between atoms: C_6  and  N_7
REMARK    3  A    between atoms: C_8  and  S_9
REMARK    4  A    between atoms: N_10  and  N_11
REMARK    5  A    between atoms: C_12  and  C_14
REMARK    6  A    between atoms: C_21  and  C_22
REMARK                            x       y       z     vdW  Elec       q    Type
REMARK                         _______ _______ _______ _____ _____    ______ ____
ROOT
ATOM      1  N   UNL     1       3.142   6.550  18.783  0.00  0.00    +0.000 N 
ATOM      2  C   UNL     1       2.528   7.745  18.439  0.00  0.00    +0.000 C 
ATOM      3  O   UNL     1       2.600   8.275  17.336  0.00  0.00    +0.000 OA
ATOM      4  H   UNL     1       2.969   6.107  19.675  0.00  0.00    +0.000 HD
ENDROOT
BRANCH   2   5
ATOM      5  C   UNL     1       1.725   8.321  19.530  0.00  0.00    +0.000 A 
ATOM      6  C   UNL     1       1.834   7.963  20.864  0.00  0.00    +0.000 A 
ATOM      7  S   UNL     1       0.769   8.829  21.886  0.00  0.00    +0.000 S 
ATOM      8  C   UNL     1       0.167   9.724  20.576  0.00  0.00    +0.000 A 
ATOM      9  C   UNL     1       0.729   9.351  19.369  0.00  0.00    +0.000 A 
ATOM     10  C   UNL     1       0.326  10.002  18.075  0.00  0.00    +0.000 C 
ATOM     11  C   UNL     1      -0.987  10.786  18.218  0.00  0.00    +0.000 C 
ATOM     12  C   UNL     1      -0.973  11.661  19.489  0.00  0.00    +0.000 C 
ATOM     13  C   UNL     1      -2.199  12.568  19.542  0.00  0.00    +0.000 C 
ATOM     14  C   UNL     1      -0.885  10.777  20.752  0.00  0.00    +0.000 C 
ENDBRANCH   2   5
BRANCH   1  17
ATOM     15  N   UNL     1       4.792   3.735  17.262  0.00  0.00    +0.000 N 
ATOM     16  C   UNL     1       4.105   4.592  18.087  0.00  0.00    +0.000 C 
ATOM     17  N   UNL     1       3.863   5.850  17.866  0.00  0.00    +0.000 NA
ATOM     18  H   UNL     1       4.997   2.825  17.650  0.00  0.00    +0.000 HD
BRANCH  15  24
ATOM     19  C   UNL     1       5.508   3.470  12.349  0.00  0.00    +0.000 C 
ATOM     20  C   UNL     1       5.978   3.935  13.696  0.00  0.00    +0.000 A 
ATOM     21  C   UNL     1       7.110   4.733  13.853  0.00  0.00    +0.000 A 
ATOM     22  C   UNL     1       7.476   5.170  15.124  0.00  0.00    +0.000 A 
ATOM     23  C   UNL     1       6.699   4.833  16.238  0.00  0.00    +0.000 A 
ATOM     24  C   UNL     1       5.543   4.048  16.109  0.00  0.00    +0.000 A 
ATOM     25  C   UNL     1       5.226   3.581  14.828  0.00  0.00    +0.000 A 
ENDBRANCH  15  24
BRANCH  16  26
ATOM     26  S   UNL     1       3.544   3.811  19.577  0.00  0.00    +0.000 S 
ATOM     27  H   UNL     1       2.811   4.831  20.034  0.00  0.00    +0.000 HD
ENDBRANCH  16  26
ENDBRANCH   1  17
TORSDOF 4
ENDMDL
